# generated using pymatgen
data_BaLaInIrO6
_symmetry_space_group_name_H-M   'P 1'
_cell_length_a   17.53656225
_cell_length_b   17.57842281
_cell_length_c   16.52599472
_cell_angle_alpha   90.09714273
_cell_angle_beta   89.97801418
_cell_angle_gamma   90.00395993
_symmetry_Int_Tables_number   1
_chemical_formula_structural   BaLaInIrO6
_chemical_formula_sum   'Ba36 La36 In36 Ir36 O216'
_cell_volume   5094.37980311
_cell_formula_units_Z   36
loop_
 _symmetry_equiv_pos_site_id
 _symmetry_equiv_pos_as_xyz
  1  'x, y, z'
loop_
 _atom_site_type_symbol
 _atom_site_label
 _atom_site_symmetry_multiplicity
 _atom_site_fract_x
 _atom_site_fract_y
 _atom_site_fract_z
 _atom_site_occupancy
  Ba  Ba0  1  0.83741699  0.32755160  0.37367689  1
  Ba  Ba1  1  0.99985496  0.50610789  0.62072138  1
  Ba  Ba2  1  0.50130415  0.32557714  0.37803495  1
  Ba  Ba3  1  0.83060126  0.34516410  0.12679585  1
  Ba  Ba4  1  0.50282119  0.66137814  0.37369551  1
  Ba  Ba5  1  0.66701567  0.17967217  0.62683010  1
  Ba  Ba6  1  0.16228356  0.67197977  0.62141046  1
  Ba  Ba7  1  0.16780003  0.67789223  0.13069015  1
  Ba  Ba8  1  0.50045607  0.34503967  0.62942658  1
  Ba  Ba9  1  0.83185394  0.67812911  0.12717737  1
  Ba  Ba10  1  -0.00119178  0.49350237  0.37410004  1
  Ba  Ba11  1  0.83150527  0.98922567  0.87461129  1
  Ba  Ba12  1  0.33308722  0.50397818  0.62213706  1
  Ba  Ba13  1  0.66375244  0.49274836  0.37313092  1
  Ba  Ba14  1  0.83433999  0.67161977  0.62342359  1
  Ba  Ba15  1  0.49888558  0.68197702  0.12380160  1
  Ba  Ba16  1  0.49612787  0.67257609  0.62342843  1
  Ba  Ba17  1  -0.00489815  0.82517055  0.87904566  1
  Ba  Ba18  1  0.66912112  0.17522640  0.12363571  1
  Ba  Ba19  1  0.33394597  0.84021955  0.62721324  1
  Ba  Ba20  1  0.83137336  0.65642885  0.37117597  1
  Ba  Ba21  1  0.82869571  0.34313378  0.62484404  1
  Ba  Ba22  1  0.83174917  0.99020934  0.37458786  1
  Ba  Ba23  1  0.33560820  0.49629985  0.37590267  1
  Ba  Ba24  1  0.66394299  0.82453824  0.37604584  1
  Ba  Ba25  1  0.83402755  0.65887818  0.87865628  1
  Ba  Ba26  1  0.00295182  0.16137526  0.37163723  1
  Ba  Ba27  1  0.16668006  0.34271223  0.12283619  1
  Ba  Ba28  1  0.33192936  0.84127940  0.12952604  1
  Ba  Ba29  1  0.17118988  0.32647638  0.37491802  1
  Ba  Ba30  1  0.17130881  0.00581812  0.62380642  1
  Ba  Ba31  1  0.32909164  0.15890893  0.37552342  1
  Ba  Ba32  1  0.16740433  0.00298297  0.12308694  1
  Ba  Ba33  1  0.16606240  0.34058930  0.62335815  1
  Ba  Ba34  1  0.33466300  0.82295779  0.37349988  1
  Ba  Ba35  1  0.16675212  0.32219889  0.87326443  1
  La  La36  1  0.67153509  0.84579856  0.13067346  1
  La  La37  1  0.17194957  0.65235743  0.37298221  1
  La  La38  1  0.83144440  0.01215585  0.62425792  1
  La  La39  1  0.50697321  0.98220033  0.87334486  1
  La  La40  1  0.49511377  0.00745552  0.13022519  1
  La  La41  1  0.17139969  0.98514428  0.86692156  1
  La  La42  1  0.50726808  0.98664688  0.37625294  1
  La  La43  1  0.33937654  0.18501663  0.62392697  1
  La  La44  1  1.00111408  0.51531950  0.13158468  1
  La  La45  1  1.00504674  0.17925222  0.12491687  1
  La  La46  1  1.00289656  0.84295122  0.62567575  1
  La  La47  1  1.00484266  0.84452926  0.12652927  1
  La  La48  1  0.49530125  0.35255568  0.12544504  1
  La  La49  1  0.17081021  0.98276380  0.37388407  1
  La  La50  1  0.83165047  0.00790104  0.12736823  1
  La  La51  1  -0.00549351  0.81919294  0.37378393  1
  La  La52  1  0.67136664  0.51513744  0.12505652  1
  La  La53  1  1.00231928  0.17994507  0.62391027  1
  La  La54  1  0.33733908  0.18047742  0.12823117  1
  La  La55  1  0.49223343  0.01634136  0.62343371  1
  La  La56  1  0.67316961  0.51477897  0.61943551  1
  La  La57  1  0.66385338  0.48441028  0.87535810  1
  La  La58  1  0.66456574  0.16273928  0.37435468  1
  La  La59  1  0.50390931  0.64993748  0.87759026  1
  La  La60  1  0.33831998  0.51694958  0.12791889  1
  La  La61  1  0.83418748  0.31805987  0.87599504  1
  La  La62  1  0.32793661  0.14719119  0.87078138  1
  La  La63  1  -0.00313344  0.15212496  0.87284721  1
  La  La64  1  0.32914259  0.82121092  0.87349667  1
  La  La65  1  0.50686646  0.31518524  0.87436813  1
  La  La66  1  0.32820584  0.48927326  0.87888234  1
  La  La67  1  0.66951255  0.84513002  0.62426415  1
  La  La68  1  0.16565217  0.65160513  0.87761571  1
  La  La69  1  -0.00277741  0.49188686  0.87677478  1
  La  La70  1  0.66368311  0.81414253  0.87961012  1
  La  La71  1  0.65715497  0.14899036  0.86686973  1
  In  In72  1  0.16615763  0.49827764  0.49750155  1
  In  In73  1  0.33733434  0.33269130  -0.00311029  1
  In  In74  1  0.33493897  0.33549408  0.24857306  1
  In  In75  1  0.00026202  0.00066370  0.00055111  1
  In  In76  1  0.50089169  0.83593178  0.50515205  1
  In  In77  1  0.83347493  0.16466438  0.25094002  1
  In  In78  1  0.16589957  0.50169371  0.75219960  1
  In  In79  1  0.00149493  0.33367958  0.24811280  1
  In  In80  1  0.33588708  -0.00147359  -0.00157943  1
  In  In81  1  0.50140342  0.16679437  0.25020848  1
  In  In82  1  0.66774808  0.66930974  0.50088253  1
  In  In83  1  0.17008207  0.16188536  0.24700528  1
  In  In84  1  0.66585280  0.33235815  0.00080711  1
  In  In85  1  0.33391241  -0.00031496  0.49756802  1
  In  In86  1  0.16560042  0.83003384  -0.00104110  1
  In  In87  1  0.16605637  0.16255269  0.50103331  1
  In  In88  1  0.50287497  0.49806216  0.50023929  1
  In  In89  1  -0.00014682  -0.00162426  0.74807730  1
  In  In90  1  0.33589231  0.66890164  -0.00163882  1
  In  In91  1  0.66504307  -0.00390862  0.00077508  1
  In  In92  1  0.33167656  0.66803691  0.50101061  1
  In  In93  1  0.33531392  0.66586416  0.75391347  1
  In  In94  1  0.49877730  0.16452709  -0.00117173  1
  In  In95  1  0.66768368  0.00308932  0.50149321  1
  In  In96  1  0.83433702  0.49983726  0.49798160  1
  In  In97  1  -0.00171887  0.33405168  0.75314635  1
  In  In98  1  0.66696682  0.67006577  0.24641804  1
  In  In99  1  -0.00174386  0.00086141  0.49804946  1
  In  In100  1  0.82965137  0.16633707  0.75088409  1
  In  In101  1  0.83278324  0.16448821  -0.00192744  1
  In  In102  1  0.82999794  0.49958434  0.75452283  1
  In  In103  1  0.16942698  0.16260660  -0.00270017  1
  In  In104  1  0.83005966  0.83122287  0.75069856  1
  In  In105  1  0.00018721  0.66715846  0.75260523  1
  In  In106  1  -0.00062502  0.33480170  -0.00082600  1
  In  In107  1  0.33683037  0.33371102  0.75454788  1
  Ir  Ir108  1  0.66719261  0.32938485  0.49972097  1
  Ir  Ir109  1  -0.00057806  0.66935975  0.24958437  1
  Ir  Ir110  1  0.83111182  0.82992694  0.00834636  1
  Ir  Ir111  1  0.66408607  -0.00089091  0.24959905  1
  Ir  Ir112  1  0.33409452  -0.00296121  0.25090111  1
  Ir  Ir113  1  0.66472502  0.33702884  0.75026041  1
  Ir  Ir114  1  0.83305635  0.50076217  0.24432448  1
  Ir  Ir115  1  0.16779580  0.50482476  0.24426367  1
  Ir  Ir116  1  -0.00169565  0.66491905  0.00644885  1
  Ir  Ir117  1  -0.00062626  -0.00442416  0.25010070  1
  Ir  Ir118  1  -0.00185651  0.32966872  0.50028571  1
  Ir  Ir119  1  0.50276653  0.83621927  0.75643502  1
  Ir  Ir120  1  0.33392245  0.66811894  0.24898563  1
  Ir  Ir121  1  0.16043770  0.83251112  0.49882915  1
  Ir  Ir122  1  0.66384278  0.66567928  -0.00231046  1
  Ir  Ir123  1  0.34016047  -0.00020247  0.74982185  1
  Ir  Ir124  1  0.82868759  0.50372785  0.00040501  1
  Ir  Ir125  1  0.50107399  0.83811719  0.24596738  1
  Ir  Ir126  1  -0.00030972  0.67206675  0.49507218  1
  Ir  Ir127  1  0.50276362  0.50005863  0.24255342  1
  Ir  Ir128  1  0.83709704  0.83601927  0.25050566  1
  Ir  Ir129  1  0.16230790  0.83362116  0.25430947  1
  Ir  Ir130  1  0.16410187  0.50454301  0.00432803  1
  Ir  Ir131  1  0.50041907  0.50051146  -0.00132223  1
  Ir  Ir132  1  0.50231508  0.83591252  -0.00148851  1
  Ir  Ir133  1  0.66338063  0.33412530  0.25046501  1
  Ir  Ir134  1  0.16636122  0.83390027  0.74728455  1
  Ir  Ir135  1  0.49766048  0.16421083  0.74873221  1
  Ir  Ir136  1  0.50408346  0.50081385  0.75861600  1
  Ir  Ir137  1  0.49915274  0.16697345  0.50146329  1
  Ir  Ir138  1  0.33676771  0.33091449  0.50099458  1
  Ir  Ir139  1  0.83786375  0.83375967  0.49939912  1
  Ir  Ir140  1  0.83152890  0.16745737  0.50136454  1
  Ir  Ir141  1  0.16803071  0.16245248  0.74782807  1
  Ir  Ir142  1  0.66179838  -0.00426852  0.74768855  1
  Ir  Ir143  1  0.66019054  0.66779048  0.75613194  1
  O  O144  1  0.31772782  0.32071845  0.12023449  1
  O  O145  1  0.32093726  0.32805446  0.62471162  1
  O  O146  1  0.31867808  0.66110492  0.12612856  1
  O  O147  1  0.31584638  0.66394733  0.63009054  1
  O  O148  1  0.31882400  0.99424301  0.13032178  1
  O  O149  1  0.32242967  0.99532390  0.63047516  1
  O  O150  1  0.63322808  0.33225341  0.13008088  1
  O  O151  1  0.64548096  0.33069274  0.62457504  1
  O  O152  1  0.64704900  0.65599100  0.11762103  1
  O  O153  1  0.64488019  0.65730278  0.63791149  1
  O  O154  1  0.63239931  0.98553034  0.12972805  1
  O  O155  1  0.63000910  0.98728056  0.62984234  1
  O  O156  1  0.97749562  0.32052003  0.12169244  1
  O  O157  1  0.97964183  0.32057373  0.62240949  1
  O  O158  1  0.97640629  0.65299571  0.12809707  1
  O  O159  1  0.98690877  0.66770473  0.61606991  1
  O  O160  1  0.96767352  0.98283627  0.13117619  1
  O  O161  1  0.96492565  0.98182102  0.62211076  1
  O  O162  1  0.20796302  0.15350654  0.12194929  1
  O  O163  1  0.20272794  0.16247566  0.63092738  1
  O  O164  1  0.20001454  0.50518712  0.12310168  1
  O  O165  1  0.18021765  0.50488821  0.62412626  1
  O  O166  1  0.18254439  0.83242575  0.13322108  1
  O  O167  1  0.18644356  0.82562002  0.62134172  1
  O  O168  1  0.52153159  0.14233295  0.12426713  1
  O  O169  1  0.52192938  0.15316874  0.62519406  1
  O  O170  1  0.53395898  0.49110832  0.11867385  1
  O  O171  1  0.53635589  0.49904159  0.64137118  1
  O  O172  1  0.53289955  0.83831599  0.11999190  1
  O  O173  1  0.53348034  0.83191870  0.63863884  1
  O  O174  1  0.86637072  0.14974036  0.12435800  1
  O  O175  1  0.86095835  0.16140524  0.62206601  1
  O  O176  1  0.86172836  0.50228893  0.12048507  1
  O  O177  1  0.84430119  0.50059700  0.62712669  1
  O  O178  1  0.86695081  0.83398965  0.12970028  1
  O  O179  1  0.86538293  0.83048990  0.61730658  1
  O  O180  1  0.15401751  0.16998799  0.37442017  1
  O  O181  1  0.13590427  0.16155102  0.86435519  1
  O  O182  1  0.14808262  0.50747533  0.36496690  1
  O  O183  1  0.13337497  0.51224851  0.88724092  1
  O  O184  1  0.13155213  0.84393835  0.37715182  1
  O  O185  1  0.14607976  0.84625041  0.86627373  1
  O  O186  1  0.48045239  0.16846561  0.38157826  1
  O  O187  1  0.46687277  0.17462945  0.86743265  1
  O  O188  1  0.48762600  0.50224462  0.36311359  1
  O  O189  1  0.46724113  0.50927040  0.87945659  1
  O  O190  1  0.48495230  0.84689110  0.36658833  1
  O  O191  1  0.46854301  0.84672916  0.87735735  1
  O  O192  1  0.80054743  0.16507119  0.38040389  1
  O  O193  1  0.78918332  0.17210804  0.87292087  1
  O  O194  1  0.81546116  0.49753603  0.36585325  1
  O  O195  1  0.79700664  0.50704543  0.88285555  1
  O  O196  1  0.81199780  0.83449432  0.37424224  1
  O  O197  1  0.79968910  0.83138625  0.88686654  1
  O  O198  1  0.03197395  0.00338106  0.36919603  1
  O  O199  1  0.03692235  0.00901817  0.87234410  1
  O  O200  1  0.01823182  0.33299677  0.37931721  1
  O  O201  1  0.02243820  0.35770656  0.87830887  1
  O  O202  1  0.03051876  0.68159902  0.37050909  1
  O  O203  1  0.02735126  0.67015492  0.88874271  1
  O  O204  1  0.36757359  -0.00132342  0.36857965  1
  O  O205  1  0.37052569  0.00875940  0.86833204  1
  O  O206  1  0.34926550  0.33126602  0.37922846  1
  O  O207  1  0.37352080  0.35109603  0.87640388  1
  O  O208  1  0.35147446  0.66792679  0.36760832  1
  O  O209  1  0.37007399  0.68307411  0.87651116  1
  O  O210  1  0.68339171  0.01637473  0.37047103  1
  O  O211  1  0.68252882  0.00505866  0.86757205  1
  O  O212  1  0.68820237  0.32669611  0.37717599  1
  O  O213  1  0.69388523  0.34679851  0.86994569  1
  O  O214  1  0.67880923  0.66744931  0.37121715  1
  O  O215  1  0.68405833  0.67850859  0.87651493  1
  O  O216  1  0.06797081  0.09801530  0.02958518  1
  O  O217  1  0.06593177  0.09659781  0.53006371  1
  O  O218  1  0.06995127  0.44136594  0.02744858  1
  O  O219  1  0.07271968  0.41680292  0.51227982  1
  O  O220  1  0.06381755  0.75774818  0.02841907  1
  O  O221  1  0.06150254  0.77040148  0.51574805  1
  O  O222  1  0.39241025  0.10519722  0.01584151  1
  O  O223  1  0.40484174  0.10238618  0.52593424  1
  O  O224  1  0.40597984  0.43930657  0.02844085  1
  O  O225  1  0.41090986  0.41676509  0.51182507  1
  O  O226  1  0.40809837  0.77301939  0.01349462  1
  O  O227  1  0.40508497  0.76390086  0.51163054  1
  O  O228  1  0.74759394  0.07851231  0.02589003  1
  O  O229  1  0.74593950  0.09252901  0.52689583  1
  O  O230  1  0.73139104  0.44039481  0.01886865  1
  O  O231  1  0.73261738  0.42337329  0.51744933  1
  O  O232  1  0.72796551  0.76439792  0.02426493  1
  O  O233  1  0.74329461  0.77017019  0.52665695  1
  O  O234  1  0.09331009  0.25613708  0.01566014  1
  O  O235  1  0.08333978  0.25506560  0.52028390  1
  O  O236  1  0.09193180  0.59654186  0.02712185  1
  O  O237  1  0.08651879  0.60008911  0.49907540  1
  O  O238  1  0.08541528  0.91708384  0.01870046  1
  O  O239  1  0.09232293  0.92154816  0.51929518  1
  O  O240  1  0.44628422  0.27373927  0.01779712  1
  O  O241  1  0.42784756  0.25583100  0.52446883  1
  O  O242  1  0.43251427  0.59180534  0.01562998  1
  O  O243  1  0.42176906  0.58532922  0.51062286  1
  O  O244  1  0.44545686  0.93710773  0.01548483  1
  O  O245  1  0.43722413  0.93965629  0.51603965  1
  O  O246  1  0.76214619  0.26368302  0.01612001  1
  O  O247  1  0.75994539  0.25883430  0.51496382  1
  O  O248  1  0.75654576  0.59460834  0.02418113  1
  O  O249  1  0.75581841  0.58924827  0.51736348  1
  O  O250  1  0.75972902  0.91674815  0.03560117  1
  O  O251  1  0.76876440  0.92668275  0.52742940  1
  O  O252  1  0.23927234  0.05754249  0.27462464  1
  O  O253  1  0.24124823  0.06666125  0.77493838  1
  O  O254  1  0.24141113  0.41854567  0.25985131  1
  O  O255  1  0.24840308  0.41299607  0.77590720  1
  O  O256  1  0.23408789  0.73906308  0.27633757  1
  O  O257  1  0.23665869  0.74625963  0.77992407  1
  O  O258  1  0.57130157  0.06636658  0.27366294  1
  O  O259  1  0.56715924  0.06824913  0.77432186  1
  O  O260  1  0.56951792  0.40429368  0.26182442  1
  O  O261  1  0.56911221  0.40370137  0.78299277  1
  O  O262  1  0.57276299  0.74996715  0.25706807  1
  O  O263  1  0.56576184  0.73913727  0.78496811  1
  O  O264  1  0.90821995  0.06124621  0.26396521  1
  O  O265  1  0.90922113  0.07691764  0.76810620  1
  O  O266  1  0.90899174  0.41751745  0.25718886  1
  O  O267  1  0.89222660  0.39779173  0.77749194  1
  O  O268  1  0.91031684  0.74412694  0.27462859  1
  O  O269  1  0.90407794  0.73776780  0.76504751  1
  O  O270  1  0.26799446  0.23577366  0.25510716  1
  O  O271  1  0.26455663  0.22875612  0.77160254  1
  O  O272  1  0.25868529  0.57968772  0.26841818  1
  O  O273  1  0.26142724  0.57540441  0.79268863  1
  O  O274  1  0.25441984  0.90723524  0.27746387  1
  O  O275  1  0.26707677  0.90559186  0.77581583  1
  O  O276  1  0.60168504  0.23707579  0.27314615  1
  O  O277  1  0.59316811  0.23631205  0.77589056  1
  O  O278  1  0.59074219  0.57074082  0.25250883  1
  O  O279  1  0.59544164  0.57196036  0.78786873  1
  O  O280  1  0.59093794  0.91070825  0.27132931  1
  O  O281  1  0.59783225  0.90030554  0.78066385  1
  O  O282  1  0.92242504  0.24154863  0.26460271  1
  O  O283  1  0.92946722  0.23578998  0.77799933  1
  O  O284  1  0.92902178  0.57241466  0.26253949  1
  O  O285  1  0.93187197  0.56639550  0.77542879  1
  O  O286  1  0.93472076  0.89935129  0.27379002  1
  O  O287  1  0.92158771  0.90629247  0.76847666  1
  O  O288  1  0.26560252  0.24122241  0.49725426  1
  O  O289  1  0.27126361  0.23189176  0.96852211  1
  O  O290  1  0.24861098  0.58341195  0.47387595  1
  O  O291  1  0.25938662  0.57096800  0.97830421  1
  O  O292  1  0.25147790  0.90260149  0.48161269  1
  O  O293  1  0.26607802  0.90132184  0.97468550  1
  O  O294  1  0.59941182  0.23030798  0.47942582  1
  O  O295  1  0.59825303  0.23395092  0.96412885  1
  O  O296  1  0.59790485  0.56795928  0.49951608  1
  O  O297  1  0.59737963  0.56766706  0.97214268  1
  O  O298  1  0.59409042  0.91230604  0.48203442  1
  O  O299  1  0.59866526  0.89563080  0.97541139  1
  O  O300  1  0.92543426  0.23713421  0.48318819  1
  O  O301  1  0.92474531  0.24097798  0.96053041  1
  O  O302  1  0.92830507  0.58337139  0.48113076  1
  O  O303  1  0.93059748  0.56697635  0.98243199  1
  O  O304  1  0.92989367  0.89866137  0.47378814  1
  O  O305  1  0.91684703  0.90286350  0.98993044  1
  O  O306  1  0.23480024  0.06260396  0.47477974  1
  O  O307  1  0.23640414  0.06348263  0.96149222  1
  O  O308  1  0.25006275  0.40531740  0.48792988  1
  O  O309  1  0.23826756  0.41745083  0.97863883  1
  O  O310  1  0.22461692  0.74100008  0.47353214  1
  O  O311  1  0.23701241  0.73693369  0.97094822  1
  O  O312  1  0.56525270  0.07480880  0.48091853  1
  O  O313  1  0.57001695  0.06771354  0.96917738  1
  O  O314  1  0.57902813  0.39866647  0.48816284  1
  O  O315  1  0.56525926  0.40572813  0.97337326  1
  O  O316  1  0.57664249  0.74510219  0.49185670  1
  O  O317  1  0.56756474  0.73630322  0.97241546  1
  O  O318  1  0.89788866  0.07574664  0.48846680  1
  O  O319  1  0.91386414  0.07765701  0.96624010  1
  O  O320  1  0.91310311  0.40553554  0.48870163  1
  O  O321  1  0.89347201  0.41218876  0.97352506  1
  O  O322  1  0.90739218  0.74282328  0.47398475  1
  O  O323  1  0.90547866  0.73696113  0.98840743  1
  O  O324  1  0.08833550  0.25014502  0.22360451  1
  O  O325  1  0.09636300  0.25071014  0.72846215  1
  O  O326  1  0.09006446  0.59439421  0.22812571  1
  O  O327  1  0.10364470  0.60763811  0.75292414  1
  O  O328  1  0.08998609  0.92431835  0.22996140  1
  O  O329  1  0.09649137  0.92214653  0.72566210  1
  O  O330  1  0.43591027  0.26441041  0.22186114  1
  O  O331  1  0.42827954  0.25383741  0.73057421  1
  O  O332  1  0.42433045  0.58825410  0.21968709  1
  O  O333  1  0.43976402  0.59425743  0.74580274  1
  O  O334  1  0.43388833  0.93334170  0.22950054  1
  O  O335  1  0.44298921  0.93750273  0.73235471  1
  O  O336  1  0.75150081  0.26303287  0.23548837  1
  O  O337  1  0.75637080  0.26761506  0.73791049  1
  O  O338  1  0.75769295  0.58553322  0.22771734  1
  O  O339  1  0.74938717  0.59762557  0.73794445  1
  O  O340  1  0.76193629  0.92747955  0.22239893  1
  O  O341  1  0.75256461  0.92656651  0.71562337  1
  O  O342  1  0.06355742  0.08760401  0.22236582  1
  O  O343  1  0.07401780  0.09868191  0.72116349  1
  O  O344  1  0.07652953  0.43558502  0.22362183  1
  O  O345  1  0.06771177  0.43173143  0.73984581  1
  O  O346  1  0.06435967  0.76708245  0.23082071  1
  O  O347  1  0.07124188  0.77140385  0.72833568  1
  O  O348  1  0.40053232  0.08966817  0.22643374  1
  O  O349  1  0.40345720  0.09684334  0.72148297  1
  O  O350  1  0.41061850  0.43208198  0.21918184  1
  O  O351  1  0.41455036  0.43469223  0.73752670  1
  O  O352  1  0.41014093  0.76293837  0.23078010  1
  O  O353  1  0.40939046  0.77275374  0.74221290  1
  O  O354  1  0.73961231  0.08371913  0.22658954  1
  O  O355  1  0.73572477  0.08291255  0.72601444  1
  O  O356  1  0.73393107  0.43312983  0.22369949  1
  O  O357  1  0.72019146  0.43627201  0.73328366  1
  O  O358  1  0.74183435  0.77015507  0.22650437  1
  O  O359  1  0.72144979  0.76647889  0.73410080  1
