# generated using pymatgen
data_BaLaInIrO6
_symmetry_space_group_name_H-M   'P 1'
_cell_length_a   17.55356863
_cell_length_b   17.57604124
_cell_length_c   16.50287704
_cell_angle_alpha   90.02915387
_cell_angle_beta   90.02890466
_cell_angle_gamma   89.98592421
_symmetry_Int_Tables_number   1
_chemical_formula_structural   BaLaInIrO6
_chemical_formula_sum   'Ba36 La36 In36 Ir36 O216'
_cell_volume   5091.50323174
_cell_formula_units_Z   36
loop_
 _symmetry_equiv_pos_site_id
 _symmetry_equiv_pos_as_xyz
  1  'x, y, z'
loop_
 _atom_site_type_symbol
 _atom_site_label
 _atom_site_symmetry_multiplicity
 _atom_site_fract_x
 _atom_site_fract_y
 _atom_site_fract_z
 _atom_site_occupancy
  Ba  Ba0  1  0.49537434  0.66165846  0.37265907  1
  Ba  Ba1  1  0.33392156  0.15927728  0.37262399  1
  Ba  Ba2  1  0.33705171  0.50768477  0.62604638  1
  Ba  Ba3  1  0.83443916  0.01768755  0.12716129  1
  Ba  Ba4  1  0.83376915  0.99063929  0.37148842  1
  Ba  Ba5  1  0.49812459  0.67629858  0.12456206  1
  Ba  Ba6  1  1.00552547  0.17507262  0.12716777  1
  Ba  Ba7  1  0.83729777  0.65441386  0.87772197  1
  Ba  Ba8  1  0.66856650  0.50583901  0.62251385  1
  Ba  Ba9  1  0.16510136  0.33953264  0.12796589  1
  Ba  Ba10  1  0.66491296  0.49248811  0.88057973  1
  Ba  Ba11  1  0.16672240  0.00396817  0.62362106  1
  Ba  Ba12  1  0.50120770  0.67948816  0.62546100  1
  Ba  Ba13  1  0.33399164  0.83959851  0.62257619  1
  Ba  Ba14  1  0.50310033  0.32818203  0.87421465  1
  Ba  Ba15  1  0.83538357  0.31835029  0.37656970  1
  Ba  Ba16  1  0.50570176  0.98554675  0.37087840  1
  Ba  Ba17  1  0.50475334  0.32699914  0.37519240  1
  Ba  Ba18  1  0.16753077  0.00645161  0.12450358  1
  Ba  Ba19  1  0.33361262  0.82784496  0.37177130  1
  Ba  Ba20  1  0.99913514  0.50672321  0.62172583  1
  Ba  Ba21  1  0.00246495  0.16175424  0.87550563  1
  Ba  Ba22  1  0.50039333  0.99162814  0.87835636  1
  Ba  Ba23  1  -0.00393512  0.48802581  0.87539259  1
  Ba  Ba24  1  0.66191172  0.82233573  0.37047791  1
  Ba  Ba25  1  0.66981801  0.83933228  0.62021490  1
  Ba  Ba26  1  0.32761374  0.82719643  0.87446750  1
  Ba  Ba27  1  0.33081796  0.15501610  0.87421785  1
  Ba  Ba28  1  0.82923342  0.34281426  0.62354952  1
  Ba  Ba29  1  0.33198234  0.17535491  0.12197437  1
  Ba  Ba30  1  -0.00401986  0.82306404  0.88056933  1
  Ba  Ba31  1  0.49752101  0.00288492  0.62201701  1
  Ba  Ba32  1  0.16738272  0.99029232  0.88026906  1
  Ba  Ba33  1  0.16663115  0.32857990  0.37493631  1
  Ba  Ba34  1  -0.00200926  0.48452685  0.37151975  1
  Ba  Ba35  1  0.99777852  0.84222132  0.62870364  1
  La  La36  1  0.66125045  0.15232355  0.37389082  1
  La  La37  1  0.33165535  0.48926258  0.87736198  1
  La  La38  1  0.66964101  0.51408699  0.13117724  1
  La  La39  1  0.17508562  0.31680035  0.87592151  1
  La  La40  1  0.82620117  0.01871958  0.62294927  1
  La  La41  1  0.33879301  0.18166380  0.62381524  1
  La  La42  1  0.51365191  0.33746532  0.61984411  1
  La  La43  1  0.16723547  0.98649915  0.36966785  1
  La  La44  1  0.17638527  0.65180367  0.37568415  1
  La  La45  1  -0.00666628  0.82033002  0.37767448  1
  La  La46  1  0.16501978  0.65203416  0.87292713  1
  La  La47  1  0.82870449  0.67252721  0.62184262  1
  La  La48  1  0.66439094  0.48414634  0.37488341  1
  La  La49  1  0.83002857  0.68083347  0.12785852  1
  La  La50  1  0.67221166  0.18853508  0.12538615  1
  La  La51  1  0.66990570  0.17353362  0.61756998  1
  La  La52  1  1.00269914  0.85023030  0.12805209  1
  La  La53  1  0.16021344  0.68552204  0.62779660  1
  La  La54  1  0.66231001  0.15553461  0.87631107  1
  La  La55  1  0.99998112  0.18244954  0.62310861  1
  La  La56  1  0.33874732  0.84722864  0.12179945  1
  La  La57  1  0.16265096  0.34337154  0.62559143  1
  La  La58  1  0.66945783  0.84691492  0.12814375  1
  La  La59  1  0.50069641  0.65448084  0.86774469  1
  La  La60  1  1.00287558  0.51223319  0.12499927  1
  La  La61  1  0.84356206  0.98747163  0.87025790  1
  La  La62  1  -0.00552651  0.15137813  0.37184410  1
  La  La63  1  0.65992075  0.81683696  0.87001163  1
  La  La64  1  0.83468608  0.34810463  0.12907780  1
  La  La65  1  0.16341808  0.68088803  0.12408291  1
  La  La66  1  0.33793545  0.51088505  0.13284105  1
  La  La67  1  0.83254703  0.32663975  0.87763145  1
  La  La68  1  0.83469298  0.64936549  0.37481739  1
  La  La69  1  0.49590289  0.35084572  0.12447449  1
  La  La70  1  0.49541258  0.01288717  0.12592131  1
  La  La71  1  0.33092327  0.48705995  0.37784010  1
  In  In72  1  0.16461365  0.16672281  0.25493867  1
  In  In73  1  -0.00309333  0.00243942  -0.00001143  1
  In  In74  1  -0.00092724  0.33605784  0.00142235  1
  In  In75  1  0.16373213  0.16536413  0.49877838  1
  In  In76  1  0.50226332  0.17122880  0.00024547  1
  In  In77  1  0.49995608  0.49765416  0.74968898  1
  In  In78  1  0.16075457  0.83260346  0.49585164  1
  In  In79  1  0.33514386  0.00037847  0.25062354  1
  In  In80  1  0.16760991  0.16686590  0.00174810  1
  In  In81  1  0.83007585  0.83484184  0.74858727  1
  In  In82  1  0.50079137  0.49969700  0.49727797  1
  In  In83  1  0.32927794  0.00171037  0.49603867  1
  In  In84  1  0.50036685  0.16659080  0.49776597  1
  In  In85  1  0.33680561  0.33302062  0.25035337  1
  In  In86  1  0.16704647  0.50055623  0.50318567  1
  In  In87  1  -0.00346804  0.66441082  0.75137210  1
  In  In88  1  0.50265956  0.16811562  0.74853413  1
  In  In89  1  0.33153724  0.66542282  0.50083446  1
  In  In90  1  0.82952287  0.83498971  0.00472657  1
  In  In91  1  0.67008401  0.00163211  0.75085474  1
  In  In92  1  0.16722264  0.16389046  0.74574357  1
  In  In93  1  0.83438225  0.49733394  0.75065041  1
  In  In94  1  0.33181846  0.00045397  0.74779483  1
  In  In95  1  0.33537121  0.33537004  0.74798099  1
  In  In96  1  0.66860877  0.66485965  0.74927544  1
  In  In97  1  0.66527850  0.66738608  0.00378147  1
  In  In98  1  0.33323760  0.66696296  0.00045951  1
  In  In99  1  0.83531540  0.17100310  0.75211309  1
  In  In100  1  0.66855666  -0.00280401  0.49771256  1
  In  In101  1  0.00144780  0.66552079  0.25095633  1
  In  In102  1  0.66874767  0.00158429  0.24440394  1
  In  In103  1  0.16725015  0.50008565  0.00245013  1
  In  In104  1  0.33160154  0.66668804  0.75146721  1
  In  In105  1  0.66767091  0.66376015  0.49360475  1
  In  In106  1  0.66944854  0.00112469  -0.00024988  1
  In  In107  1  0.00033051  0.66469374  0.49884523  1
  Ir  Ir108  1  0.33320672  0.33393781  0.50043891  1
  Ir  Ir109  1  -0.00124656  -0.00338843  0.25529498  1
  Ir  Ir110  1  0.82858346  0.17541025  0.00339853  1
  Ir  Ir111  1  0.16864096  0.50220407  0.24812396  1
  Ir  Ir112  1  0.66995832  0.66457651  0.24811740  1
  Ir  Ir113  1  0.83540713  0.82928465  0.25320886  1
  Ir  Ir114  1  0.33572069  0.33849516  0.00230709  1
  Ir  Ir115  1  0.67406775  0.32983727  0.49584482  1
  Ir  Ir116  1  0.50012168  0.83151676  0.49717319  1
  Ir  Ir117  1  0.83408732  0.49779625  0.49383179  1
  Ir  Ir118  1  -0.00164382  0.66461687  0.00741178  1
  Ir  Ir119  1  0.33724748  -0.00528301  0.00307721  1
  Ir  Ir120  1  0.50751321  0.17041999  0.24632159  1
  Ir  Ir121  1  0.00364550  0.33348820  0.74743741  1
  Ir  Ir122  1  0.83644501  0.16648521  0.49591732  1
  Ir  Ir123  1  0.32743501  0.66525426  0.24687441  1
  Ir  Ir124  1  0.67230917  0.33247190  0.75408534  1
  Ir  Ir125  1  0.83182770  0.49906124  0.24882743  1
  Ir  Ir126  1  0.49948307  0.49902461  0.00649857  1
  Ir  Ir127  1  0.16158379  0.83025019  0.24513564  1
  Ir  Ir128  1  0.83597130  0.83132870  0.49362238  1
  Ir  Ir129  1  0.50276423  0.50205980  0.24824913  1
  Ir  Ir130  1  0.66665117  0.33612294  0.24750052  1
  Ir  Ir131  1  0.16128352  0.83187082  0.75626496  1
  Ir  Ir132  1  -0.00151249  0.33175504  0.50095017  1
  Ir  Ir133  1  0.50124038  0.83141127  -0.00177062  1
  Ir  Ir134  1  -0.00533024  0.33499969  0.25278003  1
  Ir  Ir135  1  -0.00654276  0.00144903  0.50135961  1
  Ir  Ir136  1  0.16513785  0.49764102  0.75320273  1
  Ir  Ir137  1  0.50267218  0.82739500  0.24222482  1
  Ir  Ir138  1  0.66856833  0.33881547  0.00459726  1
  Ir  Ir139  1  0.16446068  0.82718793  0.00391783  1
  Ir  Ir140  1  0.83266329  0.17249504  0.24809423  1
  Ir  Ir141  1  0.83416554  0.49910310  0.00853466  1
  Ir  Ir142  1  0.49948910  0.83344877  0.75377521  1
  Ir  Ir143  1  -0.00427294  -0.00006939  0.74631942  1
  O  O144  1  0.31701666  0.34181850  0.12071367  1
  O  O145  1  0.30150802  0.32753350  0.61939143  1
  O  O146  1  0.29989903  0.65239267  0.12716131  1
  O  O147  1  0.29526884  0.66627964  0.62765851  1
  O  O148  1  0.32172480  0.98937004  0.12365405  1
  O  O149  1  0.31725105  0.98971494  0.62147654  1
  O  O150  1  0.63394593  0.32750181  0.12642752  1
  O  O151  1  0.64999585  0.31456159  0.62550180  1
  O  O152  1  0.64581847  0.65129304  0.13039859  1
  O  O153  1  0.65677344  0.66440289  0.62019945  1
  O  O154  1  0.62981757  0.99065989  0.12424191  1
  O  O155  1  0.65151037  1.00448541  0.62300635  1
  O  O156  1  0.96960437  0.33398822  0.13299502  1
  O  O157  1  0.97569738  0.32768296  0.62309214  1
  O  O158  1  0.96678331  0.65443516  0.12668921  1
  O  O159  1  0.96348119  0.66307101  0.62253601  1
  O  O160  1  0.97985776  0.98933620  0.13379577  1
  O  O161  1  0.96084660  0.99669080  0.62215632  1
  O  O162  1  0.17950178  0.16707950  0.12843686  1
  O  O163  1  0.20155153  0.16413583  0.62085024  1
  O  O164  1  0.20081976  0.49773745  0.13040272  1
  O  O165  1  0.18734805  0.48225206  0.63344084  1
  O  O166  1  0.19760751  0.81748719  0.12476122  1
  O  O167  1  0.17937696  0.82418952  0.63412815  1
  O  O168  1  0.53577771  0.16082777  0.12747417  1
  O  O169  1  0.53679942  0.17260273  0.62248686  1
  O  O170  1  0.53386400  0.49086910  0.12749390  1
  O  O171  1  0.51641333  0.47656608  0.62316607  1
  O  O172  1  0.53289494  0.82936983  0.11882472  1
  O  O173  1  0.52116704  0.83792339  0.62782844  1
  O  O174  1  0.85765984  0.18061027  0.12594485  1
  O  O175  1  0.86446021  0.16221133  0.61718356  1
  O  O176  1  0.86539711  0.48927852  0.12917477  1
  O  O177  1  0.84960172  0.49753799  0.61421635  1
  O  O178  1  0.86748441  0.81872053  0.13561304  1
  O  O179  1  0.84995376  0.81275191  0.61323593  1
  O  O180  1  0.12723859  0.17672850  0.37722288  1
  O  O181  1  0.15230202  0.18033141  0.87373583  1
  O  O182  1  0.14487521  0.51125271  0.36744642  1
  O  O183  1  0.14152798  0.51253601  0.87149763  1
  O  O184  1  0.12825955  0.84159106  0.36273377  1
  O  O185  1  0.14153377  0.83568175  0.88137737  1
  O  O186  1  0.48469653  0.17455510  0.36506949  1
  O  O187  1  0.48081546  0.17874799  0.87571918  1
  O  O188  1  0.46986031  0.50026850  0.36647987  1
  O  O189  1  0.47152720  0.50745399  0.88746763  1
  O  O190  1  0.48199670  0.82517478  0.37062967  1
  O  O191  1  0.47541058  0.83050579  0.87669555  1
  O  O192  1  0.80136104  0.16540782  0.37169057  1
  O  O193  1  0.80021112  0.18196702  0.88377271  1
  O  O194  1  0.80081680  0.50834619  0.37001499  1
  O  O195  1  0.81495454  0.49761815  0.88821668  1
  O  O196  1  0.81179473  0.83894651  0.37292242  1
  O  O197  1  0.79770621  0.85087239  0.87965939  1
  O  O198  1  0.02664525  0.00846011  0.37939802  1
  O  O199  1  0.01266188  0.00448665  0.86629308  1
  O  O200  1  0.01808525  0.33145277  0.37826536  1
  O  O201  1  0.03332060  0.33382364  0.86590161  1
  O  O202  1  0.03802687  0.67660319  0.37209390  1
  O  O203  1  0.02864566  0.66618206  0.88696526  1
  O  O204  1  0.35936492  -0.00129930  0.37179477  1
  O  O205  1  0.34906743  -0.00727393  0.88327112  1
  O  O206  1  0.35534207  0.34515382  0.37876108  1
  O  O207  1  0.35354450  0.34425354  0.88414880  1
  O  O208  1  0.34440979  0.67130110  0.36513216  1
  O  O209  1  0.36564065  0.67001098  0.87757242  1
  O  O210  1  0.68464035  0.00877592  0.36983558  1
  O  O211  1  0.71040165  0.01714306  0.87734056  1
  O  O212  1  0.69056422  0.34805240  0.37085016  1
  O  O213  1  0.69935985  0.34332838  0.88015049  1
  O  O214  1  0.70034092  0.66846681  0.36610608  1
  O  O215  1  0.68661881  0.67611738  0.88017141  1
  O  O216  1  0.07607064  0.08711584  0.01150866  1
  O  O217  1  0.05519420  0.09675500  0.52320061  1
  O  O218  1  0.06681300  0.43597845  0.02723382  1
  O  O219  1  0.07460573  0.41800115  0.51612017  1
  O  O220  1  0.06655044  0.76053707  0.03207626  1
  O  O221  1  0.06802761  0.76270528  0.51878831  1
  O  O222  1  0.41366813  0.08109650  0.02147692  1
  O  O223  1  0.39927394  0.10321247  0.52230183  1
  O  O224  1  0.40522710  0.43162844  0.02950344  1
  O  O225  1  0.40437114  0.42040543  0.51278064  1
  O  O226  1  0.40374256  0.76848276  0.02505119  1
  O  O227  1  0.41160759  0.76003108  0.51059789  1
  O  O228  1  0.73756773  0.11039317  0.02896658  1
  O  O229  1  0.74613079  0.09770993  0.51896817  1
  O  O230  1  0.73705216  0.43436375  0.03389679  1
  O  O231  1  0.73967295  0.42856461  0.50781225  1
  O  O232  1  0.73899081  0.75867979  0.03790753  1
  O  O233  1  0.75025628  0.75758531  0.50693572  1
  O  O234  1  0.09275513  0.26479795  0.00917356  1
  O  O235  1  0.08794137  0.26312211  0.53123827  1
  O  O236  1  0.09310717  0.60007668  0.03012770  1
  O  O237  1  0.10156499  0.59933828  0.52632236  1
  O  O238  1  0.08962628  0.91361301  0.02325272  1
  O  O239  1  0.08152841  0.93333265  0.51272102  1
  O  O240  1  0.43113099  0.27193974  0.02717721  1
  O  O241  1  0.42681666  0.26640585  0.52444097  1
  O  O242  1  0.42274414  0.58177699  0.02918586  1
  O  O243  1  0.42585158  0.59192258  0.51585511  1
  O  O244  1  0.43450317  0.92508709  0.02848315  1
  O  O245  1  0.42824945  0.91813808  0.50668598  1
  O  O246  1  0.76402289  0.27423243  0.02882593  1
  O  O247  1  0.76156064  0.25241229  0.51997496  1
  O  O248  1  0.76709267  0.59127654  0.03272431  1
  O  O249  1  0.77286394  0.59449629  0.50969677  1
  O  O250  1  0.75211126  0.92288929  0.04013506  1
  O  O251  1  0.77309839  0.92681492  0.51998123  1
  O  O252  1  0.23459900  0.06652454  0.27246943  1
  O  O253  1  0.23635082  0.06944628  0.76940609  1
  O  O254  1  0.24744496  0.42065895  0.27254122  1
  O  O255  1  0.22795055  0.40452045  0.77673115  1
  O  O256  1  0.22543541  0.72944910  0.26577534  1
  O  O257  1  0.22661375  0.73635066  0.77595177  1
  O  O258  1  0.57615230  0.08183443  0.26636360  1
  O  O259  1  0.58206550  0.07931317  0.77950705  1
  O  O260  1  0.57743424  0.41269522  0.27218678  1
  O  O261  1  0.57516202  0.39426085  0.75409748  1
  O  O262  1  0.57507323  0.73276817  0.26289529  1
  O  O263  1  0.56556600  0.74071692  0.77579554  1
  O  O264  1  0.90893887  0.07924733  0.27505544  1
  O  O265  1  0.90099906  0.06562100  0.76430879  1
  O  O266  1  0.89600733  0.40279939  0.26506495  1
  O  O267  1  0.90673740  0.39561215  0.77388754  1
  O  O268  1  0.90186452  0.73639633  0.27876291  1
  O  O269  1  0.90424936  0.74184616  0.76725046  1
  O  O270  1  0.25954520  0.24404279  0.26380746  1
  O  O271  1  0.25857595  0.24699513  0.76716537  1
  O  O272  1  0.26224943  0.56931757  0.27544565  1
  O  O273  1  0.25737314  0.56443915  0.78014257  1
  O  O274  1  0.25033598  0.90176341  0.26098568  1
  O  O275  1  0.24932836  0.90168918  0.76405865  1
  O  O276  1  0.60530441  0.23713608  0.27005217  1
  O  O277  1  0.61257646  0.23735256  0.77078755  1
  O  O278  1  0.60445240  0.56642872  0.26997802  1
  O  O279  1  0.58818190  0.57632643  0.77396251  1
  O  O280  1  0.59261158  0.89761364  0.25602195  1
  O  O281  1  0.59650336  0.89903305  0.77529670  1
  O  O282  1  0.92977494  0.23733229  0.27397244  1
  O  O283  1  0.93613737  0.24072314  0.76040877  1
  O  O284  1  0.92006839  0.57149255  0.27022041  1
  O  O285  1  0.93013381  0.56664818  0.76549322  1
  O  O286  1  0.93427662  0.89433827  0.27235983  1
  O  O287  1  0.92728425  0.91189604  0.77109957  1
  O  O288  1  0.26463205  0.24548836  0.48302882  1
  O  O289  1  0.26494093  0.24955721  0.98254524  1
  O  O290  1  0.26264574  0.56771969  0.46874295  1
  O  O291  1  0.25936185  0.57281612  0.97046479  1
  O  O292  1  0.24540409  0.91090984  0.47125682  1
  O  O293  1  0.26323297  0.89355495  0.99849230  1
  O  O294  1  0.60711440  0.23854094  0.47699136  1
  O  O295  1  0.60964257  0.24186553  0.98324885  1
  O  O296  1  0.60072930  0.56470508  0.46987397  1
  O  O297  1  0.58545673  0.57269273  0.98835078  1
  O  O298  1  0.58868932  0.90342453  0.48412135  1
  O  O299  1  0.59655356  0.89446464  0.97589634  1
  O  O300  1  0.93420652  0.23245498  0.47929829  1
  O  O301  1  0.91536768  0.24551606  0.97602799  1
  O  O302  1  0.92081781  0.57167844  0.47104573  1
  O  O303  1  0.93382432  0.56436483  0.99394588  1
  O  O304  1  0.93107959  0.90094670  0.47484921  1
  O  O305  1  0.91866181  0.91440003  0.98525047  1
  O  O306  1  0.22657645  0.06763593  0.46574461  1
  O  O307  1  0.25131987  0.07083541  0.99104271  1
  O  O308  1  0.24521801  0.40699796  0.48280438  1
  O  O309  1  0.24200223  0.40474979  0.97389620  1
  O  O310  1  0.22908208  0.73151202  0.48000674  1
  O  O311  1  0.22499179  0.73011066  0.98416429  1
  O  O312  1  0.58195003  0.08128401  0.47384547  1
  O  O313  1  0.58125496  0.08023677  0.97923038  1
  O  O314  1  0.58327531  0.40105817  0.48615834  1
  O  O315  1  0.57180313  0.40497428  0.98941956  1
  O  O316  1  0.57348703  0.74351806  0.48472652  1
  O  O317  1  0.56430820  0.73805422  0.97310786  1
  O  O318  1  0.90547518  0.07464603  0.47602537  1
  O  O319  1  0.89228801  0.08028580  0.97954091  1
  O  O320  1  0.90561176  0.40476310  0.48017056  1
  O  O321  1  0.89532594  0.40221692  0.98798541  1
  O  O322  1  0.90336533  0.73971064  0.46372962  1
  O  O323  1  0.90629083  0.73347582  0.99262259  1
  O  O324  1  0.08303048  0.26737898  0.23744341  1
  O  O325  1  0.09383756  0.26517703  0.71976390  1
  O  O326  1  0.09695577  0.59070540  0.21878564  1
  O  O327  1  0.10553847  0.59678893  0.73039252  1
  O  O328  1  0.08944657  0.92266936  0.22519853  1
  O  O329  1  0.09010276  0.92877697  0.73441262  1
  O  O330  1  0.44092286  0.26398500  0.22431925  1
  O  O331  1  0.43362118  0.26868064  0.71526699  1
  O  O332  1  0.42036778  0.58930652  0.22248340  1
  O  O333  1  0.42947579  0.59744388  0.73879168  1
  O  O334  1  0.43298606  0.91857631  0.21971990  1
  O  O335  1  0.43191487  0.92384190  0.74146976  1
  O  O336  1  0.76065964  0.26669802  0.22021346  1
  O  O337  1  0.77001841  0.27384583  0.74936233  1
  O  O338  1  0.76688786  0.59656510  0.22488193  1
  O  O339  1  0.76922134  0.59782584  0.72851476  1
  O  O340  1  0.76226092  0.91761585  0.22775394  1
  O  O341  1  0.77456499  0.94181973  0.72669718  1
  O  O342  1  0.06545850  0.08766022  0.24339945  1
  O  O343  1  0.05943235  0.09547062  0.72189937  1
  O  O344  1  0.06731205  0.43351987  0.22631074  1
  O  O345  1  0.07374321  0.42409757  0.72592778  1
  O  O346  1  0.07113741  0.76289703  0.21649106  1
  O  O347  1  0.07668378  0.75706969  0.73696536  1
  O  O348  1  0.42051025  0.09508570  0.22415147  1
  O  O349  1  0.40236485  0.10115544  0.72372906  1
  O  O350  1  0.41342687  0.43091107  0.22347831  1
  O  O351  1  0.39570073  0.43677139  0.75376476  1
  O  O352  1  0.39729220  0.76105986  0.22167920  1
  O  O353  1  0.40958093  0.76470849  0.73536438  1
  O  O354  1  0.73835054  0.10703913  0.22543827  1
  O  O355  1  0.74052220  0.10621341  0.71945450  1
  O  O356  1  0.73583006  0.43075070  0.22230887  1
  O  O357  1  0.73501654  0.42661586  0.73811311  1
  O  O358  1  0.74003292  0.75980442  0.22182176  1
  O  O359  1  0.72875246  0.77000450  0.74524535  1
