# generated using pymatgen
data_BaLaInIrO6
_symmetry_space_group_name_H-M   'P 1'
_cell_length_a   17.52257540
_cell_length_b   17.54007470
_cell_length_c   16.47444806
_cell_angle_alpha   89.97582011
_cell_angle_beta   90.04150177
_cell_angle_gamma   90.00304908
_symmetry_Int_Tables_number   1
_chemical_formula_structural   BaLaInIrO6
_chemical_formula_sum   'Ba36 La36 In36 Ir36 O216'
_cell_volume   5063.37504012
_cell_formula_units_Z   36
loop_
 _symmetry_equiv_pos_site_id
 _symmetry_equiv_pos_as_xyz
  1  'x, y, z'
loop_
 _atom_site_type_symbol
 _atom_site_label
 _atom_site_symmetry_multiplicity
 _atom_site_fract_x
 _atom_site_fract_y
 _atom_site_fract_z
 _atom_site_occupancy
  Ba  Ba0  1  0.84022047  0.98527686  0.37627404  1
  Ba  Ba1  1  0.16752612  0.32522794  0.87424598  1
  Ba  Ba2  1  0.82967410  0.67512858  0.62398473  1
  Ba  Ba3  1  -0.00291814  0.49127737  0.37502380  1
  Ba  Ba4  1  0.50122289  0.99210101  0.38085061  1
  Ba  Ba5  1  0.33431465  0.16076991  0.37840369  1
  Ba  Ba6  1  0.66402249  0.15865058  0.87257319  1
  Ba  Ba7  1  0.16647634  0.66077095  0.37069776  1
  Ba  Ba8  1  0.99652062  0.84657499  0.12631894  1
  Ba  Ba9  1  0.99971434  0.50838903  0.61990888  1
  Ba  Ba10  1  0.16231128  0.67350169  0.62239390  1
  Ba  Ba11  1  -0.00269547  0.49478799  0.87460557  1
  Ba  Ba12  1  0.83673952  0.32428290  0.37920192  1
  Ba  Ba13  1  0.67075147  0.49260548  0.87367091  1
  Ba  Ba14  1  0.17146704  0.99179727  0.87560725  1
  Ba  Ba15  1  0.33479571  0.82777066  0.87286109  1
  Ba  Ba16  1  0.50015410  0.34375839  0.62406752  1
  Ba  Ba17  1  -0.00403898  0.15129538  0.37815738  1
  Ba  Ba18  1  0.33300560  0.82829584  0.37575814  1
  Ba  Ba19  1  0.16873402  0.65899529  0.87418082  1
  Ba  Ba20  1  0.33153208  0.17448945  0.62584365  1
  Ba  Ba21  1  0.33082454  0.15769517  0.87692012  1
  Ba  Ba22  1  0.83892434  0.98895050  0.87348153  1
  Ba  Ba23  1  0.50530389  0.32365788  0.37608790  1
  Ba  Ba24  1  0.49982396  0.00772425  0.62500510  1
  Ba  Ba25  1  0.82775539  0.00922838  0.12735062  1
  Ba  Ba26  1  0.67184462  0.84410732  0.12838954  1
  Ba  Ba27  1  -0.00132300  0.15421886  0.87253934  1
  Ba  Ba28  1  0.16953413  0.99227635  0.37609210  1
  Ba  Ba29  1  0.16179961  0.00781887  0.12725841  1
  Ba  Ba30  1  0.49958035  0.00425242  0.12695232  1
  Ba  Ba31  1  0.00125993  0.82560662  0.37216431  1
  Ba  Ba32  1  0.66795975  0.50785750  0.62251609  1
  Ba  Ba33  1  0.49873737  0.34066542  0.12156321  1
  Ba  Ba34  1  0.66685161  0.49008494  0.37701276  1
  Ba  Ba35  1  0.49889626  0.67434501  0.12588903  1
  La  La36  1  0.50360646  0.32140205  0.87188739  1
  La  La37  1  1.00615085  0.52017206  0.12841546  1
  La  La38  1  0.16301481  0.01428748  0.62746840  1
  La  La39  1  0.32697177  0.48672936  0.87601753  1
  La  La40  1  0.33588675  0.51041207  0.62605055  1
  La  La41  1  0.16138919  0.34328279  0.12441361  1
  La  La42  1  0.66124086  0.15201046  0.37534728  1
  La  La43  1  0.33432246  0.51161820  0.12004469  1
  La  La44  1  0.16134539  0.34257574  0.62067916  1
  La  La45  1  0.83982129  0.65376616  0.37497632  1
  La  La46  1  1.00050168  0.84944290  0.62353510  1
  La  La47  1  0.84394833  0.31861373  0.87545074  1
  La  La48  1  0.16843456  0.32415052  0.37702789  1
  La  La49  1  0.67013519  0.17939902  0.13133341  1
  La  La50  1  0.83958321  0.65739740  0.87766970  1
  La  La51  1  0.00030395  0.82213104  0.87582082  1
  La  La52  1  0.33228867  0.17850635  0.12531715  1
  La  La53  1  0.99825337  0.17468656  0.12653274  1
  La  La54  1  0.33551437  0.84794072  0.12515937  1
  La  La55  1  0.82839547  0.34982436  0.62667611  1
  La  La56  1  0.66832184  0.51292242  0.12241222  1
  La  La57  1  0.16521025  0.68612090  0.12470562  1
  La  La58  1  0.33006629  0.48898271  0.37213551  1
  La  La59  1  1.00176246  0.18014225  0.62445444  1
  La  La60  1  0.50250043  0.98593058  0.87308780  1
  La  La61  1  0.83053162  0.34279009  0.12373403  1
  La  La62  1  0.49920569  0.67467001  0.62577007  1
  La  La63  1  0.50677324  0.65184630  0.37833718  1
  La  La64  1  0.66005583  0.81935308  0.87671498  1
  La  La65  1  0.67055140  0.18718402  0.61967747  1
  La  La66  1  0.66431729  0.81652423  0.37876208  1
  La  La67  1  0.82940645  0.01745209  0.62069376  1
  La  La68  1  0.33227510  0.84890967  0.62504549  1
  La  La69  1  0.67491221  0.84894287  0.62162882  1
  La  La70  1  0.82862378  0.68190573  0.12868150  1
  La  La71  1  0.50458965  0.64582840  0.87678688  1
  In  In72  1  0.16553353  0.83207202  0.50212581  1
  In  In73  1  0.83254953  0.16555337  0.00192698  1
  In  In74  1  0.16727221  0.50297982  0.49537892  1
  In  In75  1  0.83451175  0.16862461  0.25370853  1
  In  In76  1  0.16190380  0.16652733  0.49953382  1
  In  In77  1  0.83263543  0.16612120  0.74779131  1
  In  In78  1  0.16462799  0.16799927  0.24977123  1
  In  In79  1  0.50003172  0.83261947  0.25259296  1
  In  In80  1  0.49950801  0.16342478  0.00104122  1
  In  In81  1  0.50054488  0.83059078  0.00097331  1
  In  In82  1  0.16811058  0.50106995  0.74773203  1
  In  In83  1  0.49732288  0.49720453  0.24840153  1
  In  In84  1  0.83186894  0.83421973  -0.00132254  1
  In  In85  1  0.33294302  0.33683760  0.50066283  1
  In  In86  1  0.50067431  0.16468273  0.74970552  1
  In  In87  1  0.16690401  0.83334804  0.74912322  1
  In  In88  1  0.33366018  0.33301241  0.00001832  1
  In  In89  1  0.50232778  0.83136413  0.50291991  1
  In  In90  1  0.00045346  0.33525393  0.75021239  1
  In  In91  1  0.50151169  0.16639971  0.50245850  1
  In  In92  1  0.83124969  0.83404223  0.74926784  1
  In  In93  1  -0.00166919  0.66975061  0.74666950  1
  In  In94  1  0.66817740  0.66427847  0.25247888  1
  In  In95  1  0.16556722  0.83513788  0.24970756  1
  In  In96  1  0.33312719  0.66787147  -0.00356798  1
  In  In97  1  0.83639659  0.49934186  0.00183597  1
  In  In98  1  0.16447527  0.16640973  0.00020835  1
  In  In99  1  0.66520851  0.66625792  0.74940755  1
  In  In100  1  0.16476233  0.50158091  0.00058144  1
  In  In101  1  0.50131345  0.83014983  0.74812738  1
  In  In102  1  0.66868044  0.33669355  0.75423606  1
  In  In103  1  0.83607032  0.49837782  0.24635588  1
  In  In104  1  0.66769342  0.33487770  0.24940785  1
  In  In105  1  0.66616844  0.00120176  -0.00129420  1
  In  In106  1  0.33225174  0.66587066  0.24904786  1
  In  In107  1  0.50073164  0.16525578  0.24854532  1
  Ir  Ir108  1  0.67128407  0.33496332  0.50076265  1
  Ir  Ir109  1  0.83334351  0.16777670  0.50278484  1
  Ir  Ir110  1  0.33120442  -0.00104912  0.00252897  1
  Ir  Ir111  1  0.00157597  0.33468720  0.24811798  1
  Ir  Ir112  1  0.83334329  0.50160745  0.50073457  1
  Ir  Ir113  1  0.00142010  -0.00153766  -0.00161172  1
  Ir  Ir114  1  -0.00595083  -0.00190794  0.50573790  1
  Ir  Ir115  1  -0.00411643  0.33295766  0.50040781  1
  Ir  Ir116  1  0.16721723  0.16632685  0.74645858  1
  Ir  Ir117  1  0.66892940  0.66297557  -0.00032827  1
  Ir  Ir118  1  0.33913444  0.66452776  0.50283008  1
  Ir  Ir119  1  -0.00385473  0.33395764  0.00550950  1
  Ir  Ir120  1  0.49399360  0.50022267  0.75074211  1
  Ir  Ir121  1  0.83381378  0.83208018  0.50055063  1
  Ir  Ir122  1  0.67039366  -0.00160281  0.25768919  1
  Ir  Ir123  1  -0.00227033  0.66693193  0.24729170  1
  Ir  Ir124  1  0.00055450  0.67124565  0.00393748  1
  Ir  Ir125  1  0.83273886  0.50196690  0.75053467  1
  Ir  Ir126  1  0.66891581  -0.00073540  0.74496767  1
  Ir  Ir127  1  0.32684164  0.33584956  0.24952711  1
  Ir  Ir128  1  0.16451437  0.83524048  -0.00005525  1
  Ir  Ir129  1  0.33205347  0.00203592  0.24941677  1
  Ir  Ir130  1  0.33119260  -0.00084971  0.50227471  1
  Ir  Ir131  1  0.67418312  -0.00018205  0.50207533  1
  Ir  Ir132  1  0.66789767  0.33621253  -0.00055146  1
  Ir  Ir133  1  -0.00372478  0.00000378  0.24909089  1
  Ir  Ir134  1  0.66792273  0.66500506  0.49953803  1
  Ir  Ir135  1  0.00027262  -0.00118419  0.74851175  1
  Ir  Ir136  1  0.49953851  0.50426597  0.50465513  1
  Ir  Ir137  1  0.33812650  0.66536053  0.74500898  1
  Ir  Ir138  1  0.16621262  0.49721774  0.24788414  1
  Ir  Ir139  1  0.33277242  0.33584122  0.74901412  1
  Ir  Ir140  1  0.83180648  0.83252813  0.25524605  1
  Ir  Ir141  1  0.33216576  0.00040178  0.74910075  1
  Ir  Ir142  1  -0.00574776  0.66938010  0.49622567  1
  Ir  Ir143  1  0.50225727  0.49930096  -0.00413830  1
  O  O144  1  0.29758538  0.32463219  0.13159778  1
  O  O145  1  0.29874653  0.33861102  0.63024618  1
  O  O146  1  0.29784646  0.64511649  0.12129921  1
  O  O147  1  0.31106337  0.64768137  0.62401120  1
  O  O148  1  0.30918929  0.98496539  0.12528743  1
  O  O149  1  0.30137789  0.99191731  0.62554735  1
  O  O150  1  0.64575214  0.32173781  0.11698277  1
  O  O151  1  0.65190532  0.33174713  0.62113414  1
  O  O152  1  0.64653984  0.65529438  0.11991464  1
  O  O153  1  0.63542829  0.66209950  0.61970904  1
  O  O154  1  0.65139341  0.99606587  0.13756405  1
  O  O155  1  0.64783430  0.98526909  0.62312194  1
  O  O156  1  0.96724471  0.32197811  0.12731982  1
  O  O157  1  0.96477745  0.32503979  0.61946823  1
  O  O158  1  0.96628774  0.66207980  0.12577976  1
  O  O159  1  0.97728879  0.66742400  0.61510759  1
  O  O160  1  0.97546363  1.00241864  0.12382250  1
  O  O161  1  0.96505156  0.98955085  0.62712521  1
  O  O162  1  0.19551669  0.17043936  0.12702113  1
  O  O163  1  0.18266081  0.15709696  0.62670143  1
  O  O164  1  0.19650994  0.48676398  0.13001766  1
  O  O165  1  0.19898900  0.48937843  0.62071195  1
  O  O166  1  0.19324258  0.83090801  0.12021201  1
  O  O167  1  0.19750262  0.82771320  0.62484560  1
  O  O168  1  0.53630719  0.16228766  0.12487372  1
  O  O169  1  0.53469630  0.16477425  0.62596238  1
  O  O170  1  0.53409794  0.49756090  0.11459655  1
  O  O171  1  0.52110255  0.50355889  0.62866228  1
  O  O172  1  0.52280050  0.83741009  0.12676345  1
  O  O173  1  0.53888443  0.81835505  0.62507386  1
  O  O174  1  0.86424192  0.16748147  0.12600038  1
  O  O175  1  0.86543434  0.15863458  0.62090634  1
  O  O176  1  0.87381147  0.48360382  0.12285407  1
  O  O177  1  0.85276316  0.48829437  0.62681229  1
  O  O178  1  0.84797567  0.82108186  0.13205352  1
  O  O179  1  0.86425138  0.82877197  0.62036749  1
  O  O180  1  0.14331782  0.17871498  0.37449945  1
  O  O181  1  0.14862015  0.16678250  0.86727591  1
  O  O182  1  0.14378816  0.50329631  0.36572433  1
  O  O183  1  0.14593713  0.50005687  0.87454447  1
  O  O184  1  0.15367128  0.83322429  0.37708066  1
  O  O185  1  0.13695873  0.83335733  0.87773499  1
  O  O186  1  0.49035016  0.16417957  0.37532172  1
  O  O187  1  0.48118408  0.18325359  0.87483289  1
  O  O188  1  0.46914798  0.51070153  0.38342090  1
  O  O189  1  0.46427868  0.50543362  0.87238081  1
  O  O190  1  0.48323805  0.83480843  0.37952766  1
  O  O191  1  0.48304678  0.84788511  0.87275658  1
  O  O192  1  0.80065856  0.17118414  0.38308800  1
  O  O193  1  0.81626293  0.17962303  0.87511161  1
  O  O194  1  0.81711167  0.51108720  0.37741482  1
  O  O195  1  0.82012331  0.51598943  0.87350463  1
  O  O196  1  0.80160339  0.83240764  0.37897224  1
  O  O197  1  0.79590173  0.83234207  0.87384476  1
  O  O198  1  0.01909612  -0.00221861  0.37650402  1
  O  O199  1  0.02474809  -0.00106283  0.87367840  1
  O  O200  1  0.03175083  0.33736623  0.37217535  1
  O  O201  1  0.01637075  0.33821404  0.88420802  1
  O  O202  1  0.01731574  0.66859535  0.37266982  1
  O  O203  1  0.02030294  0.67918507  0.88323058  1
  O  O204  1  0.35313032  0.00585576  0.37505224  1
  O  O205  1  0.36308924  0.00242732  0.87577163  1
  O  O206  1  0.35583056  0.34986359  0.36737842  1
  O  O207  1  0.36710786  0.34428812  0.86979995  1
  O  O208  1  0.36955736  0.67016675  0.38265949  1
  O  O209  1  0.36892111  0.67315800  0.86456516  1
  O  O210  1  0.69482637  0.01633595  0.38086256  1
  O  O211  1  0.69061999  0.00548365  0.86202546  1
  O  O212  1  0.68738021  0.33551813  0.38089626  1
  O  O213  1  0.70514811  0.33899293  0.88157127  1
  O  O214  1  0.70208552  0.67157661  0.38120905  1
  O  O215  1  0.70064601  0.67289144  0.88007951  1
  O  O216  1  0.06481862  0.09608214  0.02215195  1
  O  O217  1  0.06280903  0.09103735  0.52936630  1
  O  O218  1  0.06456770  0.42663557  0.03226042  1
  O  O219  1  0.07711264  0.41430684  0.51940682  1
  O  O220  1  0.07391999  0.76179107  0.02404055  1
  O  O221  1  0.06198543  0.76235466  0.52127187  1
  O  O222  1  0.39491851  0.09199673  0.02791619  1
  O  O223  1  0.40678255  0.08403965  0.51688263  1
  O  O224  1  0.40757064  0.43497291  0.02048935  1
  O  O225  1  0.40380906  0.43909908  0.52368300  1
  O  O226  1  0.39991908  0.76385551  0.02479138  1
  O  O227  1  0.40634692  0.75449394  0.53491777  1
  O  O228  1  0.72881085  0.10434639  0.02395442  1
  O  O229  1  0.73859868  0.09941519  0.52962415  1
  O  O230  1  0.73393431  0.42971091  0.02805853  1
  O  O231  1  0.74816492  0.42276687  0.52432426  1
  O  O232  1  0.74196755  0.74804264  0.02299557  1
  O  O233  1  0.73319995  0.76671936  0.51975451  1
  O  O234  1  0.08639378  0.26512534  0.03208286  1
  O  O235  1  0.08194105  0.25972180  0.53031106  1
  O  O236  1  0.09183230  0.59959252  0.03234115  1
  O  O237  1  0.08528371  0.59554312  0.51038314  1
  O  O238  1  0.09339949  0.92786880  0.01503105  1
  O  O239  1  0.08787809  0.93163143  0.53227924  1
  O  O240  1  0.41792168  0.25128807  0.02643142  1
  O  O241  1  0.42290630  0.25891051  0.51434994  1
  O  O242  1  0.43317892  0.58999908  0.01295157  1
  O  O243  1  0.43553082  0.59965986  0.52745384  1
  O  O244  1  0.41917741  0.92793393  0.01453745  1
  O  O245  1  0.41694840  0.92035461  0.52545566  1
  O  O246  1  0.76288137  0.27194853  0.02256757  1
  O  O247  1  0.76571638  0.26377867  0.52949834  1
  O  O248  1  0.76040000  0.59367364  0.02842907  1
  O  O249  1  0.76058047  0.59250862  0.51752612  1
  O  O250  1  0.75976323  0.92711451  0.01514119  1
  O  O251  1  0.76829259  0.92796092  0.52783831  1
  O  O252  1  0.24497477  0.07410624  0.26439215  1
  O  O253  1  0.23566218  0.06957147  0.75903377  1
  O  O254  1  0.22914944  0.40182245  0.27435585  1
  O  O255  1  0.25054575  0.40991715  0.77468993  1
  O  O256  1  0.23354702  0.73398597  0.25151063  1
  O  O257  1  0.24756896  0.73426316  0.76240576  1
  O  O258  1  0.58101781  0.06633862  0.27216159  1
  O  O259  1  0.57047145  0.05959965  0.77008039  1
  O  O260  1  0.57027725  0.40477794  0.26262736  1
  O  O261  1  0.56207957  0.40783059  0.77440252  1
  O  O262  1  0.57493439  0.73695833  0.28218466  1
  O  O263  1  0.56801613  0.73236469  0.78295882  1
  O  O264  1  0.90794517  0.07072127  0.26527728  1
  O  O265  1  0.90711397  0.06648741  0.75876632  1
  O  O266  1  0.91047343  0.40067737  0.26638996  1
  O  O267  1  0.89876652  0.40681809  0.76938832  1
  O  O268  1  0.89676173  0.73063543  0.26849177  1
  O  O269  1  0.90238872  0.73866543  0.78174648  1
  O  O270  1  0.25607148  0.25073229  0.27729613  1
  O  O271  1  0.26101716  0.24116966  0.76845312  1
  O  O272  1  0.26160084  0.55950985  0.27213701  1
  O  O273  1  0.27584323  0.56987639  0.76832538  1
  O  O274  1  0.26321926  0.91051437  0.26096375  1
  O  O275  1  0.26240026  0.90981112  0.76148979  1
  O  O276  1  0.60606733  0.22986259  0.26625131  1
  O  O277  1  0.59024622  0.24777174  0.76703273  1
  O  O278  1  0.58790875  0.57601699  0.27113131  1
  O  O279  1  0.58233979  0.57226650  0.77369754  1
  O  O280  1  0.60767926  0.90379714  0.28116635  1
  O  O281  1  0.60716708  0.90179561  0.76740653  1
  O  O282  1  0.93793612  0.24096590  0.26553508  1
  O  O283  1  0.92630416  0.24328690  0.76496168  1
  O  O284  1  0.92929175  0.57654509  0.26148348  1
  O  O285  1  0.91874615  0.57608884  0.76491198  1
  O  O286  1  0.92524355  0.90271261  0.26469225  1
  O  O287  1  0.93927611  0.90016459  0.76969213  1
  O  O288  1  0.24533879  0.25303026  0.48559666  1
  O  O289  1  0.25492282  0.24284924  0.98451087  1
  O  O290  1  0.27450699  0.57086430  0.47770139  1
  O  O291  1  0.26762632  0.56840661  0.97412930  1
  O  O292  1  0.26121228  0.91068032  0.49092298  1
  O  O293  1  0.26066963  0.90245585  0.98412484  1
  O  O294  1  0.60878542  0.23759195  0.48542219  1
  O  O295  1  0.59474031  0.25064682  0.97681900  1
  O  O296  1  0.59150811  0.57777398  0.47415840  1
  O  O297  1  0.59405210  0.57345411  0.97408740  1
  O  O298  1  0.61103906  0.90198968  0.48334612  1
  O  O299  1  0.59677699  0.90316624  0.97024908  1
  O  O300  1  0.92671940  0.23768669  0.48339104  1
  O  O301  1  0.92873935  0.24442896  0.98328545  1
  O  O302  1  0.91935181  0.58021438  0.47410723  1
  O  O303  1  0.92916177  0.58285201  0.98518086  1
  O  O304  1  0.93070154  0.89826632  0.48794701  1
  O  O305  1  0.93637284  0.90146517  0.97609150  1
  O  O306  1  0.24109851  0.07176511  0.49089496  1
  O  O307  1  0.24238863  0.06880029  0.98997887  1
  O  O308  1  0.24067388  0.41097511  0.46455495  1
  O  O309  1  0.24378817  0.41059856  0.98462594  1
  O  O310  1  0.24974747  0.73306525  0.48653151  1
  O  O311  1  0.23100245  0.74258711  0.98899313  1
  O  O312  1  0.58687237  0.07266178  0.48500391  1
  O  O313  1  0.56238286  0.06272956  0.97264543  1
  O  O314  1  0.57605355  0.40724306  0.48371438  1
  O  O315  1  0.56995831  0.40316437  0.97150090  1
  O  O316  1  0.57677398  0.73202763  0.47360662  1
  O  O317  1  0.57709070  0.73183142  0.97087042  1
  O  O318  1  0.89835072  0.06903056  0.48927120  1
  O  O319  1  0.91131828  0.06752983  0.98489765  1
  O  O320  1  0.90750332  0.40989685  0.48383326  1
  O  O321  1  0.90029209  0.39640877  0.97873393  1
  O  O322  1  0.89753192  0.73632787  0.47322266  1
  O  O323  1  0.90720840  0.73799090  0.97894782  1
  O  O324  1  0.09399364  0.27076283  0.22415630  1
  O  O325  1  0.09713843  0.25575400  0.72029488  1
  O  O326  1  0.09690318  0.59479940  0.21889040  1
  O  O327  1  0.08992948  0.59317521  0.73403436  1
  O  O328  1  0.08489516  0.92806397  0.23744804  1
  O  O329  1  0.09384041  0.93480115  0.72162544  1
  O  O330  1  0.41361419  0.26044665  0.22897445  1
  O  O331  1  0.41974145  0.26432324  0.73195422  1
  O  O332  1  0.41870039  0.58508045  0.22359255  1
  O  O333  1  0.43191749  0.59809297  0.72348164  1
  O  O334  1  0.41933073  0.92949823  0.23693022  1
  O  O335  1  0.41970010  0.92487455  0.72966113  1
  O  O336  1  0.76596699  0.26507579  0.22208176  1
  O  O337  1  0.76154402  0.26222636  0.72055389  1
  O  O338  1  0.76494124  0.59596879  0.22178648  1
  O  O339  1  0.76147053  0.59197139  0.73826164  1
  O  O340  1  0.76438888  0.92738158  0.24040597  1
  O  O341  1  0.76561495  0.93652911  0.71971971  1
  O  O342  1  0.06267140  0.09564131  0.22839071  1
  O  O343  1  0.06997130  0.09673878  0.72031146  1
  O  O344  1  0.06984551  0.43068921  0.21922298  1
  O  O345  1  0.08399298  0.41470201  0.71886087  1
  O  O346  1  0.07195983  0.75251450  0.22701761  1
  O  O347  1  0.06204960  0.77321231  0.73151222  1
  O  O348  1  0.39882223  0.09581496  0.22434611  1
  O  O349  1  0.40413024  0.08775930  0.73434700  1
  O  O350  1  0.39144734  0.42890168  0.22385228  1
  O  O351  1  0.39892852  0.43200716  0.72557457  1
  O  O352  1  0.39935765  0.76498685  0.22362260  1
  O  O353  1  0.40372639  0.75763469  0.71485318  1
  O  O354  1  0.73140198  0.09864274  0.23625583  1
  O  O355  1  0.73166359  0.09549832  0.71683933  1
  O  O356  1  0.73835135  0.43117664  0.21708061  1
  O  O357  1  0.74612698  0.42865205  0.73293730  1
  O  O358  1  0.74352286  0.76176322  0.24077043  1
  O  O359  1  0.72955926  0.76804568  0.72406917  1
