# generated using pymatgen
data_BaLaInIrO6
_symmetry_space_group_name_H-M   'P 1'
_cell_length_a   17.55528444
_cell_length_b   17.58340365
_cell_length_c   16.49822265
_cell_angle_alpha   89.96793707
_cell_angle_beta   89.98082340
_cell_angle_gamma   90.01332217
_symmetry_Int_Tables_number   1
_chemical_formula_structural   BaLaInIrO6
_chemical_formula_sum   'Ba36 La36 In36 Ir36 O216'
_cell_volume   5092.69741081
_cell_formula_units_Z   36
loop_
 _symmetry_equiv_pos_site_id
 _symmetry_equiv_pos_as_xyz
  1  'x, y, z'
loop_
 _atom_site_type_symbol
 _atom_site_label
 _atom_site_symmetry_multiplicity
 _atom_site_fract_x
 _atom_site_fract_y
 _atom_site_fract_z
 _atom_site_occupancy
  Ba  Ba0  1  0.99592953  0.50609107  0.12758141  1
  Ba  Ba1  1  0.00341516  0.82718570  0.88110782  1
  Ba  Ba2  1  0.33226386  0.16306594  0.87388615  1
  Ba  Ba3  1  0.82773025  0.34026633  0.12263845  1
  Ba  Ba4  1  0.66545492  0.17723719  0.12589517  1
  Ba  Ba5  1  0.33169781  0.17641636  0.62704104  1
  Ba  Ba6  1  0.33966158  0.51210067  0.12417319  1
  Ba  Ba7  1  0.16616018  0.99181451  0.36927769  1
  Ba  Ba8  1  0.50008297  0.34171458  0.12328205  1
  Ba  Ba9  1  0.17111563  0.67121178  0.12613108  1
  Ba  Ba10  1  1.00397712  0.17475378  0.12357378  1
  Ba  Ba11  1  0.66412462  0.82368338  0.37710275  1
  Ba  Ba12  1  0.49834083  0.34581323  0.62561874  1
  Ba  Ba13  1  0.83392663  0.65790065  0.37851095  1
  Ba  Ba14  1  0.50067725  0.32433515  0.37694899  1
  Ba  Ba15  1  0.99579968  0.50993543  0.62786957  1
  Ba  Ba16  1  0.83409407  0.32393875  0.37041454  1
  Ba  Ba17  1  0.16993609  0.00720286  0.12241672  1
  Ba  Ba18  1  0.50127975  0.32301752  0.87360729  1
  Ba  Ba19  1  -0.00333425  0.15771476  0.37182813  1
  Ba  Ba20  1  0.67235048  0.51330095  0.63029688  1
  Ba  Ba21  1  0.33548394  0.17385562  0.12623498  1
  Ba  Ba22  1  0.66302014  0.84116248  0.62536052  1
  Ba  Ba23  1  0.67175788  0.50574606  0.12299792  1
  Ba  Ba24  1  0.66695464  0.16172359  0.37415277  1
  Ba  Ba25  1  0.50440940  0.99027040  0.37211254  1
  Ba  Ba26  1  0.33323405  0.82194702  0.87284672  1
  Ba  Ba27  1  0.17023329  0.65915873  0.87885701  1
  Ba  Ba28  1  0.65952228  0.82164378  0.87033594  1
  Ba  Ba29  1  0.33775443  0.49418586  0.87753466  1
  Ba  Ba30  1  0.16359459  0.66098804  0.37403603  1
  Ba  Ba31  1  0.66445262  0.15807150  0.87754474  1
  Ba  Ba32  1  0.33855650  0.50985716  0.62960488  1
  Ba  Ba33  1  -0.00653754  0.15455053  0.87351981  1
  Ba  Ba34  1  0.83214777  0.32273148  0.87430983  1
  Ba  Ba35  1  -0.00220651  0.48755549  0.37458704  1
  La  La36  1  0.82810408  0.01182942  0.62522362  1
  La  La37  1  0.49693007  0.01455369  0.12526067  1
  La  La38  1  0.99847798  0.84006436  0.62596424  1
  La  La39  1  0.82619361  0.68325547  0.12439149  1
  La  La40  1  0.49754030  0.68119776  0.11907947  1
  La  La41  1  0.66268063  0.48091656  0.37751248  1
  La  La42  1  0.50031365  0.67957324  0.62944344  1
  La  La43  1  1.00282088  0.18613159  0.62181376  1
  La  La44  1  0.49636656  0.01448349  0.62428081  1
  La  La45  1  0.50586923  0.98477557  0.87612221  1
  La  La46  1  0.16627263  0.68088818  0.62844424  1
  La  La47  1  0.82285238  0.34759370  0.61782265  1
  La  La48  1  -0.00197220  0.48850663  0.87865937  1
  La  La49  1  0.66774943  0.84994209  0.12283801  1
  La  La50  1  0.17465654  0.98612672  0.87941638  1
  La  La51  1  0.51108397  0.65245058  0.37955567  1
  La  La52  1  0.16631196  0.00712587  0.62842951  1
  La  La53  1  1.00362592  0.83960727  0.12487996  1
  La  La54  1  0.17404703  0.32286320  0.87721318  1
  La  La55  1  0.83138288  0.01791601  0.11943894  1
  La  La56  1  0.33987746  0.84540921  0.12123587  1
  La  La57  1  0.66629532  0.18167336  0.62245920  1
  La  La58  1  0.32703738  0.15144273  0.38008596  1
  La  La59  1  0.83553742  0.99680703  0.36145192  1
  La  La60  1  0.16157743  0.34254919  0.12222278  1
  La  La61  1  0.33172515  0.81769256  0.37307273  1
  La  La62  1  0.16857174  0.32215491  0.37736710  1
  La  La63  1  0.16443266  0.35249857  0.62660153  1
  La  La64  1  0.83632443  0.65421770  0.87472698  1
  La  La65  1  0.33389523  0.48749220  0.37158645  1
  La  La66  1  0.50642110  0.64986782  0.87172843  1
  La  La67  1  0.82742223  0.68590955  0.62411011  1
  La  La68  1  0.65826507  0.47799819  0.87479446  1
  La  La69  1  0.34371326  0.84428797  0.62071539  1
  La  La70  1  -0.00188974  0.83144755  0.36615992  1
  La  La71  1  0.83173268  0.98819385  0.87818285  1
  In  In72  1  0.16292718  0.16530147  0.50197777  1
  In  In73  1  0.83362159  0.16423849  0.74708088  1
  In  In74  1  0.17045941  0.83596463  0.50012893  1
  In  In75  1  -0.00208547  -0.00308384  0.50102567  1
  In  In76  1  0.50228001  0.50374065  0.24906881  1
  In  In77  1  0.00044272  -0.00056911  0.24393632  1
  In  In78  1  -0.00193164  0.66595519  0.00155706  1
  In  In79  1  0.83443518  0.83684458  0.49789649  1
  In  In80  1  0.33644755  0.66376500  0.49809944  1
  In  In81  1  0.66487229  0.00042258  0.74877000  1
  In  In82  1  -0.00203575  0.67051159  0.50503287  1
  In  In83  1  0.83143316  0.50134355  0.75376823  1
  In  In84  1  0.82946092  0.50038026  -0.00343452  1
  In  In85  1  0.66607548  0.00066110  0.50169217  1
  In  In86  1  0.16719897  0.49986671  0.25110174  1
  In  In87  1  -0.00036675  0.66763292  0.75259069  1
  In  In88  1  0.33167874  0.33267254  0.50180767  1
  In  In89  1  0.33445580  0.33596154  0.75079481  1
  In  In90  1  0.66710144  -0.00080258  0.24882942  1
  In  In91  1  0.83389758  0.16324398  0.49932192  1
  In  In92  1  0.49836103  0.16655179  0.25333104  1
  In  In93  1  0.16137930  0.16634047  0.74954743  1
  In  In94  1  0.16694687  0.50346681  0.50063262  1
  In  In95  1  0.16932953  0.83390281  0.74800919  1
  In  In96  1  0.33516190  0.00089477  0.75232068  1
  In  In97  1  0.16877463  0.16675554  0.25027345  1
  In  In98  1  -0.00056346  0.33449934  0.75204123  1
  In  In99  1  -0.00159268  -0.00218385  -0.00277746  1
  In  In100  1  0.33287691  0.33307974  0.25213277  1
  In  In101  1  0.17006710  0.83120662  0.00519558  1
  In  In102  1  -0.00185723  0.66743915  0.24978247  1
  In  In103  1  0.16607036  0.16573213  -0.00194855  1
  In  In104  1  0.66441786  0.66840574  0.24812192  1
  In  In105  1  0.16795421  0.50121352  0.00023837  1
  In  In106  1  0.83195863  0.50301334  0.25037578  1
  In  In107  1  0.33381606  0.33459953  0.00082202  1
  Ir  Ir108  1  0.34342739  0.67393572  0.24842107  1
  Ir  Ir109  1  0.50700486  0.50482177  0.74929817  1
  Ir  Ir110  1  0.49745484  0.83188414  0.49948170  1
  Ir  Ir111  1  0.83202624  0.83788690  0.24275136  1
  Ir  Ir112  1  0.33791691  -0.00324863  0.49646605  1
  Ir  Ir113  1  0.83220505  0.16813709  0.24530577  1
  Ir  Ir114  1  0.66530124  0.67093939  -0.00345129  1
  Ir  Ir115  1  0.50409285  0.83296448  0.00004515  1
  Ir  Ir116  1  0.82828667  0.49867739  0.50160945  1
  Ir  Ir117  1  -0.00602123  -0.00610290  0.74670350  1
  Ir  Ir118  1  0.49683112  0.83013526  0.74902118  1
  Ir  Ir119  1  -0.00027835  0.33160314  0.24717692  1
  Ir  Ir120  1  0.66308119  0.33374349  0.50163905  1
  Ir  Ir121  1  0.50789394  0.50494788  -0.00253296  1
  Ir  Ir122  1  0.16692990  0.50363488  0.75063418  1
  Ir  Ir123  1  0.66477216  0.66525993  0.50412994  1
  Ir  Ir124  1  0.82576913  0.83433202  -0.00122066  1
  Ir  Ir125  1  -0.00486976  0.33548204  0.50146713  1
  Ir  Ir126  1  0.66461601  0.33023401  0.74633612  1
  Ir  Ir127  1  0.66316829  0.32996157  -0.00142715  1
  Ir  Ir128  1  0.66549032  -0.00200860  -0.00021708  1
  Ir  Ir129  1  0.50333092  0.50571370  0.50426247  1
  Ir  Ir130  1  0.33469139  0.66498222  0.75039058  1
  Ir  Ir131  1  0.49936451  0.83102364  0.24902626  1
  Ir  Ir132  1  0.34328373  0.66982824  -0.00018350  1
  Ir  Ir133  1  0.33875846  -0.00666515  0.25049267  1
  Ir  Ir134  1  0.34214130  -0.00245438  0.00048565  1
  Ir  Ir135  1  0.66908194  0.67036732  0.75243501  1
  Ir  Ir136  1  0.50252497  0.16391284  0.75003094  1
  Ir  Ir137  1  0.66709496  0.33295717  0.25156325  1
  Ir  Ir138  1  0.17168399  0.83227205  0.24886173  1
  Ir  Ir139  1  0.49776386  0.16466745  0.50390018  1
  Ir  Ir140  1  0.82879111  0.16540384  -0.00064993  1
  Ir  Ir141  1  0.50107797  0.16156625  -0.00377849  1
  Ir  Ir142  1  0.83236901  0.83475891  0.75563809  1
  Ir  Ir143  1  -0.00023625  0.33317911  0.00190764  1
  O  O144  1  0.30128720  0.33358568  0.12576945  1
  O  O145  1  0.30507743  0.33948090  0.62653779  1
  O  O146  1  0.32211073  0.67469304  0.12474978  1
  O  O147  1  0.30639683  0.66380260  0.63024215  1
  O  O148  1  0.31815119  0.98275875  0.12673555  1
  O  O149  1  0.30793592  0.98706593  0.61677354  1
  O  O150  1  0.64768138  0.33617135  0.12594773  1
  O  O151  1  0.64269485  0.32278415  0.62387201  1
  O  O152  1  0.63323348  0.66617342  0.11543089  1
  O  O153  1  0.63707202  0.66726618  0.62951490  1
  O  O154  1  0.63451327  0.98915035  0.11901103  1
  O  O155  1  0.62900157  0.99373866  0.62576707  1
  O  O156  1  0.97369023  0.33116878  0.12525298  1
  O  O157  1  0.96153056  0.33276510  0.61953402  1
  O  O158  1  0.95994156  0.67142569  0.12481566  1
  O  O159  1  0.96110238  0.66524429  0.63105927  1
  O  O160  1  0.96528106  0.98197277  0.12197843  1
  O  O161  1  0.95986763  0.98017315  0.63024947  1
  O  O162  1  0.18704516  0.17188071  0.12451696  1
  O  O163  1  0.18533387  0.14159788  0.62525450  1
  O  O164  1  0.19078811  0.48030954  0.12674275  1
  O  O165  1  0.18918901  0.49017653  0.63127596  1
  O  O166  1  0.20571123  0.83153226  0.13217642  1
  O  O167  1  0.21012588  0.82575123  0.62454648  1
  O  O168  1  0.51699035  0.15240288  0.11626649  1
  O  O169  1  0.53043001  0.15371638  0.62808934  1
  O  O170  1  0.52318201  0.50860130  0.11757448  1
  O  O171  1  0.52654131  0.50423254  0.62737414  1
  O  O172  1  0.53251748  0.81921372  0.12464757  1
  O  O173  1  0.51694108  0.81515851  0.62449486  1
  O  O174  1  0.85251889  0.15911617  0.12146097  1
  O  O175  1  0.87090962  0.14733394  0.62287690  1
  O  O176  1  0.84090076  0.49692312  0.12164780  1
  O  O177  1  0.84446589  0.48654538  0.62347646  1
  O  O178  1  0.86062502  0.82265447  0.12008351  1
  O  O179  1  0.85980840  0.82465221  0.63696297  1
  O  O180  1  0.14420892  0.17529005  0.37726429  1
  O  O181  1  0.13837791  0.18394146  0.87295228  1
  O  O182  1  0.14577734  0.50756308  0.37639764  1
  O  O183  1  0.13477804  0.50784034  0.86845674  1
  O  O184  1  0.13763655  0.83527846  0.36813969  1
  O  O185  1  0.15451340  0.84577930  0.87667495  1
  O  O186  1  0.46689836  0.16553560  0.38462254  1
  O  O187  1  0.48101812  0.16660603  0.87229752  1
  O  O188  1  0.47446246  0.51583359  0.38480071  1
  O  O189  1  0.48839966  0.51210763  0.87254044  1
  O  O190  1  0.46842211  0.83796450  0.37231408  1
  O  O191  1  0.47927299  0.84769126  0.87569713  1
  O  O192  1  0.81764010  0.16250778  0.36738099  1
  O  O193  1  0.81327136  0.16139702  0.87849859  1
  O  O194  1  0.79870011  0.50242330  0.38297730  1
  O  O195  1  0.79000882  0.51478800  0.87490904  1
  O  O196  1  0.81281742  0.85587246  0.36489155  1
  O  O197  1  0.80314637  0.85128104  0.87759040  1
  O  O198  1  0.01031053  -0.01150893  0.37137064  1
  O  O199  1  0.03176259  -0.00382419  0.86399531  1
  O  O200  1  0.02846111  0.33096909  0.37422272  1
  O  O201  1  0.03221473  0.33962623  0.88239627  1
  O  O202  1  0.01325215  0.69378536  0.37756025  1
  O  O203  1  0.02084758  0.67842755  0.87631395  1
  O  O204  1  0.36079467  0.01040006  0.37378259  1
  O  O205  1  0.37118657  0.00037080  0.88116795  1
  O  O206  1  0.35558375  0.35354314  0.38088337  1
  O  O207  1  0.35405200  0.33790795  0.87479196  1
  O  O208  1  0.37410463  0.67960516  0.36742943  1
  O  O209  1  0.36977639  0.66754842  0.87580798  1
  O  O210  1  0.69736576  0.00026579  0.37444521  1
  O  O211  1  0.69450032  0.00178898  0.87884108  1
  O  O212  1  0.68487149  0.33975009  0.37756184  1
  O  O213  1  0.68267741  0.33429066  0.87201126  1
  O  O214  1  0.68066817  0.67050042  0.38363893  1
  O  O215  1  0.69904893  0.67355010  0.87490925  1
  O  O216  1  0.07450085  0.08819544  0.01150389  1
  O  O217  1  0.05965142  0.09910619  0.52412961  1
  O  O218  1  0.06976888  0.41915854  0.02006301  1
  O  O219  1  0.06400616  0.42281735  0.52125119  1
  O  O220  1  0.07072311  0.76285172  0.03053161  1
  O  O221  1  0.07624133  0.76449680  0.53666504  1
  O  O222  1  0.41495697  0.08519622  0.02260719  1
  O  O223  1  0.40844984  0.08998894  0.52619577  1
  O  O224  1  0.41833043  0.43292300  0.01474254  1
  O  O225  1  0.41326238  0.43710228  0.51497390  1
  O  O226  1  0.41267887  0.76505918  0.02665037  1
  O  O227  1  0.40545903  0.76533909  0.52098517  1
  O  O228  1  0.74039487  0.08693994  0.02563241  1
  O  O229  1  0.73351962  0.09952365  0.52986158  1
  O  O230  1  0.73306670  0.42017595  0.00267857  1
  O  O231  1  0.73388400  0.42537561  0.52049165  1
  O  O232  1  0.72970868  0.76680395  0.02678301  1
  O  O233  1  0.73490510  0.75466342  0.52082242  1
  O  O234  1  0.09037582  0.26801827  0.02362755  1
  O  O235  1  0.08922537  0.27043260  0.52680356  1
  O  O236  1  0.09023053  0.58876682  0.01921506  1
  O  O237  1  0.09983076  0.60287523  0.52856254  1
  O  O238  1  0.08763784  0.91932124  0.02077646  1
  O  O239  1  0.10633593  0.93690076  0.52686066  1
  O  O240  1  0.42929855  0.24961617  0.01413043  1
  O  O241  1  0.42923776  0.25342600  0.52098759  1
  O  O242  1  0.44371317  0.60491269  0.01276674  1
  O  O243  1  0.44367708  0.60342324  0.52283805  1
  O  O244  1  0.43759867  0.92777463  0.02744601  1
  O  O245  1  0.43171921  0.92795309  0.52692343  1
  O  O246  1  0.75547737  0.25694792  0.01483852  1
  O  O247  1  0.75586858  0.26302515  0.52442129  1
  O  O248  1  0.76089878  0.61188363  0.01824628  1
  O  O249  1  0.76246410  0.59886783  0.52634074  1
  O  O250  1  0.75923033  0.93009516  0.02773007  1
  O  O251  1  0.76532431  0.92996131  0.52787267  1
  O  O252  1  0.25470406  0.06975533  0.26810178  1
  O  O253  1  0.23261332  0.06686593  0.77645089  1
  O  O254  1  0.23696977  0.40501160  0.28560058  1
  O  O255  1  0.23014301  0.41070654  0.77283469  1
  O  O256  1  0.24955120  0.74398285  0.27529924  1
  O  O257  1  0.24416171  0.73234402  0.76512659  1
  O  O258  1  0.57567705  0.07514043  0.25898663  1
  O  O259  1  0.56472312  0.06902595  0.77323080  1
  O  O260  1  0.58141254  0.40770395  0.26951643  1
  O  O261  1  0.57861922  0.41168976  0.77166431  1
  O  O262  1  0.56168337  0.73576977  0.27155624  1
  O  O263  1  0.56552627  0.73244238  0.76979729  1
  O  O264  1  0.89869830  0.07408515  0.25715303  1
  O  O265  1  0.89863948  0.05514598  0.77258379  1
  O  O266  1  0.91182425  0.40351891  0.26257504  1
  O  O267  1  0.91436630  0.41520976  0.77887432  1
  O  O268  1  0.90080301  0.75205274  0.26616563  1
  O  O269  1  0.89269818  0.74062644  0.77685289  1
  O  O270  1  0.26361509  0.23628082  0.28713873  1
  O  O271  1  0.25085722  0.24843932  0.76571005  1
  O  O272  1  0.28034358  0.57995081  0.26990617  1
  O  O273  1  0.26306051  0.57278089  0.77072563  1
  O  O274  1  0.26947119  0.89956765  0.27361874  1
  O  O275  1  0.25665670  0.91383114  0.77097405  1
  O  O276  1  0.59503127  0.24501175  0.26336809  1
  O  O277  1  0.59777871  0.23252913  0.75853798  1
  O  O278  1  0.59744054  0.57071474  0.28240867  1
  O  O279  1  0.60208548  0.57585373  0.77759201  1
  O  O280  1  0.59403927  0.89610047  0.25817595  1
  O  O281  1  0.58242468  0.90617698  0.76822751  1
  O  O282  1  0.92517374  0.23926567  0.26297786  1
  O  O283  1  0.92683283  0.23775846  0.75960697  1
  O  O284  1  0.92378590  0.57517657  0.27255531  1
  O  O285  1  0.92768881  0.57190024  0.78326825  1
  O  O286  1  0.92312393  0.90323135  0.26559249  1
  O  O287  1  0.92670948  0.90063336  0.77449268  1
  O  O288  1  0.26333206  0.23254122  0.47728557  1
  O  O289  1  0.25294733  0.24619068  0.97543981  1
  O  O290  1  0.27540029  0.56300320  0.47717046  1
  O  O291  1  0.27044626  0.58197852  0.98828724  1
  O  O292  1  0.27705328  0.90318892  0.47268538  1
  O  O293  1  0.26765736  0.91199454  0.98522109  1
  O  O294  1  0.59394946  0.23507346  0.48850488  1
  O  O295  1  0.59012881  0.23628348  0.98580575  1
  O  O296  1  0.59903733  0.57071098  0.47850057  1
  O  O297  1  0.60284326  0.57543508  0.96811387  1
  O  O298  1  0.58679687  0.90213816  0.48318613  1
  O  O299  1  0.59419943  0.90681601  0.97734326  1
  O  O300  1  0.93028138  0.24137727  0.48767993  1
  O  O301  1  0.92142154  0.23861835  0.98157815  1
  O  O302  1  0.91870209  0.56547075  0.48648933  1
  O  O303  1  0.92282406  0.57265886  0.96538303  1
  O  O304  1  0.94748254  0.88418929  0.48849244  1
  O  O305  1  0.91184961  0.90745941  0.97632721  1
  O  O306  1  0.24879696  0.06662831  0.47890794  1
  O  O307  1  0.24784631  0.06394280  0.97549587  1
  O  O308  1  0.22261477  0.39373885  0.48778927  1
  O  O309  1  0.23364825  0.40533905  0.97393170  1
  O  O310  1  0.24798987  0.74345391  0.47421196  1
  O  O311  1  0.25315923  0.73996779  0.98767187  1
  O  O312  1  0.56657053  0.07600919  0.48726735  1
  O  O313  1  0.56858878  0.06302409  0.97653579  1
  O  O314  1  0.57494020  0.41317324  0.47710068  1
  O  O315  1  0.57634733  0.41002248  0.97629252  1
  O  O316  1  0.56404950  0.73104885  0.48391403  1
  O  O317  1  0.56569703  0.73376117  0.97448592  1
  O  O318  1  0.88871298  0.05268349  0.47808257  1
  O  O319  1  0.89446503  0.06947350  0.98378517  1
  O  O320  1  0.89395837  0.40117386  0.48646870  1
  O  O321  1  0.91489662  0.40829223  0.97587963  1
  O  O322  1  0.89363775  0.73419888  0.49758869  1
  O  O323  1  0.88666973  0.74005583  0.97820724  1
  O  O324  1  0.09342441  0.26755011  0.23051680  1
  O  O325  1  0.08946981  0.26261404  0.71021602  1
  O  O326  1  0.09331727  0.59399228  0.23283711  1
  O  O327  1  0.10457962  0.59801028  0.72475867  1
  O  O328  1  0.09460863  0.91410733  0.22363071  1
  O  O329  1  0.08698215  0.92866741  0.71644049  1
  O  O330  1  0.42633992  0.25750191  0.23311259  1
  O  O331  1  0.43194490  0.25226771  0.73272111  1
  O  O332  1  0.43903846  0.61272378  0.22893662  1
  O  O333  1  0.43856315  0.60228350  0.73390984  1
  O  O334  1  0.43260405  0.92342681  0.22049321  1
  O  O335  1  0.42875849  0.92137753  0.72038074  1
  O  O336  1  0.75829979  0.25782539  0.23386704  1
  O  O337  1  0.75523258  0.26065617  0.71780642  1
  O  O338  1  0.76232787  0.60503928  0.22535063  1
  O  O339  1  0.76523493  0.60819508  0.73148432  1
  O  O340  1  0.76520778  0.92916949  0.21438719  1
  O  O341  1  0.76905680  0.93072866  0.73309615  1
  O  O342  1  0.07887340  0.08721581  0.23440658  1
  O  O343  1  0.05608549  0.08720297  0.71904545  1
  O  O344  1  0.07213745  0.41605401  0.22977209  1
  O  O345  1  0.07953291  0.43131556  0.73231262  1
  O  O346  1  0.07695895  0.76769891  0.22507386  1
  O  O347  1  0.07585482  0.76083196  0.71875781  1
  O  O348  1  0.41140863  0.07861931  0.22876806  1
  O  O349  1  0.41463213  0.09075840  0.72724573  1
  O  O350  1  0.40606926  0.43565971  0.24374561  1
  O  O351  1  0.41778459  0.43227832  0.73786755  1
  O  O352  1  0.40343175  0.77135997  0.22571484  1
  O  O353  1  0.40419485  0.75811940  0.72239798  1
  O  O354  1  0.74854522  0.09127671  0.22785084  1
  O  O355  1  0.73682609  0.09490658  0.71745718  1
  O  O356  1  0.73596811  0.42448609  0.24656681  1
  O  O357  1  0.73966072  0.41702726  0.73523814  1
  O  O358  1  0.73686151  0.77100244  0.22016499  1
  O  O359  1  0.73963579  0.76352230  0.72941227  1
