# generated using pymatgen
data_BaLaInIrO6
_symmetry_space_group_name_H-M   'P 1'
_cell_length_a   17.51457276
_cell_length_b   17.54195464
_cell_length_c   16.48647033
_cell_angle_alpha   89.92169966
_cell_angle_beta   90.02093182
_cell_angle_gamma   90.09242490
_symmetry_Int_Tables_number   1
_chemical_formula_structural   BaLaInIrO6
_chemical_formula_sum   'Ba36 La36 In36 Ir36 O216'
_cell_volume   5065.28886598
_cell_formula_units_Z   36
loop_
 _symmetry_equiv_pos_site_id
 _symmetry_equiv_pos_as_xyz
  1  'x, y, z'
loop_
 _atom_site_type_symbol
 _atom_site_label
 _atom_site_symmetry_multiplicity
 _atom_site_fract_x
 _atom_site_fract_y
 _atom_site_fract_z
 _atom_site_occupancy
  Ba  Ba0  1  -0.00262116  0.49241399  0.37283014  1
  Ba  Ba1  1  0.66854854  0.49543715  0.37476791  1
  Ba  Ba2  1  0.83361762  0.34155041  0.62369693  1
  Ba  Ba3  1  0.82749011  0.67491328  0.13276694  1
  Ba  Ba4  1  0.16305899  0.01450463  0.12404115  1
  Ba  Ba5  1  1.00054274  0.17809782  0.12081739  1
  Ba  Ba6  1  -0.00574013  0.15859959  0.37102249  1
  Ba  Ba7  1  0.83071103  0.00664722  0.11924818  1
  Ba  Ba8  1  0.16590887  0.33964254  0.12112545  1
  Ba  Ba9  1  0.83613500  0.32470478  0.37346350  1
  Ba  Ba10  1  0.49487632  0.34151619  0.62134281  1
  Ba  Ba11  1  0.83773546  0.98993183  0.87516224  1
  Ba  Ba12  1  0.66902019  0.82642169  0.37400347  1
  Ba  Ba13  1  0.16916828  0.65343321  0.38059866  1
  Ba  Ba14  1  0.17180725  0.99233543  0.87343326  1
  Ba  Ba15  1  0.66517202  0.51060984  0.12908719  1
  Ba  Ba16  1  0.67302844  0.82750274  0.87709734  1
  Ba  Ba17  1  0.83727224  0.00551538  0.62602107  1
  Ba  Ba18  1  0.33196597  0.51066539  0.62580162  1
  Ba  Ba19  1  0.33044115  0.17535063  0.62672975  1
  Ba  Ba20  1  0.16527135  0.32212664  0.87561596  1
  Ba  Ba21  1  0.66554127  0.83965225  0.12787642  1
  Ba  Ba22  1  0.50059705  0.67514118  0.12823516  1
  Ba  Ba23  1  0.49653262  0.34181652  0.12855825  1
  Ba  Ba24  1  0.16761279  0.65799531  0.87254016  1
  Ba  Ba25  1  0.83196583  0.65801458  0.37441935  1
  Ba  Ba26  1  0.16318118  0.01181349  0.62000207  1
  Ba  Ba27  1  0.32741930  0.49216200  0.37473572  1
  Ba  Ba28  1  -0.00215816  0.82811540  0.87983559  1
  Ba  Ba29  1  0.16567229  0.34423350  0.62709990  1
  Ba  Ba30  1  0.83533467  0.67532412  0.62137858  1
  Ba  Ba31  1  0.66881057  0.16332828  0.37207203  1
  Ba  Ba32  1  0.33094926  0.17527825  0.12211360  1
  Ba  Ba33  1  0.33232490  0.15863143  0.87688334  1
  Ba  Ba34  1  0.82919700  0.33910640  0.12682774  1
  Ba  Ba35  1  0.16497105  0.67611655  0.62603449  1
  La  La36  1  0.16603806  0.98786736  0.37342674  1
  La  La37  1  1.00686450  0.85049571  0.62817184  1
  La  La38  1  0.84259692  0.31330243  0.87692334  1
  La  La39  1  0.32963726  0.48572310  0.87067489  1
  La  La40  1  0.33235938  0.84401096  0.62872300  1
  La  La41  1  0.99868048  0.50829782  0.12666605  1
  La  La42  1  -0.00421516  0.48439456  0.87597374  1
  La  La43  1  0.50394336  0.31024607  0.87479382  1
  La  La44  1  0.32566895  0.81912996  0.87550201  1
  La  La45  1  0.49534611  0.67921601  0.62590293  1
  La  La46  1  0.67589633  0.18058020  0.62490462  1
  La  La47  1  0.67112127  0.84834441  0.62379637  1
  La  La48  1  0.49971894  0.99061299  0.87540061  1
  La  La49  1  1.00997222  0.51567653  0.62120799  1
  La  La50  1  0.50122205  0.65055038  0.87468245  1
  La  La51  1  0.50240919  0.31782900  0.37639580  1
  La  La52  1  0.67266575  0.51506903  0.62451750  1
  La  La53  1  0.66743983  0.14956711  0.87221117  1
  La  La54  1  0.32831096  0.81835347  0.37941641  1
  La  La55  1  0.67667832  0.17943862  0.12017792  1
  La  La56  1  0.84017030  0.98678869  0.37348983  1
  La  La57  1  0.16575970  0.32514018  0.37558079  1
  La  La58  1  0.84422177  0.65137917  0.88257082  1
  La  La59  1  -0.00053282  0.14962107  0.87459940  1
  La  La60  1  -0.00536019  0.82059204  0.38099794  1
  La  La61  1  0.33987112  0.51452123  0.12271376  1
  La  La62  1  0.32718549  0.16406287  0.37490069  1
  La  La63  1  0.16125222  0.67543896  0.12365230  1
  La  La64  1  0.34151732  0.84918084  0.12238476  1
  La  La65  1  0.49539963  0.01099864  0.12407103  1
  La  La66  1  0.66487835  0.48460859  0.87785687  1
  La  La67  1  0.50377606  0.98525529  0.37511731  1
  La  La68  1  1.00229235  0.85222846  0.12787207  1
  La  La69  1  1.01047777  0.18364445  0.61902463  1
  La  La70  1  0.50649843  0.65234188  0.37539108  1
  La  La71  1  0.49615266  0.00802838  0.62356825  1
  In  In72  1  0.66385841  0.33517530  0.25000874  1
  In  In73  1  0.33461934  0.33381990  0.00128470  1
  In  In74  1  0.33154816  0.33559757  0.49888586  1
  In  In75  1  -0.00159521  0.33347227  0.75019798  1
  In  In76  1  0.83284047  0.83010012  0.74892879  1
  In  In77  1  0.66975510  0.00244951  0.49866097  1
  In  In78  1  0.83655310  0.16216865  0.74685305  1
  In  In79  1  0.33583569  0.33317289  0.75045747  1
  In  In80  1  0.16515537  0.83256009  0.49976145  1
  In  In81  1  0.49955923  0.49788278  -0.00069261  1
  In  In82  1  0.50101669  0.49796274  0.75116761  1
  In  In83  1  0.33304166  0.00273305  0.25245603  1
  In  In84  1  0.66470003  0.67010395  0.50285787  1
  In  In85  1  0.16699331  0.16482528  0.74953732  1
  In  In86  1  0.33291054  0.66924384  0.25135426  1
  In  In87  1  0.49949392  0.16267400  0.49934766  1
  In  In88  1  0.50467885  0.16189567  0.74702299  1
  In  In89  1  0.83358239  0.16368354  0.24804839  1
  In  In90  1  0.83326970  0.49912090  0.24970059  1
  In  In91  1  0.33345522  0.00079019  0.49789269  1
  In  In92  1  0.66937941  0.66578428  -0.00337998  1
  In  In93  1  0.66670024  -0.00010275  0.24911459  1
  In  In94  1  0.16807856  0.83331729  0.25062664  1
  In  In95  1  0.49727583  0.83139771  -0.00325042  1
  In  In96  1  0.00154690  0.66838508  0.24820736  1
  In  In97  1  0.16889458  0.83379378  0.00192061  1
  In  In98  1  0.66608740  0.33699867  0.49981419  1
  In  In99  1  0.83372750  0.83157602  0.00416660  1
  In  In100  1  0.66758602  0.33221897  0.75137630  1
  In  In101  1  0.16798867  0.50023308  -0.00232722  1
  In  In102  1  0.49819293  0.16333540  0.24941205  1
  In  In103  1  0.83222456  0.49884960  0.74908327  1
  In  In104  1  0.49903932  0.83158409  0.75186332  1
  In  In105  1  0.16989586  0.49767714  0.24663653  1
  In  In106  1  -0.00056584  0.66792373  0.75379623  1
  In  In107  1  0.66735659  0.66706904  0.75230546  1
  Ir  Ir108  1  0.49967308  0.50250501  0.49872550  1
  Ir  Ir109  1  0.00003754  0.66278087  0.00309496  1
  Ir  Ir110  1  0.66241415  0.00196095  -0.00397301  1
  Ir  Ir111  1  0.00361170  -0.00177362  0.74861698  1
  Ir  Ir112  1  0.16933484  0.83530586  0.75015674  1
  Ir  Ir113  1  0.83815091  0.83514552  0.50145181  1
  Ir  Ir114  1  0.33212081  0.33296312  0.25151986  1
  Ir  Ir115  1  0.00245796  0.33377752  0.24691800  1
  Ir  Ir116  1  0.66231241  0.66977169  0.25330789  1
  Ir  Ir117  1  -0.00188228  0.66860927  0.50170413  1
  Ir  Ir118  1  0.33632908  0.00158498  -0.00065646  1
  Ir  Ir119  1  0.49806561  0.83053040  0.50015655  1
  Ir  Ir120  1  0.33591408  -0.00423630  0.74827242  1
  Ir  Ir121  1  0.00205837  0.00075433  0.25210627  1
  Ir  Ir122  1  0.83789051  0.83556507  0.25505587  1
  Ir  Ir123  1  0.16259937  0.50017686  0.50117507  1
  Ir  Ir124  1  0.16332569  0.50354787  0.75017946  1
  Ir  Ir125  1  0.00033249  0.00225795  0.49775133  1
  Ir  Ir126  1  0.50733282  0.16313742  -0.00123320  1
  Ir  Ir127  1  0.33209303  0.66812995  -0.00305521  1
  Ir  Ir128  1  0.16269871  0.16910233  0.25259919  1
  Ir  Ir129  1  0.33819873  0.66805609  0.50505770  1
  Ir  Ir130  1  0.33406589  0.67109412  0.74893572  1
  Ir  Ir131  1  0.83246349  0.16537199  -0.00376847  1
  Ir  Ir132  1  0.83901637  0.16458075  0.50230248  1
  Ir  Ir133  1  0.16310823  0.16543860  0.00143925  1
  Ir  Ir134  1  -0.00017889  0.33465297  0.49762559  1
  Ir  Ir135  1  0.00113944  0.00189737  0.00146972  1
  Ir  Ir136  1  0.16065165  0.16799208  0.49129336  1
  Ir  Ir137  1  0.49580511  0.83439452  0.25189542  1
  Ir  Ir138  1  0.83297856  0.49582993  -0.00180558  1
  Ir  Ir139  1  -0.00321184  0.33418028  0.00113641  1
  Ir  Ir140  1  0.67087951  0.33048666  -0.00550801  1
  Ir  Ir141  1  0.49373263  0.50137296  0.25367150  1
  Ir  Ir142  1  0.66308903  -0.00240928  0.75047206  1
  Ir  Ir143  1  0.83870993  0.50073716  0.50391414  1
  O  O144  1  0.31464271  0.33297981  0.13163832  1
  O  O145  1  0.31508699  0.33386617  0.62402911  1
  O  O146  1  0.30135545  0.65807691  0.11696070  1
  O  O147  1  0.31106185  0.66768894  0.62685876  1
  O  O148  1  0.31136438  0.98675022  0.12017805  1
  O  O149  1  0.30985591  0.98167101  0.62872423  1
  O  O150  1  0.64630562  0.32038970  0.11386917  1
  O  O151  1  0.64528978  0.31608472  0.62389081  1
  O  O152  1  0.64964293  0.66830768  0.13199450  1
  O  O153  1  0.62985634  0.65407834  0.62483517  1
  O  O154  1  0.63355499  0.99706558  0.11552815  1
  O  O155  1  0.63561385  0.98761698  0.62899022  1
  O  O156  1  0.97847852  0.33372909  0.12421659  1
  O  O157  1  0.98277441  0.32348446  0.61891419  1
  O  O158  1  0.97691195  0.64840452  0.11879612  1
  O  O159  1  0.98397941  0.65612728  0.62268546  1
  O  O160  1  0.97876145  0.99037800  0.12773387  1
  O  O161  1  0.98362332  0.98519133  0.62274813  1
  O  O162  1  0.18313687  0.16825784  0.13043586  1
  O  O163  1  0.17777605  0.16640419  0.61169355  1
  O  O164  1  0.20464382  0.49556781  0.12100910  1
  O  O165  1  0.18163129  0.50303953  0.62583261  1
  O  O166  1  0.20603467  0.82219659  0.12529550  1
  O  O167  1  0.19419961  0.83653603  0.62811518  1
  O  O168  1  0.53891563  0.15529047  0.11768697  1
  O  O169  1  0.54289797  0.14748640  0.62476622  1
  O  O170  1  0.51408427  0.50044516  0.13278967  1
  O  O171  1  0.53183912  0.49637186  0.61892145  1
  O  O172  1  0.51380487  0.83263259  0.13019974  1
  O  O173  1  0.53187025  0.81968108  0.61978374  1
  O  O174  1  0.85055363  0.16374454  0.11569593  1
  O  O175  1  0.87193383  0.16334222  0.61989368  1
  O  O176  1  0.86411376  0.49342345  0.11650386  1
  O  O177  1  0.87162048  0.49925921  0.62102943  1
  O  O178  1  0.86670428  0.83317999  0.13446809  1
  O  O179  1  0.86954193  0.83227631  0.61979443  1
  O  O180  1  0.14063447  0.18188173  0.37145468  1
  O  O181  1  0.13856632  0.16171324  0.88050522  1
  O  O182  1  0.14755279  0.49732193  0.38028267  1
  O  O183  1  0.13271738  0.50400514  0.86963569  1
  O  O184  1  0.13062871  0.84168964  0.37572183  1
  O  O185  1  0.15090642  0.83422833  0.87155267  1
  O  O186  1  0.46177902  0.17466576  0.37341074  1
  O  O187  1  0.48337374  0.16380184  0.88006034  1
  O  O188  1  0.47288104  0.51761133  0.37756621  1
  O  O189  1  0.46304098  0.51691715  0.87685676  1
  O  O190  1  0.46412849  0.84367425  0.37702147  1
  O  O191  1  0.46020258  0.85197339  0.87415867  1
  O  O192  1  0.82022889  0.16148737  0.38230172  1
  O  O193  1  0.80447148  0.16860640  0.87664364  1
  O  O194  1  0.82114047  0.49922799  0.38396231  1
  O  O195  1  0.80236833  0.50828337  0.88017193  1
  O  O196  1  0.81661202  0.84744618  0.37869760  1
  O  O197  1  0.82514026  0.83775637  0.87651562  1
  O  O198  1  0.03119892  0.00563043  0.37494503  1
  O  O199  1  0.02353491  0.01135375  0.87420079  1
  O  O200  1  0.02957559  0.33758337  0.37098053  1
  O  O201  1  0.01611686  0.34428785  0.88205201  1
  O  O202  1  0.01978415  0.67904622  0.38037197  1
  O  O203  1  0.01841295  0.67137045  0.88504591  1
  O  O204  1  0.36989353  0.02288489  0.37545923  1
  O  O205  1  0.36510082  0.00592166  0.87287912  1
  O  O206  1  0.36102054  0.33117786  0.36999982  1
  O  O207  1  0.36886678  0.34217747  0.87791187  1
  O  O208  1  0.36841704  0.67835589  0.38538335  1
  O  O209  1  0.36467461  0.68238649  0.87334365  1
  O  O210  1  0.70519734  0.00137732  0.37537111  1
  O  O211  1  0.69010549  0.01049936  0.87291384  1
  O  O212  1  0.68789673  0.33830611  0.37666427  1
  O  O213  1  0.70684395  0.34263546  0.87883766  1
  O  O214  1  0.67775605  0.66941713  0.37442297  1
  O  O215  1  0.71081609  0.67203560  0.87382826  1
  O  O216  1  0.07094871  0.09401189  0.01261060  1
  O  O217  1  0.06443484  0.09973791  0.51906989  1
  O  O218  1  0.05972463  0.43320911  0.01816126  1
  O  O219  1  0.06635819  0.43246325  0.52201947  1
  O  O220  1  0.06824301  0.75489359  0.03134001  1
  O  O221  1  0.06377079  0.76400306  0.52315735  1
  O  O222  1  0.41816091  0.08943684  0.02599018  1
  O  O223  1  0.41227123  0.08265470  0.53613237  1
  O  O224  1  0.40142788  0.43424936  0.02553052  1
  O  O225  1  0.40996358  0.43460443  0.51142264  1
  O  O226  1  0.39209358  0.76675082  0.01973594  1
  O  O227  1  0.40411103  0.76339835  0.53091277  1
  O  O228  1  0.73240264  0.09848614  0.01647958  1
  O  O229  1  0.74431282  0.09925727  0.52867037  1
  O  O230  1  0.73610833  0.42862925  0.01730142  1
  O  O231  1  0.74395434  0.43493540  0.52791256  1
  O  O232  1  0.74086163  0.75954390  0.02232701  1
  O  O233  1  0.74107084  0.76752891  0.52358054  1
  O  O234  1  0.09072241  0.26037912  0.01532641  1
  O  O235  1  0.09175007  0.26271921  0.51502826  1
  O  O236  1  0.09571033  0.59756546  0.02638143  1
  O  O237  1  0.08842864  0.59268576  0.52251584  1
  O  O238  1  0.08504748  0.92161062  0.02430734  1
  O  O239  1  0.09078124  0.93235350  0.51169520  1
  O  O240  1  0.43738726  0.25421301  0.01176126  1
  O  O241  1  0.42006633  0.25522792  0.51394280  1
  O  O242  1  0.42213305  0.60181430  0.01745264  1
  O  O243  1  0.43489422  0.60112858  0.52567100  1
  O  O244  1  0.42678553  0.93337088  0.02472226  1
  O  O245  1  0.43032063  0.91992636  0.52589320  1
  O  O246  1  0.75970916  0.25543740  0.01817768  1
  O  O247  1  0.76462369  0.25042311  0.51998844  1
  O  O248  1  0.76772490  0.58633317  0.01832993  1
  O  O249  1  0.76002969  0.58606229  0.51926252  1
  O  O250  1  0.74870409  0.92906875  0.01218737  1
  O  O251  1  0.76080541  0.91958319  0.52319416  1
  O  O252  1  0.23279925  0.07848377  0.27843039  1
  O  O253  1  0.24797229  0.06919428  0.76069333  1
  O  O254  1  0.23682550  0.39509352  0.27492649  1
  O  O255  1  0.23602249  0.41839063  0.77063194  1
  O  O256  1  0.24659023  0.74696399  0.28505832  1
  O  O257  1  0.24186333  0.74453715  0.77075631  1
  O  O258  1  0.56628962  0.06371089  0.27638745  1
  O  O259  1  0.57092656  0.06133461  0.77603921  1
  O  O260  1  0.55981116  0.40969149  0.27490038  1
  O  O261  1  0.56968228  0.39970815  0.78691530  1
  O  O262  1  0.56255956  0.73995538  0.27540228  1
  O  O263  1  0.56086041  0.73059197  0.77461379  1
  O  O264  1  0.90411660  0.06231057  0.26950032  1
  O  O265  1  0.91469257  0.06947851  0.76833402  1
  O  O266  1  0.91500495  0.40375371  0.26099088  1
  O  O267  1  0.89887900  0.39929134  0.77786239  1
  O  O268  1  0.91232288  0.75102925  0.27496143  1
  O  O269  1  0.89709505  0.72852972  0.77150494  1
  O  O270  1  0.26125591  0.23830913  0.27665584  1
  O  O271  1  0.25643035  0.24206710  0.76754050  1
  O  O272  1  0.25973433  0.57615753  0.26393726  1
  O  O273  1  0.26375663  0.57189165  0.77310713  1
  O  O274  1  0.25971606  0.91152053  0.28610583  1
  O  O275  1  0.27016372  0.89908201  0.77123129  1
  O  O276  1  0.58012799  0.24883074  0.27000075  1
  O  O277  1  0.60147517  0.23137328  0.78078549  1
  O  O278  1  0.58394921  0.57962913  0.27542731  1
  O  O279  1  0.59599000  0.56790720  0.78429631  1
  O  O280  1  0.58477488  0.90463689  0.27161935  1
  O  O281  1  0.59357071  0.90787838  0.76968486  1
  O  O282  1  0.92853974  0.24449316  0.26013149  1
  O  O283  1  0.92822745  0.23546700  0.78265997  1
  O  O284  1  0.92487224  0.57560322  0.25776141  1
  O  O285  1  0.92954777  0.56769180  0.78162928  1
  O  O286  1  0.93465045  0.90404696  0.27789162  1
  O  O287  1  0.93579637  0.90558373  0.75710008  1
  O  O288  1  0.25150946  0.23845398  0.46787630  1
  O  O289  1  0.25194669  0.23846546  0.98825400  1
  O  O290  1  0.26217048  0.57619086  0.48478206  1
  O  O291  1  0.27074815  0.57370722  0.97127843  1
  O  O292  1  0.25991473  0.90815490  0.46894900  1
  O  O293  1  0.27085727  0.90603139  0.97756513  1
  O  O294  1  0.58538511  0.24587262  0.47522051  1
  O  O295  1  0.60200649  0.23374808  0.96888495  1
  O  O296  1  0.58729724  0.57274329  0.48191429  1
  O  O297  1  0.59626855  0.56853267  0.97384487  1
  O  O298  1  0.58563545  0.90243346  0.48073993  1
  O  O299  1  0.58687843  0.91682413  0.97235041  1
  O  O300  1  0.93333684  0.23602560  0.48529757  1
  O  O301  1  0.92725431  0.23697644  0.97039522  1
  O  O302  1  0.92977629  0.57442991  0.48348868  1
  O  O303  1  0.93153919  0.56391020  0.97496922  1
  O  O304  1  0.93295810  0.90558732  0.47498335  1
  O  O305  1  0.92943261  0.91235151  0.99593817  1
  O  O306  1  0.23145348  0.07656650  0.46793829  1
  O  O307  1  0.24035968  0.07431991  0.98339053  1
  O  O308  1  0.22861446  0.40493507  0.48027300  1
  O  O309  1  0.24452238  0.41158776  0.96960441  1
  O  O310  1  0.25017712  0.74286437  0.48250440  1
  O  O311  1  0.24195799  0.73641389  0.97961413  1
  O  O312  1  0.56855097  0.06281397  0.47126710  1
  O  O313  1  0.57409360  0.07170674  0.96940185  1
  O  O314  1  0.56148222  0.40942636  0.47339356  1
  O  O315  1  0.57775553  0.39816009  0.96962645  1
  O  O316  1  0.56045199  0.73702623  0.47790859  1
  O  O317  1  0.56525193  0.73408729  0.97372383  1
  O  O318  1  0.90310523  0.06519078  0.47904890  1
  O  O319  1  0.91325862  0.08180869  0.97234540  1
  O  O320  1  0.90875358  0.40575732  0.48316955  1
  O  O321  1  0.90112436  0.40168665  0.97208350  1
  O  O322  1  0.91044306  0.74535753  0.47543584  1
  O  O323  1  0.90663249  0.72873461  0.98508991  1
  O  O324  1  0.09619793  0.26683604  0.23749143  1
  O  O325  1  0.08606819  0.25403453  0.73091928  1
  O  O326  1  0.09596576  0.59385006  0.22107020  1
  O  O327  1  0.09235079  0.59089074  0.73162829  1
  O  O328  1  0.09171448  0.93055637  0.23286243  1
  O  O329  1  0.09671563  0.92483428  0.72732561  1
  O  O330  1  0.41836913  0.26135360  0.23386059  1
  O  O331  1  0.43491715  0.25844014  0.74340701  1
  O  O332  1  0.42446844  0.59112045  0.23357420  1
  O  O333  1  0.43158998  0.60984098  0.73201410  1
  O  O334  1  0.43050310  0.92638058  0.22801284  1
  O  O335  1  0.42658508  0.92718502  0.72003204  1
  O  O336  1  0.75044879  0.24985257  0.23162342  1
  O  O337  1  0.76067022  0.25359018  0.73054558  1
  O  O338  1  0.74935445  0.59433721  0.24281959  1
  O  O339  1  0.75559429  0.58894750  0.71763033  1
  O  O340  1  0.76527187  0.92239485  0.23655300  1
  O  O341  1  0.75190907  0.92736893  0.72985586  1
  O  O342  1  0.07018683  0.09665463  0.23118177  1
  O  O343  1  0.06660980  0.09343420  0.72969224  1
  O  O344  1  0.06866404  0.42827866  0.22475101  1
  O  O345  1  0.06687008  0.43806150  0.73201399  1
  O  O346  1  0.07494937  0.76090313  0.21374731  1
  O  O347  1  0.07264125  0.76991332  0.72961298  1
  O  O348  1  0.41154482  0.08641916  0.21360660  1
  O  O349  1  0.41003295  0.08091843  0.72566454  1
  O  O350  1  0.39716373  0.43282166  0.22855807  1
  O  O351  1  0.40054624  0.43588484  0.74029331  1
  O  O352  1  0.40082041  0.77116275  0.23074867  1
  O  O353  1  0.39665391  0.76573896  0.72510440  1
  O  O354  1  0.73445851  0.09492513  0.21950556  1
  O  O355  1  0.72860084  0.09297703  0.72981903  1
  O  O356  1  0.74116760  0.42600836  0.23211597  1
  O  O357  1  0.72860844  0.43517876  0.72685123  1
  O  O358  1  0.74260436  0.76279332  0.23795021  1
  O  O359  1  0.72921868  0.76961660  0.71805175  1
