# generated using pymatgen
data_BaLaInIrO6
_symmetry_space_group_name_H-M   'P 1'
_cell_length_a   17.54141761
_cell_length_b   17.59138889
_cell_length_c   16.51495240
_cell_angle_alpha   90.03005703
_cell_angle_beta   89.99866237
_cell_angle_gamma   89.99140064
_symmetry_Int_Tables_number   1
_chemical_formula_structural   BaLaInIrO6
_chemical_formula_sum   'Ba36 La36 In36 Ir36 O216'
_cell_volume   5096.14855037
_cell_formula_units_Z   36
loop_
 _symmetry_equiv_pos_site_id
 _symmetry_equiv_pos_as_xyz
  1  'x, y, z'
loop_
 _atom_site_type_symbol
 _atom_site_label
 _atom_site_symmetry_multiplicity
 _atom_site_fract_x
 _atom_site_fract_y
 _atom_site_fract_z
 _atom_site_occupancy
  Ba  Ba0  1  0.16419369  0.98761730  0.87913460  1
  Ba  Ba1  1  0.49679481  0.00837791  0.12641187  1
  Ba  Ba2  1  0.66782613  0.16195833  0.87285433  1
  Ba  Ba3  1  0.66474559  0.84342299  0.62333055  1
  Ba  Ba4  1  0.32796488  0.82544075  0.87992264  1
  Ba  Ba5  1  -0.00359353  0.15340753  0.87375008  1
  Ba  Ba6  1  -0.00504448  0.83024231  0.87551858  1
  Ba  Ba7  1  0.32723355  0.48983385  0.87087396  1
  Ba  Ba8  1  0.66806163  0.17094674  0.62130667  1
  Ba  Ba9  1  0.00101462  0.48997156  0.87592960  1
  Ba  Ba10  1  0.50285483  0.34185334  0.62680343  1
  Ba  Ba11  1  0.82802260  0.34060930  0.12406541  1
  Ba  Ba12  1  0.83581340  0.33785271  0.62708421  1
  Ba  Ba13  1  0.82903317  0.99737701  0.87487481  1
  Ba  Ba14  1  0.67020545  0.50833734  0.12631281  1
  Ba  Ba15  1  0.50161843  0.98916202  0.37505528  1
  Ba  Ba16  1  0.66693928  0.82942639  0.87443329  1
  Ba  Ba17  1  0.83195492  0.00786058  0.62477017  1
  Ba  Ba18  1  0.83005018  0.32645067  0.87608287  1
  Ba  Ba19  1  0.50029352  0.00994842  0.62262961  1
  Ba  Ba20  1  0.33523660  0.51125308  0.62157378  1
  Ba  Ba21  1  0.99819407  0.51269841  0.12722932  1
  Ba  Ba22  1  1.00072743  0.51160781  0.62688308  1
  Ba  Ba23  1  0.66141845  0.49115322  0.37234862  1
  Ba  Ba24  1  0.49628501  0.67534333  0.62149746  1
  Ba  Ba25  1  0.83292443  0.99088233  0.37357439  1
  Ba  Ba26  1  0.50229157  0.67709771  0.13058863  1
  Ba  Ba27  1  0.49814107  0.32255405  0.87246754  1
  Ba  Ba28  1  0.49836005  0.34568737  0.12288247  1
  Ba  Ba29  1  0.50018172  0.65575320  0.37486315  1
  Ba  Ba30  1  0.33578811  0.48977075  0.37395966  1
  Ba  Ba31  1  0.00319568  0.15552285  0.37290580  1
  Ba  Ba32  1  0.82925449  0.67416618  0.12361212  1
  Ba  Ba33  1  0.66609220  0.17070671  0.12571239  1
  Ba  Ba34  1  0.17241482  0.00640822  0.12432438  1
  Ba  Ba35  1  0.66499024  0.84207593  0.12779520  1
  La  La36  1  0.99880929  0.18246156  0.62053003  1
  La  La37  1  0.15807672  0.01514724  0.62888082  1
  La  La38  1  0.17435866  0.97941685  0.37293643  1
  La  La39  1  0.17825647  0.31739422  0.86877958  1
  La  La40  1  0.50631759  0.98715764  0.87332905  1
  La  La41  1  0.32791350  0.15686805  0.87365275  1
  La  La42  1  1.00091900  0.17743641  0.12112752  1
  La  La43  1  0.66399733  0.48584901  0.88125538  1
  La  La44  1  0.33192112  0.81767294  0.37800204  1
  La  La45  1  0.16525221  0.68337667  0.62414230  1
  La  La46  1  0.50528773  0.31860159  0.37451616  1
  La  La47  1  0.82835452  0.67938682  0.62715448  1
  La  La48  1  1.00150168  0.84886344  0.62413527  1
  La  La49  1  0.99859487  0.84697356  0.12779719  1
  La  La50  1  -0.00229213  0.48272805  0.37784640  1
  La  La51  1  0.50110482  0.65251880  0.87474680  1
  La  La52  1  0.17233792  0.64920591  0.37682502  1
  La  La53  1  0.83158469  0.31732513  0.37181488  1
  La  La54  1  0.34050874  0.84555242  0.62710959  1
  La  La55  1  0.16147543  0.34511281  0.12711039  1
  La  La56  1  0.34416348  0.51690861  0.12280423  1
  La  La57  1  0.34371977  0.18330494  0.62093113  1
  La  La58  1  0.65929074  0.82222655  0.37487177  1
  La  La59  1  0.33095602  0.14879124  0.37248101  1
  La  La60  1  0.82897675  0.65563889  0.37646357  1
  La  La61  1  0.83872036  0.65453511  0.87766271  1
  La  La62  1  -0.00461358  0.82101222  0.37363862  1
  La  La63  1  0.34580547  0.18251414  0.12898103  1
  La  La64  1  0.82945155  0.00807597  0.12243372  1
  La  La65  1  0.17543053  0.31731006  0.37512851  1
  La  La66  1  0.34208739  0.84873155  0.12762537  1
  La  La67  1  0.67285451  0.51227500  0.62937676  1
  La  La68  1  0.15996147  0.35216341  0.61837922  1
  La  La69  1  0.15903952  0.68537449  0.12840913  1
  La  La70  1  0.66389254  0.15319979  0.37307458  1
  La  La71  1  0.17331167  0.65453141  0.87580182  1
  In  In72  1  0.66484359  0.33112289  0.25029430  1
  In  In73  1  0.66572313  0.66675306  0.50137261  1
  In  In74  1  0.83269060  0.83511874  0.74935026  1
  In  In75  1  0.66696838  -0.00138969  0.49924250  1
  In  In76  1  0.66633207  0.66951802  0.75035555  1
  In  In77  1  0.66309442  0.00017688  0.00231535  1
  In  In78  1  0.83508433  0.50013304  0.25344319  1
  In  In79  1  0.00448392  0.33281983  0.00084045  1
  In  In80  1  0.83203221  0.83347922  0.00170475  1
  In  In81  1  0.33279425  0.33604235  0.74335280  1
  In  In82  1  0.83636178  0.16507825  0.00080031  1
  In  In83  1  0.16955603  0.50059724  0.00457339  1
  In  In84  1  0.33123217  0.00122381  0.74952865  1
  In  In85  1  0.83462220  0.49956703  0.74892063  1
  In  In86  1  0.00103481  0.67009067  0.74978819  1
  In  In87  1  0.16669914  0.83309998  0.75172236  1
  In  In88  1  0.00226976  0.00164104  0.49554680  1
  In  In89  1  0.16965562  0.49823207  0.25092341  1
  In  In90  1  0.83789494  0.16252976  0.25161440  1
  In  In91  1  0.33484152  0.00103408  -0.00212044  1
  In  In92  1  0.66569955  0.67006804  -0.00226264  1
  In  In93  1  0.66251397  0.33040826  0.00066069  1
  In  In94  1  0.33076986  0.33454423  -0.00088420  1
  In  In95  1  0.83263058  0.50006879  -0.00037556  1
  In  In96  1  0.50062282  0.49573094  0.50028374  1
  In  In97  1  0.00398905  0.66974064  -0.00148509  1
  In  In98  1  0.32934124  0.66969287  0.24887268  1
  In  In99  1  0.33386483  0.66773751  0.75058287  1
  In  In100  1  0.00094933  0.66669543  0.49818455  1
  In  In101  1  0.83505072  0.49726655  0.49888333  1
  In  In102  1  0.16894224  0.16498961  0.00289522  1
  In  In103  1  0.16943369  0.16600653  0.50099273  1
  In  In104  1  0.00548607  0.33139533  0.75205347  1
  In  In105  1  0.66575418  0.33118658  0.74618353  1
  In  In106  1  0.32875319  -0.00134073  0.50165014  1
  In  In107  1  0.16934213  0.16286009  0.24732511  1
  Ir  Ir108  1  0.49707919  0.83509651  0.25230835  1
  Ir  Ir109  1  0.00387872  0.33225377  0.25523911  1
  Ir  Ir110  1  0.49706002  0.17013502  0.49706836  1
  Ir  Ir111  1  0.00397072  -0.00445281  0.24817979  1
  Ir  Ir112  1  0.66704969  -0.00211775  0.25151699  1
  Ir  Ir113  1  0.83537531  0.83189028  0.49422995  1
  Ir  Ir114  1  0.83431646  0.83235797  0.25658625  1
  Ir  Ir115  1  0.49609608  0.83555325  0.74929059  1
  Ir  Ir116  1  0.16465094  0.83463618  0.25378381  1
  Ir  Ir117  1  0.49575884  0.49890432  0.24643704  1
  Ir  Ir118  1  0.49383350  0.83153845  -0.00114881  1
  Ir  Ir119  1  0.00056422  -0.00472748  0.00569172  1
  Ir  Ir120  1  0.16563831  0.50071753  0.49885481  1
  Ir  Ir121  1  0.16758434  0.50204381  0.74397194  1
  Ir  Ir122  1  0.49329148  0.16513542  -0.00023656  1
  Ir  Ir123  1  0.00114779  0.00219193  0.74582990  1
  Ir  Ir124  1  0.00366079  0.67299538  0.25483561  1
  Ir  Ir125  1  0.66617748  0.67314846  0.25321055  1
  Ir  Ir126  1  0.33136132  0.66913998  0.00206390  1
  Ir  Ir127  1  0.83724896  0.16187324  0.74512994  1
  Ir  Ir128  1  0.66798994  0.32993782  0.49741509  1
  Ir  Ir129  1  0.33359886  -0.00380917  0.25419953  1
  Ir  Ir130  1  0.50198165  0.50236716  0.75415242  1
  Ir  Ir131  1  0.49450320  0.83238021  0.49961947  1
  Ir  Ir132  1  0.49448364  0.50558251  -0.00136692  1
  Ir  Ir133  1  0.66226136  0.00223158  0.74930018  1
  Ir  Ir134  1  0.32658063  0.66879698  0.49912096  1
  Ir  Ir135  1  0.16752873  0.83246633  0.49819811  1
  Ir  Ir136  1  0.16900577  0.16626065  0.74576161  1
  Ir  Ir137  1  0.49468135  0.16492784  0.74666686  1
  Ir  Ir138  1  0.33508579  0.33031333  0.25347342  1
  Ir  Ir139  1  0.33339880  0.33083312  0.49434837  1
  Ir  Ir140  1  0.00450652  0.33231405  0.49488293  1
  Ir  Ir141  1  0.49588603  0.16545540  0.25253385  1
  Ir  Ir142  1  0.83461388  0.16929563  0.49851368  1
  Ir  Ir143  1  0.16761797  0.83140889  0.00820579  1
  O  O144  1  0.30214306  0.32037786  0.13326846  1
  O  O145  1  0.29936586  0.32146126  0.61472550  1
  O  O146  1  0.29877393  0.66023716  0.12191818  1
  O  O147  1  0.30276124  0.66903860  0.61910484  1
  O  O148  1  0.32118152  0.98722328  0.13264320  1
  O  O149  1  0.29578455  0.98622243  0.62378553  1
  O  O150  1  0.64490849  0.32762378  0.12611822  1
  O  O151  1  0.64995294  0.32441637  0.61590089  1
  O  O152  1  0.65010333  0.67010478  0.13441642  1
  O  O153  1  0.64179766  0.65378053  0.62549716  1
  O  O154  1  0.64554627  1.00006043  0.13401042  1
  O  O155  1  0.64940317  1.00501952  0.62756355  1
  O  O156  1  0.97866350  0.32111101  0.13958863  1
  O  O157  1  0.98966075  0.32534462  0.61640116  1
  O  O158  1  0.98249188  0.67271070  0.13747445  1
  O  O159  1  0.96689566  0.66803270  0.62091642  1
  O  O160  1  0.97019596  0.98682595  0.12845094  1
  O  O161  1  0.98690005  0.99170009  0.62526365  1
  O  O162  1  0.21139783  0.16041378  0.12850158  1
  O  O163  1  0.20592174  0.15226665  0.62692949  1
  O  O164  1  0.21012404  0.48470272  0.12970502  1
  O  O165  1  0.18912734  0.48621450  0.62031173  1
  O  O166  1  0.20174254  0.82367549  0.13305687  1
  O  O167  1  0.20372943  0.82160055  0.61523433  1
  O  O168  1  0.51667498  0.16246677  0.12569291  1
  O  O169  1  0.51924482  0.16535119  0.62231940  1
  O  O170  1  0.51539908  0.50483853  0.12237699  1
  O  O171  1  0.53168588  0.50034622  0.63401181  1
  O  O172  1  0.51478909  0.83141589  0.12376015  1
  O  O173  1  0.51686951  0.82948572  0.62538977  1
  O  O174  1  0.86604033  0.14999787  0.12923766  1
  O  O175  1  0.86247297  0.16388978  0.61999695  1
  O  O176  1  0.85042393  0.50140470  0.12993886  1
  O  O177  1  0.85465159  0.49042806  0.62122688  1
  O  O178  1  0.86305415  0.82943513  0.13853687  1
  O  O179  1  0.86722950  0.82445882  0.61361240  1
  O  O180  1  0.15097448  0.17971555  0.37297343  1
  O  O181  1  0.14346833  0.17974259  0.86487147  1
  O  O182  1  0.13518479  0.51035981  0.37914414  1
  O  O183  1  0.15161397  0.51619088  0.86586198  1
  O  O184  1  0.13130454  0.84493322  0.37600032  1
  O  O185  1  0.14721130  0.83089963  0.88736863  1
  O  O186  1  0.46502639  0.17619181  0.37484659  1
  O  O187  1  0.46341463  0.16571901  0.87373803  1
  O  O188  1  0.48398650  0.49907045  0.36717943  1
  O  O189  1  0.47136590  0.51380952  0.87715424  1
  O  O190  1  0.46652724  0.83453586  0.37568334  1
  O  O191  1  0.47385000  0.84965218  0.87382138  1
  O  O192  1  0.80901206  0.17579830  0.37909517  1
  O  O193  1  0.82630684  0.16338166  0.86602750  1
  O  O194  1  0.81273303  0.51791254  0.37620522  1
  O  O195  1  0.79820451  0.51398007  0.87172249  1
  O  O196  1  0.80072667  0.83664522  0.37546675  1
  O  O197  1  0.81869428  0.84871463  0.87443707  1
  O  O198  1  0.03779875  -0.00038988  0.36842135  1
  O  O199  1  0.01876851  -0.00076826  0.88000442  1
  O  O200  1  0.03885235  0.33972083  0.37500343  1
  O  O201  1  0.04358913  0.32780641  0.87455386  1
  O  O202  1  0.03772588  0.68479287  0.37197265  1
  O  O203  1  0.04371957  0.67796809  0.87382583  1
  O  O204  1  0.35247395  0.00735529  0.37378192  1
  O  O205  1  0.36873662  0.01310604  0.87292419  1
  O  O206  1  0.36923303  0.33577678  0.37368002  1
  O  O207  1  0.34738487  0.33328206  0.86957002  1
  O  O208  1  0.34825340  0.67888223  0.37923084  1
  O  O209  1  0.36234282  0.67269557  0.88201333  1
  O  O210  1  0.68302896  0.00652397  0.37135466  1
  O  O211  1  0.67293694  0.00024668  0.86981524  1
  O  O212  1  0.69318070  0.33124744  0.38006679  1
  O  O213  1  0.67445843  0.34032645  0.87239314  1
  O  O214  1  0.69010468  0.68114041  0.37379226  1
  O  O215  1  0.70107005  0.67482493  0.87191343  1
  O  O216  1  0.06697350  0.09128186  0.02405332  1
  O  O217  1  0.07187532  0.09735945  0.52947667  1
  O  O218  1  0.07976226  0.42337467  0.03398496  1
  O  O219  1  0.07034540  0.43021017  0.51421953  1
  O  O220  1  0.07751127  0.76555108  0.03772734  1
  O  O221  1  0.07371401  0.76918397  0.52418062  1
  O  O222  1  0.40126752  0.10184839  0.02370450  1
  O  O223  1  0.39863413  0.10442323  0.51583046  1
  O  O224  1  0.40043521  0.43667991  0.02189741  1
  O  O225  1  0.40291416  0.42070748  0.51557032  1
  O  O226  1  0.39687913  0.76376003  0.02719466  1
  O  O227  1  0.39204857  0.76713192  0.51860443  1
  O  O228  1  0.74544490  0.08668935  0.01717401  1
  O  O229  1  0.74175299  0.10057128  0.50317097  1
  O  O230  1  0.73182977  0.42942777  0.00368922  1
  O  O231  1  0.72713965  0.42750096  0.51931244  1
  O  O232  1  0.73556839  0.76484332  0.01867873  1
  O  O233  1  0.74693744  0.76369676  0.51510151  1
  O  O234  1  0.09826147  0.25684671  0.03978386  1
  O  O235  1  0.10186514  0.26833272  0.51805223  1
  O  O236  1  0.10455182  0.60165158  0.02784987  1
  O  O237  1  0.10813691  0.60104695  0.51959328  1
  O  O238  1  0.09445663  0.92236892  0.02848834  1
  O  O239  1  0.10556125  0.92819117  0.52497772  1
  O  O240  1  0.42233319  0.25490855  0.02176735  1
  O  O241  1  0.42628775  0.26245308  0.51874745  1
  O  O242  1  0.42321897  0.59945403  0.02358186  1
  O  O243  1  0.41647281  0.59612199  0.51170156  1
  O  O244  1  0.42345728  0.91990120  0.01756236  1
  O  O245  1  0.41962090  0.91883401  0.52136345  1
  O  O246  1  0.75695280  0.25388304  0.01138010  1
  O  O247  1  0.77013660  0.26805047  0.50704087  1
  O  O248  1  0.75444524  0.59305992  0.01562380  1
  O  O249  1  0.77168463  0.60475818  0.51670413  1
  O  O250  1  0.76284001  0.93158298  0.02745745  1
  O  O251  1  0.76461858  0.92151942  0.51338807  1
  O  O252  1  0.24029241  0.06288222  0.27890257  1
  O  O253  1  0.23485642  0.07764111  0.77274073  1
  O  O254  1  0.23997019  0.39383001  0.27736843  1
  O  O255  1  0.22942524  0.40296977  0.76046119  1
  O  O256  1  0.22932023  0.74273877  0.27922224  1
  O  O257  1  0.23022044  0.72905639  0.76853767  1
  O  O258  1  0.57792550  0.07824206  0.27729801  1
  O  O259  1  0.56288226  0.07006176  0.77073778  1
  O  O260  1  0.56128905  0.40260121  0.26977008  1
  O  O261  1  0.57060982  0.41554605  0.77077525  1
  O  O262  1  0.57378580  0.74859508  0.27631876  1
  O  O263  1  0.56072202  0.74157563  0.77402727  1
  O  O264  1  0.91451656  0.06351303  0.26692055  1
  O  O265  1  0.90813034  0.06851283  0.75910804  1
  O  O266  1  0.91632925  0.40442575  0.28516751  1
  O  O267  1  0.91168607  0.40319204  0.76853802  1
  O  O268  1  0.90537344  0.73935232  0.28490444  1
  O  O269  1  0.90082833  0.73612902  0.77516182  1
  O  O270  1  0.27224710  0.23690042  0.27945712  1
  O  O271  1  0.26117701  0.23235415  0.76861400  1
  O  O272  1  0.25405480  0.57938526  0.27672739  1
  O  O273  1  0.25761790  0.57034756  0.75871316  1
  O  O274  1  0.26495868  0.89909493  0.27870985  1
  O  O275  1  0.25996231  0.90463060  0.76641340  1
  O  O276  1  0.58600326  0.23437894  0.28220787  1
  O  O277  1  0.58356611  0.23599778  0.76069540  1
  O  O278  1  0.59366607  0.57840625  0.26566145  1
  O  O279  1  0.59169926  0.57100605  0.78206396  1
  O  O280  1  0.59549205  0.90325266  0.27597443  1
  O  O281  1  0.58607024  0.91215512  0.76971808  1
  O  O282  1  0.92848915  0.24755774  0.27839853  1
  O  O283  1  0.93217174  0.22830395  0.74804867  1
  O  O284  1  0.94028492  0.57967044  0.28138056  1
  O  O285  1  0.92529369  0.57878351  0.77606894  1
  O  O286  1  0.93755188  0.89580023  0.27167052  1
  O  O287  1  0.93637544  0.90720346  0.74944939  1
  O  O288  1  0.27060813  0.23660821  0.47142079  1
  O  O289  1  0.26146640  0.23719800  0.96807298  1
  O  O290  1  0.25711483  0.57416579  0.47526616  1
  O  O291  1  0.26533125  0.57868041  0.98060197  1
  O  O292  1  0.25872113  0.89718373  0.46766813  1
  O  O293  1  0.25715531  0.90263005  0.99645297  1
  O  O294  1  0.59731171  0.23475529  0.46929626  1
  O  O295  1  0.58071604  0.23403611  0.98347389  1
  O  O296  1  0.59174418  0.57088732  0.48675151  1
  O  O297  1  0.58476420  0.57498291  0.97153541  1
  O  O298  1  0.58904483  0.90260485  0.47887047  1
  O  O299  1  0.58184900  0.90614742  0.98356346  1
  O  O300  1  0.93659748  0.23531574  0.48620799  1
  O  O301  1  0.93817340  0.23053155  0.99847357  1
  O  O302  1  0.93925154  0.56660926  0.46980886  1
  O  O303  1  0.92610740  0.57940254  0.97898348  1
  O  O304  1  0.93291749  0.89836888  0.47718752  1
  O  O305  1  0.93734567  0.90159264  1.00135050  1
  O  O306  1  0.23019480  0.06367483  0.47231875  1
  O  O307  1  0.24399131  0.07514824  0.97305812  1
  O  O308  1  0.23172247  0.39624593  0.47765651  1
  O  O309  1  0.22964468  0.39798231  0.97521573  1
  O  O310  1  0.23048779  0.73659392  0.47209969  1
  O  O311  1  0.23250549  0.73323729  0.98393396  1
  O  O312  1  0.57243965  0.08327228  0.47809129  1
  O  O313  1  0.56042471  0.07121515  0.97880406  1
  O  O314  1  0.57008491  0.39033708  0.47779770  1
  O  O315  1  0.56430627  0.41813611  0.97922378  1
  O  O316  1  0.57316081  0.74982341  0.47890600  1
  O  O317  1  0.55798447  0.73819098  0.97620302  1
  O  O318  1  0.90446672  0.07777648  0.48344050  1
  O  O319  1  0.90914846  0.05966070  0.99433098  1
  O  O320  1  0.90953633  0.39574350  0.46621125  1
  O  O321  1  0.90941344  0.40480648  0.98412054  1
  O  O322  1  0.90361754  0.74168221  0.46558405  1
  O  O323  1  0.90461200  0.73730689  0.97753887  1
  O  O324  1  0.09675011  0.26388472  0.22924789  1
  O  O325  1  0.10485271  0.25756220  0.71443551  1
  O  O326  1  0.09837999  0.60765126  0.23273426  1
  O  O327  1  0.10575140  0.59867654  0.72204915  1
  O  O328  1  0.09505390  0.92473675  0.22730391  1
  O  O329  1  0.09473888  0.93469070  0.72590618  1
  O  O330  1  0.42704934  0.25812829  0.22914323  1
  O  O331  1  0.42206921  0.25269743  0.72296385  1
  O  O332  1  0.42051935  0.58812841  0.23042776  1
  O  O333  1  0.43250725  0.59442175  0.74005594  1
  O  O334  1  0.42456430  0.92335762  0.23081785  1
  O  O335  1  0.42622576  0.92408828  0.72750009  1
  O  O336  1  0.75966290  0.25329728  0.24277027  1
  O  O337  1  0.76392816  0.24958265  0.73601639  1
  O  O338  1  0.75922461  0.60694796  0.24704469  1
  O  O339  1  0.75995535  0.59377660  0.71285073  1
  O  O340  1  0.76427591  0.92914015  0.22801792  1
  O  O341  1  0.75059361  0.93040726  0.73317800  1
  O  O342  1  0.06748517  0.09097148  0.22241264  1
  O  O343  1  0.07344108  0.09902096  0.71875025  1
  O  O344  1  0.07543317  0.42175254  0.23231050  1
  O  O345  1  0.08176543  0.42900169  0.72829547  1
  O  O346  1  0.06865561  0.77024206  0.22835746  1
  O  O347  1  0.07317366  0.76638389  0.71171426  1
  O  O348  1  0.39581819  0.09804042  0.23467756  1
  O  O349  1  0.40061812  0.10062871  0.72253674  1
  O  O350  1  0.39937188  0.43131187  0.22409674  1
  O  O351  1  0.41203499  0.43081474  0.73100603  1
  O  O352  1  0.39928734  0.76976009  0.23428209  1
  O  O353  1  0.40214631  0.76939752  0.72903317  1
  O  O354  1  0.74220713  0.08295614  0.23516459  1
  O  O355  1  0.73683253  0.09199217  0.73512498  1
  O  O356  1  0.74328552  0.42262359  0.24313780  1
  O  O357  1  0.72983064  0.43220607  0.72910688  1
  O  O358  1  0.73258125  0.77089707  0.24612247  1
  O  O359  1  0.74518078  0.75809854  0.71639944  1
