# generated using pymatgen
data_BaLaInIrO6
_symmetry_space_group_name_H-M   'P 1'
_cell_length_a   17.52894618
_cell_length_b   17.54830636
_cell_length_c   16.49898375
_cell_angle_alpha   90.01829163
_cell_angle_beta   89.99659750
_cell_angle_gamma   89.99345783
_symmetry_Int_Tables_number   1
_chemical_formula_structural   BaLaInIrO6
_chemical_formula_sum   'Ba36 La36 In36 Ir36 O216'
_cell_volume   5075.14184150
_cell_formula_units_Z   36
loop_
 _symmetry_equiv_pos_site_id
 _symmetry_equiv_pos_as_xyz
  1  'x, y, z'
loop_
 _atom_site_type_symbol
 _atom_site_label
 _atom_site_symmetry_multiplicity
 _atom_site_fract_x
 _atom_site_fract_y
 _atom_site_fract_z
 _atom_site_occupancy
  Ba  Ba0  1  0.16598361  0.33933376  0.63021488  1
  Ba  Ba1  1  0.66547284  0.82034268  0.37787695  1
  Ba  Ba2  1  0.66704256  0.84028990  0.62199313  1
  Ba  Ba3  1  0.49767595  0.68303730  0.62285754  1
  Ba  Ba4  1  0.50443823  0.98986593  0.87577444  1
  Ba  Ba5  1  0.33476820  0.84182917  0.62381765  1
  Ba  Ba6  1  0.50415162  0.66072613  0.37674073  1
  Ba  Ba7  1  0.83262760  0.99292484  0.37252452  1
  Ba  Ba8  1  1.00481078  0.50854708  0.12036204  1
  Ba  Ba9  1  0.16646813  0.65915439  0.87311804  1
  Ba  Ba10  1  0.16448379  0.67556090  0.63408112  1
  Ba  Ba11  1  0.32921637  0.15791942  0.87783799  1
  Ba  Ba12  1  0.00274640  0.16092032  0.37197002  1
  Ba  Ba13  1  0.83453924  0.00476690  0.61980492  1
  Ba  Ba14  1  0.16543697  0.00603112  0.62407642  1
  Ba  Ba15  1  0.00064267  0.82764008  0.37858975  1
  Ba  Ba16  1  0.83287451  0.67855859  0.62464845  1
  Ba  Ba17  1  0.83369412  0.31895035  0.87447966  1
  Ba  Ba18  1  0.33529985  0.51602278  0.12467251  1
  Ba  Ba19  1  0.49643308  0.34846300  0.62821467  1
  Ba  Ba20  1  0.33375047  0.49704766  0.87292133  1
  Ba  Ba21  1  0.66338900  0.83773610  0.12791075  1
  Ba  Ba22  1  0.33895170  0.18752461  0.12528206  1
  Ba  Ba23  1  0.82793418  0.33674224  0.12545147  1
  Ba  Ba24  1  0.16684528  0.34263938  0.12492540  1
  Ba  Ba25  1  0.66375208  0.49409980  0.37835661  1
  Ba  Ba26  1  1.00206806  0.17106447  0.62457669  1
  Ba  Ba27  1  0.67113424  0.50166577  0.13182597  1
  Ba  Ba28  1  0.66336514  0.15465893  0.87611771  1
  Ba  Ba29  1  0.33748670  0.51569944  0.62546316  1
  Ba  Ba30  1  0.66951210  0.82590316  0.87353120  1
  Ba  Ba31  1  0.49433026  0.35160266  0.12321316  1
  Ba  Ba32  1  -0.00017779  0.15553737  0.87369757  1
  Ba  Ba33  1  0.66099632  0.17348989  0.12410397  1
  Ba  Ba34  1  0.66612374  0.51541974  0.62418915  1
  Ba  Ba35  1  0.49926843  0.32746173  0.37747808  1
  La  La36  1  1.00446389  0.18188653  0.12302762  1
  La  La37  1  0.83365777  0.65204401  0.38009280  1
  La  La38  1  0.33325118  0.82244185  0.87017746  1
  La  La39  1  1.00334596  0.84900375  0.62852507  1
  La  La40  1  0.33393256  0.48452136  0.37251054  1
  La  La41  1  0.82919344  0.34659878  0.62310084  1
  La  La42  1  1.00581624  0.51563992  0.62773747  1
  La  La43  1  0.33969479  0.84226489  0.12314031  1
  La  La44  1  0.99764664  0.84184193  0.12467795  1
  La  La45  1  0.17201748  0.97853209  0.87364944  1
  La  La46  1  0.16355050  0.01159503  0.12049872  1
  La  La47  1  0.66409971  0.16321623  0.37423347  1
  La  La48  1  -0.00262228  0.47918500  0.86933304  1
  La  La49  1  0.82766348  0.99462363  0.86718191  1
  La  La50  1  0.83139413  0.31889590  0.37303768  1
  La  La51  1  -0.00187683  0.48435220  0.38031064  1
  La  La52  1  0.50354792  0.98593711  0.37443324  1
  La  La53  1  0.66444982  0.48607527  0.87806798  1
  La  La54  1  0.82671865  0.67400008  0.12738574  1
  La  La55  1  0.32890545  0.81478762  0.37646863  1
  La  La56  1  0.33787954  0.18303657  0.62751271  1
  La  La57  1  0.82786923  0.01168490  0.12481126  1
  La  La58  1  0.83976447  0.64733901  0.87188798  1
  La  La59  1  0.16750303  0.32504893  0.88071490  1
  La  La60  1  0.32580378  0.15108892  0.37418474  1
  La  La61  1  0.51248089  0.66541186  0.12958996  1
  La  La62  1  0.49742374  0.66909476  0.86756868  1
  La  La63  1  0.17535912  0.31697017  0.37492235  1
  La  La64  1  0.16931692  0.97995509  0.37622143  1
  La  La65  1  0.16133173  0.68223557  0.12087355  1
  La  La66  1  0.49943275  0.00627559  0.62634490  1
  La  La67  1  0.67085490  0.17515939  0.62690154  1
  La  La68  1  0.49591043  0.01677588  0.12508113  1
  La  La69  1  0.17387377  0.65102737  0.37519802  1
  La  La70  1  0.50648658  0.31916747  0.87551173  1
  La  La71  1  -0.00640892  0.81941164  0.87427356  1
  In  In72  1  0.16867361  0.16188821  0.24678266  1
  In  In73  1  0.49979143  0.50603258  0.75190603  1
  In  In74  1  0.66661769  -0.00233994  0.24955870  1
  In  In75  1  -0.00016521  -0.00182315  0.24531416  1
  In  In76  1  0.66719828  0.33389932  0.74793623  1
  In  In77  1  0.67136953  0.66489284  -0.00452512  1
  In  In78  1  0.16756117  0.50353299  -0.00142353  1
  In  In79  1  -0.00235613  -0.00450746  -0.00173478  1
  In  In80  1  0.83696342  0.50008735  0.00038353  1
  In  In81  1  0.49475218  0.16478490  -0.00055744  1
  In  In82  1  0.49925514  0.83051964  -0.00110154  1
  In  In83  1  0.66180147  0.33256294  0.25204321  1
  In  In84  1  0.16655794  0.50221375  0.24922609  1
  In  In85  1  0.83836070  0.49771257  0.25524249  1
  In  In86  1  0.66334189  0.33344546  0.50081629  1
  In  In87  1  0.49977530  0.16407346  0.74693167  1
  In  In88  1  0.00172624  0.33430640  0.25253167  1
  In  In89  1  0.33471717  0.33339217  0.50171929  1
  In  In90  1  0.16547235  0.49834441  0.50173740  1
  In  In91  1  0.33252270  -0.00036336  0.74914479  1
  In  In92  1  0.66514607  0.00289376  0.49959926  1
  In  In93  1  0.33221298  -0.00320798  0.24909093  1
  In  In94  1  0.83343345  0.16157944  -0.00173393  1
  In  In95  1  0.00080825  0.33104239  0.50346242  1
  In  In96  1  0.16683777  0.16321693  -0.00106359  1
  In  In97  1  0.16871577  0.83024531  0.50355694  1
  In  In98  1  0.49720756  0.83149152  0.24951539  1
  In  In99  1  0.83408861  0.83169216  0.00094069  1
  In  In100  1  0.00322083  0.00275624  0.49641809  1
  In  In101  1  0.50001350  0.50688338  -0.00287192  1
  In  In102  1  0.66543319  0.33278826  -0.00066655  1
  In  In103  1  0.00341530  0.66734937  0.25200000  1
  In  In104  1  0.16595463  0.16446487  0.74990282  1
  In  In105  1  0.83495466  0.83207963  0.49858195  1
  In  In106  1  0.16736178  0.49855278  0.75201520  1
  In  In107  1  0.00293197  0.66923084  0.50001770  1
  Ir  Ir108  1  0.66964331  0.66576925  0.25302466  1
  Ir  Ir109  1  0.33630506  0.33604785  0.25179749  1
  Ir  Ir110  1  0.49110997  0.16684554  0.25610931  1
  Ir  Ir111  1  0.66546019  -0.00291210  0.00301043  1
  Ir  Ir112  1  0.33539558  0.66677250  0.49541858  1
  Ir  Ir113  1  0.83509204  0.50008378  0.74657860  1
  Ir  Ir114  1  0.49543432  0.83781482  0.49969911  1
  Ir  Ir115  1  0.67450037  0.66850443  0.75009516  1
  Ir  Ir116  1  0.83570524  0.82652738  0.24965782  1
  Ir  Ir117  1  -0.00150804  0.66847030  -0.00306509  1
  Ir  Ir118  1  0.50212452  0.83558241  0.74722905  1
  Ir  Ir119  1  0.83433304  0.16207552  0.74310295  1
  Ir  Ir120  1  0.33450163  0.33856706  -0.00355676  1
  Ir  Ir121  1  0.83159885  0.16965414  0.50019319  1
  Ir  Ir122  1  -0.00670284  0.33125953  0.74903267  1
  Ir  Ir123  1  0.66702272  -0.00232303  0.74818228  1
  Ir  Ir124  1  0.16739109  0.83183035  0.00280954  1
  Ir  Ir125  1  0.83364889  0.16345868  0.25066888  1
  Ir  Ir126  1  0.66633784  0.66685761  0.50248410  1
  Ir  Ir127  1  0.17376663  0.16382401  0.49895444  1
  Ir  Ir128  1  0.83437444  0.49896255  0.50213246  1
  Ir  Ir129  1  0.83573251  0.83473656  0.75240734  1
  Ir  Ir130  1  0.16224588  0.83184344  0.75624086  1
  Ir  Ir131  1  -0.00404872  0.66739451  0.75483073  1
  Ir  Ir132  1  0.49585717  0.16214404  0.49796418  1
  Ir  Ir133  1  0.00058206  0.33124251  -0.00214855  1
  Ir  Ir134  1  0.00140958  -0.00469853  0.75249948  1
  Ir  Ir135  1  0.32966246  0.67039601  0.25019530  1
  Ir  Ir136  1  0.32975129  -0.00804688  0.00074798  1
  Ir  Ir137  1  0.33380779  0.67501894  0.74984845  1
  Ir  Ir138  1  0.32982956  0.67597168  0.00214491  1
  Ir  Ir139  1  0.33402102  0.33303360  0.75457660  1
  Ir  Ir140  1  0.17144879  0.83145400  0.24488315  1
  Ir  Ir141  1  0.49691278  0.50854195  0.25262807  1
  Ir  Ir142  1  0.33692227  0.00219554  0.49744777  1
  Ir  Ir143  1  0.49705853  0.50699064  0.49883682  1
  O  O144  1  0.31550014  0.34296323  0.12176429  1
  O  O145  1  0.31621489  0.32896818  0.63107408  1
  O  O146  1  0.29940085  0.67451173  0.12573886  1
  O  O147  1  0.31300056  0.67117915  0.62154200  1
  O  O148  1  0.29839669  0.98219297  0.11961477  1
  O  O149  1  0.31367705  0.99551323  0.61603986  1
  O  O150  1  0.64545597  0.33414738  0.12709607  1
  O  O151  1  0.64443707  0.31466112  0.62342139  1
  O  O152  1  0.64922484  0.66110703  0.13120555  1
  O  O153  1  0.64657876  0.67098075  0.62826831  1
  O  O154  1  0.63436126  0.99647352  0.12312157  1
  O  O155  1  0.63758250  1.00040281  0.62736117  1
  O  O156  1  0.97923318  0.32617071  0.11962030  1
  O  O157  1  0.96381258  0.32571848  0.62978760  1
  O  O158  1  0.96723635  0.66537016  0.11667999  1
  O  O159  1  0.97872470  0.65517124  0.63478409  1
  O  O160  1  0.96364412  0.97971549  0.12364608  1
  O  O161  1  0.98691614  0.99097114  0.63109815  1
  O  O162  1  0.19594112  0.14936046  0.12157065  1
  O  O163  1  0.20081291  0.16123573  0.62062379  1
  O  O164  1  0.18530361  0.49740332  0.12277288  1
  O  O165  1  0.18736424  0.49408574  0.62844828  1
  O  O166  1  0.20360333  0.82255099  0.12351704  1
  O  O167  1  0.18547237  0.83393305  0.63582870  1
  O  O168  1  0.50876774  0.15681674  0.13307675  1
  O  O169  1  0.53094073  0.15047786  0.61569684  1
  O  O170  1  0.51534938  0.51414111  0.13007854  1
  O  O171  1  0.51237814  0.50611922  0.62126687  1
  O  O172  1  0.50829091  0.80549138  0.12440331  1
  O  O173  1  0.51961984  0.84511121  0.62274192  1
  O  O174  1  0.86659472  0.15355202  0.13081223  1
  O  O175  1  0.85568700  0.16204175  0.62154843  1
  O  O176  1  0.85499836  0.50143151  0.12773800  1
  O  O177  1  0.86926937  0.48872135  0.62376161  1
  O  O178  1  0.86311137  0.81128331  0.13019633  1
  O  O179  1  0.86490700  0.83116936  0.63338729  1
  O  O180  1  0.15617462  0.17557782  0.37822283  1
  O  O181  1  0.15116746  0.18578028  0.87555536  1
  O  O182  1  0.13501737  0.51596841  0.37586843  1
  O  O183  1  0.13478004  0.50064376  0.87478251  1
  O  O184  1  0.15171021  0.84031016  0.36551361  1
  O  O185  1  0.13193862  0.83985379  0.88115439  1
  O  O186  1  0.46048353  0.17097170  0.37852138  1
  O  O187  1  0.47793075  0.16215177  0.87313586  1
  O  O188  1  0.46894872  0.50730926  0.37517948  1
  O  O189  1  0.47940973  0.53466291  0.87457436  1
  O  O190  1  0.46591019  0.84341189  0.37827962  1
  O  O191  1  0.47515839  0.82974833  0.86874409  1
  O  O192  1  0.80092099  0.17507640  0.37688247  1
  O  O193  1  0.81540566  0.15452404  0.86271982  1
  O  O194  1  0.81087306  0.51303799  0.38569444  1
  O  O195  1  0.80426516  0.50763428  0.86563299  1
  O  O196  1  0.81526453  0.83742544  0.36654164  1
  O  O197  1  0.81980082  0.85087576  0.87185400  1
  O  O198  1  0.03223810  -0.00012476  0.36852048  1
  O  O199  1  0.03142855  -0.00647994  0.87154522  1
  O  O200  1  0.04011734  0.33899173  0.38045867  1
  O  O201  1  0.02802023  0.33836988  0.87250431  1
  O  O202  1  0.04264885  0.67856265  0.37553920  1
  O  O203  1  0.02135096  0.68286346  0.87608851  1
  O  O204  1  0.36664799  0.01090047  0.37896716  1
  O  O205  1  0.35325452  -0.00796495  0.88210679  1
  O  O206  1  0.35193019  0.33854556  0.37196601  1
  O  O207  1  0.36604009  0.33261207  0.87566052  1
  O  O208  1  0.35643822  0.67910050  0.37210542  1
  O  O209  1  0.35998132  0.68327869  0.87676968  1
  O  O210  1  0.68230348  0.02442708  0.37321908  1
  O  O211  1  0.69426427  -0.00136585  0.87671782  1
  O  O212  1  0.68988971  0.31983104  0.37825933  1
  O  O213  1  0.68822506  0.34659224  0.87105316  1
  O  O214  1  0.69585244  0.66438577  0.37782118  1
  O  O215  1  0.70440024  0.67111937  0.86660449  1
  O  O216  1  0.06607291  0.09295589  0.02671599  1
  O  O217  1  0.08300120  0.09666999  0.51299256  1
  O  O218  1  0.07256737  0.41867791  0.00665138  1
  O  O219  1  0.05921813  0.43477015  0.52467790  1
  O  O220  1  0.06877703  0.76510448  0.02754159  1
  O  O221  1  0.06669204  0.76982396  0.53189816  1
  O  O222  1  0.39976785  0.08195288  0.02551646  1
  O  O223  1  0.39889645  0.09930242  0.52446263  1
  O  O224  1  0.40191359  0.43125262  0.00946357  1
  O  O225  1  0.40550731  0.43559107  0.50560859  1
  O  O226  1  0.38632757  0.77510245  0.00841222  1
  O  O227  1  0.40145993  0.76668885  0.50908182  1
  O  O228  1  0.73667275  0.08352532  0.02272535  1
  O  O229  1  0.73373254  0.10685650  0.51994157  1
  O  O230  1  0.73791674  0.43226240  0.00588646  1
  O  O231  1  0.74696076  0.42579955  0.52333605  1
  O  O232  1  0.74107103  0.76062447  0.02148172  1
  O  O233  1  0.73844120  0.75348720  0.51247643  1
  O  O234  1  0.08675298  0.25710202  0.02068219  1
  O  O235  1  0.10519417  0.25579027  0.51525909  1
  O  O236  1  0.09362262  0.60623406  0.02132842  1
  O  O237  1  0.09275493  0.59352960  0.52500118  1
  O  O238  1  0.10406923  0.92605958  0.02623570  1
  O  O239  1  0.10298421  0.93010593  0.50377491  1
  O  O240  1  0.42341681  0.26749269  0.00997429  1
  O  O241  1  0.42817346  0.25269256  0.52550893  1
  O  O242  1  0.42867601  0.61695239  0.02090825  1
  O  O243  1  0.42729745  0.59903243  0.51474713  1
  O  O244  1  0.42530260  0.92895017  0.02949705  1
  O  O245  1  0.43448857  0.93928010  0.51821730  1
  O  O246  1  0.75698801  0.25077422  0.01266599  1
  O  O247  1  0.76604573  0.26109281  0.52397128  1
  O  O248  1  0.78073219  0.60769956  0.01077428  1
  O  O249  1  0.76301717  0.59474988  0.51878774  1
  O  O250  1  0.76426338  0.93390030  0.02097000  1
  O  O251  1  0.75483417  0.92343632  0.51044047  1
  O  O252  1  0.23459919  0.06273422  0.27785387  1
  O  O253  1  0.23382556  0.06515465  0.77712242  1
  O  O254  1  0.24163212  0.40214743  0.27736384  1
  O  O255  1  0.23801592  0.39710632  0.77949851  1
  O  O256  1  0.23131117  0.73272661  0.27316924  1
  O  O257  1  0.24327458  0.75028473  0.77839012  1
  O  O258  1  0.55510718  0.07062455  0.26787368  1
  O  O259  1  0.57591333  0.06495164  0.75938181  1
  O  O260  1  0.56592214  0.41652784  0.26761070  1
  O  O261  1  0.57227630  0.41189824  0.77602298  1
  O  O262  1  0.57671113  0.73528779  0.26080522  1
  O  O263  1  0.57421458  0.73605454  0.76972724  1
  O  O264  1  0.90507731  0.07626474  0.26641806  1
  O  O265  1  0.90453456  0.06204565  0.76944021  1
  O  O266  1  0.90926913  0.40373970  0.29328594  1
  O  O267  1  0.90363361  0.40701299  0.77135391  1
  O  O268  1  0.89814523  0.73140741  0.27358801  1
  O  O269  1  0.90256117  0.74018292  0.77988258  1
  O  O270  1  0.26809822  0.24055933  0.27219703  1
  O  O271  1  0.26481844  0.24191145  0.76045191  1
  O  O272  1  0.26950974  0.57407269  0.27785545  1
  O  O273  1  0.26014452  0.58626148  0.76270654  1
  O  O274  1  0.26584032  0.89455722  0.27344282  1
  O  O275  1  0.25466554  0.90264846  0.77870990  1
  O  O276  1  0.58803658  0.22887499  0.27462679  1
  O  O277  1  0.58901278  0.24173878  0.76795537  1
  O  O278  1  0.59492847  0.57575060  0.26821880  1
  O  O279  1  0.60707819  0.57833595  0.77386719  1
  O  O280  1  0.58745342  0.90944455  0.27362237  1
  O  O281  1  0.59694794  0.90309847  0.76544624  1
  O  O282  1  0.91607361  0.24245161  0.27098211  1
  O  O283  1  0.92602217  0.23338054  0.76732232  1
  O  O284  1  0.93369226  0.57175256  0.28733524  1
  O  O285  1  0.92903761  0.56986890  0.77786463  1
  O  O286  1  0.92932380  0.89272045  0.25840630  1
  O  O287  1  0.93362726  0.89992189  0.77299700  1
  O  O288  1  0.26728697  0.23051186  0.48059636  1
  O  O289  1  0.25859139  0.25137425  0.98296203  1
  O  O290  1  0.26811735  0.57359755  0.47059156  1
  O  O291  1  0.26465994  0.58345028  0.98508873  1
  O  O292  1  0.27021289  0.90815586  0.47091950  1
  O  O293  1  0.26238234  0.89701073  0.97239425  1
  O  O294  1  0.59185498  0.22562003  0.47809110  1
  O  O295  1  0.58296605  0.24425489  0.97685190  1
  O  O296  1  0.59199279  0.57789665  0.48745888  1
  O  O297  1  0.60934611  0.56322934  0.98312039  1
  O  O298  1  0.58211797  0.91027632  0.47691801  1
  O  O299  1  0.59554202  0.90757373  0.98656535  1
  O  O300  1  0.91744733  0.24353471  0.47295381  1
  O  O301  1  0.93192310  0.23873424  0.98920404  1
  O  O302  1  0.92795821  0.56532766  0.48101139  1
  O  O303  1  0.93961626  0.57257373  0.96547395  1
  O  O304  1  0.93105135  0.90646400  0.49704873  1
  O  O305  1  0.94248920  0.88642662  0.98813523  1
  O  O306  1  0.24128816  0.06763314  0.46838494  1
  O  O307  1  0.23187003  0.05434340  0.97825096  1
  O  O308  1  0.23501375  0.40029195  0.47212555  1
  O  O309  1  0.24126955  0.40454440  0.97264114  1
  O  O310  1  0.24170701  0.73536553  0.47295670  1
  O  O311  1  0.23385651  0.73985928  0.98112617  1
  O  O312  1  0.55853449  0.06997008  0.47293922  1
  O  O313  1  0.57281799  0.06651412  0.99396785  1
  O  O314  1  0.56970999  0.41696023  0.48780188  1
  O  O315  1  0.56494519  0.40677410  0.96768399  1
  O  O316  1  0.57080349  0.74417455  0.48497662  1
  O  O317  1  0.56527820  0.72799054  0.98021096  1
  O  O318  1  0.90489907  0.08153171  0.48136470  1
  O  O319  1  0.89459392  0.05788034  0.97856337  1
  O  O320  1  0.89707388  0.40506458  0.47657063  1
  O  O321  1  0.91691110  0.40823380  0.97302421  1
  O  O322  1  0.90143330  0.73178998  0.47496177  1
  O  O323  1  0.90530147  0.73083118  0.97024807  1
  O  O324  1  0.08862222  0.25176889  0.23140451  1
  O  O325  1  0.08512061  0.26208528  0.73612960  1
  O  O326  1  0.10686482  0.60919026  0.22562439  1
  O  O327  1  0.08122948  0.59123963  0.73660667  1
  O  O328  1  0.10852770  0.92628168  0.22124897  1
  O  O329  1  0.09038594  0.92115748  0.73094529  1
  O  O330  1  0.43106606  0.26681021  0.23621093  1
  O  O331  1  0.42174883  0.26122826  0.73227405  1
  O  O332  1  0.42966115  0.60925200  0.22946332  1
  O  O333  1  0.42459324  0.60576546  0.73769130  1
  O  O334  1  0.42966887  0.93223251  0.21865273  1
  O  O335  1  0.43455064  0.93041882  0.72930250  1
  O  O336  1  0.75840007  0.24699145  0.23802570  1
  O  O337  1  0.76603699  0.25349920  0.72000972  1
  O  O338  1  0.76580777  0.60189590  0.23927780  1
  O  O339  1  0.76920869  0.59876859  0.73285616  1
  O  O340  1  0.76901960  0.92251336  0.22346423  1
  O  O341  1  0.76787483  0.93120541  0.73734125  1
  O  O342  1  0.07178436  0.09075830  0.21217997  1
  O  O343  1  0.07025931  0.08591558  0.73615244  1
  O  O344  1  0.06788891  0.43351280  0.24045995  1
  O  O345  1  0.05759655  0.42689854  0.73185368  1
  O  O346  1  0.07668278  0.76902455  0.21617047  1
  O  O347  1  0.06168357  0.76583088  0.73437904  1
  O  O348  1  0.39826558  0.10114619  0.23915613  1
  O  O349  1  0.40417719  0.09370442  0.71633799  1
  O  O350  1  0.39927331  0.44051519  0.24393855  1
  O  O351  1  0.40273890  0.42430984  0.74168287  1
  O  O352  1  0.38715029  0.77030331  0.23777822  1
  O  O353  1  0.40477164  0.76982060  0.73853021  1
  O  O354  1  0.74870884  0.08681996  0.22453392  1
  O  O355  1  0.73548900  0.09482302  0.72358993  1
  O  O356  1  0.74686197  0.41868814  0.24796341  1
  O  O357  1  0.75044775  0.42518378  0.71968639  1
  O  O358  1  0.74194186  0.75616600  0.23003613  1
  O  O359  1  0.74341096  0.76602232  0.73210101  1
