# generated using pymatgen
data_BaLaInIrO6
_symmetry_space_group_name_H-M   'P 1'
_cell_length_a   17.53078074
_cell_length_b   17.57565130
_cell_length_c   16.51232926
_cell_angle_alpha   89.91489180
_cell_angle_beta   89.96503253
_cell_angle_gamma   90.01708579
_symmetry_Int_Tables_number   1
_chemical_formula_structural   BaLaInIrO6
_chemical_formula_sum   'Ba36 La36 In36 Ir36 O216'
_cell_volume   5087.68771228
_cell_formula_units_Z   36
loop_
 _symmetry_equiv_pos_site_id
 _symmetry_equiv_pos_as_xyz
  1  'x, y, z'
loop_
 _atom_site_type_symbol
 _atom_site_label
 _atom_site_symmetry_multiplicity
 _atom_site_fract_x
 _atom_site_fract_y
 _atom_site_fract_z
 _atom_site_occupancy
  Ba  Ba0  1  0.16188062  0.00926135  0.12532791  1
  Ba  Ba1  1  -0.00041316  0.82575433  0.87287968  1
  Ba  Ba2  1  0.50151306  0.65749386  0.87635615  1
  Ba  Ba3  1  0.50475632  0.32146545  0.87403644  1
  Ba  Ba4  1  0.66698339  0.50684901  0.62777003  1
  Ba  Ba5  1  0.33552409  0.83775041  0.12516577  1
  Ba  Ba6  1  0.50118124  0.99011049  0.87599835  1
  Ba  Ba7  1  0.49695136  0.32204314  0.37441167  1
  Ba  Ba8  1  0.99864872  0.51273682  0.62560719  1
  Ba  Ba9  1  0.83607811  0.00871678  0.62860019  1
  Ba  Ba10  1  0.00366623  0.49284347  0.37670610  1
  Ba  Ba11  1  0.67111652  0.17364384  0.62413638  1
  Ba  Ba12  1  0.33337420  0.16934815  0.12293559  1
  Ba  Ba13  1  0.50357595  0.67733320  0.12301248  1
  Ba  Ba14  1  0.83318820  0.34382691  0.12640745  1
  Ba  Ba15  1  0.49076800  0.34339318  0.12282388  1
  Ba  Ba16  1  0.32942074  0.49041786  0.87349485  1
  Ba  Ba17  1  0.33644055  0.84774111  0.62279050  1
  Ba  Ba18  1  0.16492745  0.00509091  0.62358959  1
  Ba  Ba19  1  0.16725931  0.67519823  0.12361444  1
  Ba  Ba20  1  0.66236586  0.49002903  0.87715376  1
  Ba  Ba21  1  0.49939529  0.66189302  0.37624547  1
  Ba  Ba22  1  0.16619656  0.34010327  0.12288989  1
  Ba  Ba23  1  0.66790777  0.82395873  0.37793881  1
  Ba  Ba24  1  0.17067079  0.65549226  0.37648037  1
  Ba  Ba25  1  0.66894771  0.83889706  0.12785920  1
  Ba  Ba26  1  0.49657107  0.99612559  0.37488336  1
  Ba  Ba27  1  0.83004825  0.32943065  0.87685964  1
  Ba  Ba28  1  0.00196550  0.49877522  0.87772882  1
  Ba  Ba29  1  0.66244997  0.83802137  0.62448301  1
  Ba  Ba30  1  0.66459651  0.50631925  0.12470041  1
  Ba  Ba31  1  0.16768954  0.98974383  0.87442225  1
  Ba  Ba32  1  0.83256262  0.98979227  0.87217117  1
  Ba  Ba33  1  0.16526484  0.67640365  0.62318874  1
  Ba  Ba34  1  1.00173558  0.17474567  0.63154835  1
  Ba  Ba35  1  1.00348116  0.84117131  0.12353095  1
  La  La36  1  0.17188554  0.31766061  0.37768130  1
  La  La37  1  0.66679955  0.18053097  0.12305145  1
  La  La38  1  0.16227806  0.35174185  0.62543343  1
  La  La39  1  -0.00224005  0.15448845  0.37316384  1
  La  La40  1  0.32851809  0.81657670  0.87618197  1
  La  La41  1  0.32835375  0.14848189  0.37228416  1
  La  La42  1  0.49805449  0.35122741  0.62358869  1
  La  La43  1  0.33817780  0.51981433  0.62314674  1
  La  La44  1  0.83571206  0.65703368  0.87302755  1
  La  La45  1  0.16387474  0.66226290  0.87981783  1
  La  La46  1  0.84060270  0.65403249  0.37278209  1
  La  La47  1  0.66211677  0.15006926  0.87426559  1
  La  La48  1  0.17375750  0.31239879  0.87129873  1
  La  La49  1  0.82960821  0.01204661  0.12020092  1
  La  La50  1  0.66290448  0.82073367  0.87479970  1
  La  La51  1  0.83589514  0.98258480  0.37994419  1
  La  La52  1  0.83567929  0.32342933  0.37670295  1
  La  La53  1  0.66142444  0.15267338  0.37682865  1
  La  La54  1  0.49519713  0.01837501  0.62506628  1
  La  La55  1  -0.00260597  0.14987467  0.87979302  1
  La  La56  1  1.00171765  0.51987652  0.12347116  1
  La  La57  1  0.34580270  0.51781751  0.12356346  1
  La  La58  1  1.00580446  0.18021722  0.12147067  1
  La  La59  1  0.66346397  0.48617595  0.37453491  1
  La  La60  1  0.83246626  0.34364882  0.62794187  1
  La  La61  1  0.49822075  0.00556111  0.11978963  1
  La  La62  1  -0.00076223  0.81390720  0.37548205  1
  La  La63  1  0.32313869  0.48588897  0.37141757  1
  La  La64  1  0.83136929  0.68081510  0.62398148  1
  La  La65  1  0.82616908  0.68130320  0.11828840  1
  La  La66  1  0.32896269  0.81452908  0.37483861  1
  La  La67  1  0.17407695  0.97847691  0.37607006  1
  La  La68  1  0.49621928  0.68467820  0.62582578  1
  La  La69  1  1.00807704  0.84282595  0.62432955  1
  La  La70  1  0.33889037  0.17756968  0.62742019  1
  La  La71  1  0.33203585  0.15115283  0.87767390  1
  In  In72  1  0.83354291  0.16954115  0.75357935  1
  In  In73  1  0.83715932  0.83466071  0.24857738  1
  In  In74  1  0.17081194  0.83079093  0.74931933  1
  In  In75  1  0.49878338  0.50088470  0.25536131  1
  In  In76  1  0.83170626  0.50052889  0.49896898  1
  In  In77  1  0.33004741  0.33127988  0.24864021  1
  In  In78  1  0.33183729  -0.00581871  -0.00187585  1
  In  In79  1  0.33184357  0.33111693  -0.00434230  1
  In  In80  1  0.00117419  0.33167926  0.49837741  1
  In  In81  1  0.83245979  0.16759305  0.49696129  1
  In  In82  1  0.66401915  -0.00379135  0.74997617  1
  In  In83  1  0.16619719  0.49643526  0.24629190  1
  In  In84  1  0.49775471  0.83830597  0.49952635  1
  In  In85  1  0.67095490  0.66534315  0.25311312  1
  In  In86  1  0.83248811  0.16492023  0.25088601  1
  In  In87  1  0.16771930  0.50334224  0.74931669  1
  In  In88  1  0.17135501  0.16512065  0.74382549  1
  In  In89  1  0.50018532  0.83694944  0.25155071  1
  In  In90  1  0.00210455  0.33688223  -0.00174889  1
  In  In91  1  0.49715602  0.50033472  0.75073319  1
  In  In92  1  0.49916740  0.16586094  0.24981165  1
  In  In93  1  0.83169038  0.50091754  0.00083499  1
  In  In94  1  0.83307613  0.16807775  0.00124154  1
  In  In95  1  0.16835517  0.49826163  0.00099038  1
  In  In96  1  0.00080705  -0.00205743  0.75020042  1
  In  In97  1  0.00379960  0.33468918  0.75290106  1
  In  In98  1  0.66695149  -0.00114692  0.50088377  1
  In  In99  1  0.33043295  -0.00316845  0.24857419  1
  In  In100  1  -0.00020229  -0.00046729  0.25281041  1
  In  In101  1  0.00432202  -0.00029134  0.49519160  1
  In  In102  1  0.66601350  0.66443946  0.74981099  1
  In  In103  1  0.66714528  0.33126014  0.25140917  1
  In  In104  1  0.66436122  0.33101559  0.74898445  1
  In  In105  1  0.33387540  0.66618042  0.24971503  1
  In  In106  1  0.33219044  0.33258342  0.50403850  1
  In  In107  1  0.66665560  0.66369233  0.50077650  1
  Ir  Ir108  1  0.84028690  0.83138652  0.50177402  1
  Ir  Ir109  1  0.49648126  0.83437565  0.75498133  1
  Ir  Ir110  1  0.16379345  0.83036280  0.25140175  1
  Ir  Ir111  1  0.33564467  0.66824846  -0.00521031  1
  Ir  Ir112  1  0.15935812  0.16759455  0.25411190  1
  Ir  Ir113  1  0.00050208  0.66820776  0.49947779  1
  Ir  Ir114  1  0.66152590  0.33140274  0.00210378  1
  Ir  Ir115  1  0.49910295  0.50229508  0.00044492  1
  Ir  Ir116  1  0.33496670  0.66772002  0.74920717  1
  Ir  Ir117  1  0.66584815  -0.00201914  0.00469128  1
  Ir  Ir118  1  0.16278873  0.16301447  0.00019832  1
  Ir  Ir119  1  0.49779662  0.16678830  0.74997331  1
  Ir  Ir120  1  0.83790414  0.50159310  0.25001167  1
  Ir  Ir121  1  0.33520484  0.66485042  0.50445220  1
  Ir  Ir122  1  0.66939938  0.00199515  0.24461402  1
  Ir  Ir123  1  0.16882546  0.50028409  0.50097000  1
  Ir  Ir124  1  0.50268819  0.83363683  -0.00438110  1
  Ir  Ir125  1  -0.00188699  0.66608608  0.25078963  1
  Ir  Ir126  1  0.83195886  0.83434535  -0.00478119  1
  Ir  Ir127  1  0.83358732  0.82940102  0.74777068  1
  Ir  Ir128  1  0.83516713  0.50287589  0.74929411  1
  Ir  Ir129  1  0.33101190  0.00463334  0.50386481  1
  Ir  Ir130  1  0.00130058  0.33328299  0.25272336  1
  Ir  Ir131  1  0.49861383  0.17001182  0.50424929  1
  Ir  Ir132  1  0.16940486  0.83098496  0.49684731  1
  Ir  Ir133  1  0.66362398  0.33621083  0.49881932  1
  Ir  Ir134  1  0.50317260  0.16217432  -0.00223587  1
  Ir  Ir135  1  -0.00374972  -0.00385119  0.00259861  1
  Ir  Ir136  1  0.16967466  0.16651609  0.49691554  1
  Ir  Ir137  1  0.33272503  0.32874797  0.74814267  1
  Ir  Ir138  1  0.49642273  0.49961928  0.50062924  1
  Ir  Ir139  1  0.66928677  0.67053633  -0.00159802  1
  Ir  Ir140  1  0.33819307  0.00118643  0.74872150  1
  Ir  Ir141  1  -0.00300726  0.67176752  -0.00159946  1
  Ir  Ir142  1  -0.00401674  0.66930400  0.74747750  1
  Ir  Ir143  1  0.16536191  0.82981294  0.00027750  1
  O  O144  1  0.31565765  0.32455543  0.12069153  1
  O  O145  1  0.29897297  0.31633802  0.62992374  1
  O  O146  1  0.31878241  0.66283670  0.11559745  1
  O  O147  1  0.31392097  0.65839570  0.62654763  1
  O  O148  1  0.31165767  0.99909096  0.12289014  1
  O  O149  1  0.31455566  1.00657879  0.62649058  1
  O  O150  1  0.63999862  0.32574695  0.12107255  1
  O  O151  1  0.63349454  0.33065230  0.61632100  1
  O  O152  1  0.65594045  0.66706253  0.11835774  1
  O  O153  1  0.63165181  0.66550253  0.62589335  1
  O  O154  1  0.63375296  0.99196008  0.12443142  1
  O  O155  1  0.63119778  0.99603444  0.62619901  1
  O  O156  1  0.98110191  0.31616339  0.13373281  1
  O  O157  1  0.96834171  0.32714577  0.62423623  1
  O  O158  1  0.96504325  0.66353806  0.12637304  1
  O  O159  1  0.96756362  0.67008402  0.62360594  1
  O  O160  1  0.96857881  0.99484810  0.12408968  1
  O  O161  1  0.98700238  0.98323219  0.62002304  1
  O  O162  1  0.18385873  0.16360245  0.13029636  1
  O  O163  1  0.20416971  0.15831863  0.61414683  1
  O  O164  1  0.20755367  0.49981221  0.12301556  1
  O  O165  1  0.19935012  0.49415980  0.61970709  1
  O  O166  1  0.18596748  0.83258777  0.12694431  1
  O  O167  1  0.18632762  0.83306505  0.61820707  1
  O  O168  1  0.52919831  0.15035543  0.11868481  1
  O  O169  1  0.52210422  0.15707966  0.62742646  1
  O  O170  1  0.51381280  0.50214561  0.11985343  1
  O  O171  1  0.51677680  0.49279299  0.61896764  1
  O  O172  1  0.51936771  0.83364925  0.11500350  1
  O  O173  1  0.51103164  0.82452551  0.63386681  1
  O  O174  1  0.86880223  0.15198505  0.12587160  1
  O  O175  1  0.85152888  0.16951562  0.62311137  1
  O  O176  1  0.86739222  0.49806651  0.13101951  1
  O  O177  1  0.84981927  0.48307550  0.62855377  1
  O  O178  1  0.85413165  0.82497760  0.11611285  1
  O  O179  1  0.87073243  0.82143502  0.62591932  1
  O  O180  1  0.13230209  0.17975175  0.37655920  1
  O  O181  1  0.13610351  0.17007052  0.88003164  1
  O  O182  1  0.15361376  0.50190688  0.38165673  1
  O  O183  1  0.15468284  0.52430275  0.87472105  1
  O  O184  1  0.13739073  0.83372195  0.37366784  1
  O  O185  1  0.15085041  0.82351447  0.88007270  1
  O  O186  1  0.46715010  0.16880554  0.38697676  1
  O  O187  1  0.46875950  0.16671576  0.87230645  1
  O  O188  1  0.46078959  0.50298131  0.38526354  1
  O  O189  1  0.48027385  0.49896628  0.88040491  1
  O  O190  1  0.46097090  0.84328377  0.37792006  1
  O  O191  1  0.46825126  0.83635120  0.87497746  1
  O  O192  1  0.79356974  0.18770637  0.37309008  1
  O  O193  1  0.79534089  0.17076514  0.88045647  1
  O  O194  1  0.80366760  0.51437783  0.36917782  1
  O  O195  1  0.81476026  0.51922052  0.87024698  1
  O  O196  1  0.81645762  0.83908650  0.38235586  1
  O  O197  1  0.80059219  0.83296070  0.86971750  1
  O  O198  1  0.04193201  0.01664919  0.37402856  1
  O  O199  1  0.01784591  0.00395642  0.88361100  1
  O  O200  1  0.03551913  0.33998947  0.37011755  1
  O  O201  1  0.04400248  0.34586443  0.87660614  1
  O  O202  1  0.02497163  0.67458427  0.37555728  1
  O  O203  1  0.02713622  0.67074395  0.87337162  1
  O  O204  1  0.34397565  0.00845958  0.38325765  1
  O  O205  1  0.35360632  0.01017762  0.86990918  1
  O  O206  1  0.34726503  0.34804211  0.37940959  1
  O  O207  1  0.35656125  0.33365751  0.86544072  1
  O  O208  1  0.34843394  0.67423647  0.38422047  1
  O  O209  1  0.35419180  0.67947458  0.87105998  1
  O  O210  1  0.70094107  0.01361422  0.36363702  1
  O  O211  1  0.68294485  0.00771065  0.88413114  1
  O  O212  1  0.69625573  0.34386447  0.38004083  1
  O  O213  1  0.67702923  0.33096759  0.88182482  1
  O  O214  1  0.70605646  0.66741942  0.37841773  1
  O  O215  1  0.69688497  0.67839003  0.87760205  1
  O  O216  1  0.06262547  0.09473919  0.02243175  1
  O  O217  1  0.07719423  0.10348441  0.51605197  1
  O  O218  1  0.06665928  0.43699329  0.03234578  1
  O  O219  1  0.07933468  0.42882577  0.52241398  1
  O  O220  1  0.07306140  0.75801968  0.01652635  1
  O  O221  1  0.06791312  0.76678845  0.51785256  1
  O  O222  1  0.41702109  0.08724554  0.01440164  1
  O  O223  1  0.39999738  0.10257887  0.52690088  1
  O  O224  1  0.40385038  0.43660848  0.01845758  1
  O  O225  1  0.40314175  0.43199832  0.52948531  1
  O  O226  1  0.40484609  0.76593319  0.00585839  1
  O  O227  1  0.40600912  0.75437612  0.52113874  1
  O  O228  1  0.73423089  0.08890462  0.03257523  1
  O  O229  1  0.73508684  0.09552208  0.50537923  1
  O  O230  1  0.73448880  0.42145344  0.01488871  1
  O  O231  1  0.72704282  0.43061993  0.50952693  1
  O  O232  1  0.74063077  0.76326312  0.01539874  1
  O  O233  1  0.75336167  0.76096166  0.52581139  1
  O  O234  1  0.09362719  0.25114688  0.01901121  1
  O  O235  1  0.10927741  0.26431151  0.52065488  1
  O  O236  1  0.08488760  0.59830197  0.01735225  1
  O  O237  1  0.09532622  0.59504620  0.51746580  1
  O  O238  1  0.09397717  0.92462525  0.01710303  1
  O  O239  1  0.10089938  0.92101738  0.50708995  1
  O  O240  1  0.42951092  0.24866785  0.01059548  1
  O  O241  1  0.43056581  0.26062889  0.53285264  1
  O  O242  1  0.42689568  0.59504630  0.01997046  1
  O  O243  1  0.43081042  0.59625714  0.53104943  1
  O  O244  1  0.43525579  0.92538844  0.01797706  1
  O  O245  1  0.42747991  0.94198338  0.52753670  1
  O  O246  1  0.74806286  0.25759534  0.02634490  1
  O  O247  1  0.76158716  0.27825091  0.51964371  1
  O  O248  1  0.76280413  0.60260028  0.01771711  1
  O  O249  1  0.76712716  0.59864396  0.52946544  1
  O  O250  1  0.76297107  0.93218811  0.02478901  1
  O  O251  1  0.77360364  0.92544951  0.51277403  1
  O  O252  1  0.22500416  0.07268919  0.27790648  1
  O  O253  1  0.25112913  0.07309474  0.77016085  1
  O  O254  1  0.22853037  0.39657806  0.27702959  1
  O  O255  1  0.23671076  0.39180513  0.76744382  1
  O  O256  1  0.23603606  0.74326266  0.26627907  1
  O  O257  1  0.23861846  0.73176282  0.77453018  1
  O  O258  1  0.57991636  0.07115022  0.26630420  1
  O  O259  1  0.56546100  0.07624126  0.76707025  1
  O  O260  1  0.57876024  0.41073912  0.27379899  1
  O  O261  1  0.56571258  0.39988944  0.75048674  1
  O  O262  1  0.57884683  0.74550998  0.26506174  1
  O  O263  1  0.57063053  0.74736217  0.77090795  1
  O  O264  1  0.90028370  0.06860565  0.28515720  1
  O  O265  1  0.91357262  0.07788839  0.77146163  1
  O  O266  1  0.90415088  0.40002725  0.27709037  1
  O  O267  1  0.90536773  0.41465709  0.76767682  1
  O  O268  1  0.91142817  0.73747298  0.27977498  1
  O  O269  1  0.89917366  0.73357505  0.76999492  1
  O  O270  1  0.25463667  0.23014583  0.28164958  1
  O  O271  1  0.27265646  0.23223241  0.77620385  1
  O  O272  1  0.26464367  0.56778278  0.27058722  1
  O  O273  1  0.27128421  0.57211872  0.75375287  1
  O  O274  1  0.25752739  0.89877027  0.27865154  1
  O  O275  1  0.27329522  0.90472410  0.77090843  1
  O  O276  1  0.59955363  0.23037361  0.27338163  1
  O  O277  1  0.59436304  0.22772852  0.77315937  1
  O  O278  1  0.60182838  0.56822006  0.27560300  1
  O  O279  1  0.59121184  0.57354035  0.76854794  1
  O  O280  1  0.60201332  0.91453446  0.26857266  1
  O  O281  1  0.59235772  0.89782537  0.77687946  1
  O  O282  1  0.93316820  0.24117994  0.27908010  1
  O  O283  1  0.93669260  0.23688665  0.78454531  1
  O  O284  1  0.92727471  0.57469649  0.27329956  1
  O  O285  1  0.92424811  0.57939851  0.77023935  1
  O  O286  1  0.93074960  0.90343832  0.28476156  1
  O  O287  1  0.92112286  0.90070979  0.76050566  1
  O  O288  1  0.26361508  0.23017090  0.47247877  1
  O  O289  1  0.25582931  0.23067799  0.97017925  1
  O  O290  1  0.27041805  0.56321985  0.48463101  1
  O  O291  1  0.26371731  0.58247005  0.98157656  1
  O  O292  1  0.26389636  0.90375481  0.47345423  1
  O  O293  1  0.26025180  0.89504255  0.97637325  1
  O  O294  1  0.59675690  0.23548021  0.47659327  1
  O  O295  1  0.59900267  0.22949437  0.98224928  1
  O  O296  1  0.59233428  0.56161547  0.47306134  1
  O  O297  1  0.59748558  0.57834749  0.98326323  1
  O  O298  1  0.59254177  0.91029839  0.48028008  1
  O  O299  1  0.60009028  0.90031449  0.97620729  1
  O  O300  1  0.92903541  0.23871892  0.46293116  1
  O  O301  1  0.93510629  0.23291039  0.98019328  1
  O  O302  1  0.92696402  0.58098210  0.47924544  1
  O  O303  1  0.92386929  0.58642742  0.98408584  1
  O  O304  1  0.93332802  0.89646258  0.47557279  1
  O  O305  1  0.92492682  0.90400861  0.98038342  1
  O  O306  1  0.23346245  0.07100608  0.47005415  1
  O  O307  1  0.24004181  0.07860913  0.98003317  1
  O  O308  1  0.23141348  0.40459985  0.48330499  1
  O  O309  1  0.23125488  0.39698156  0.96807225  1
  O  O310  1  0.24477932  0.74189165  0.47962948  1
  O  O311  1  0.23889301  0.73657276  0.97364498  1
  O  O312  1  0.56927339  0.08298976  0.48209252  1
  O  O313  1  0.57774782  0.07253170  0.97927761  1
  O  O314  1  0.56423223  0.40420428  0.48128902  1
  O  O315  1  0.56968965  0.40771651  0.98382676  1
  O  O316  1  0.57266161  0.74106195  0.48991967  1
  O  O317  1  0.58032504  0.74641783  0.97068642  1
  O  O318  1  0.90612931  0.06908968  0.46752384  1
  O  O319  1  0.90750387  0.06597888  0.98453282  1
  O  O320  1  0.89919391  0.40178785  0.47600866  1
  O  O321  1  0.90678799  0.41040242  0.98405873  1
  O  O322  1  0.90617663  0.73528597  0.47483264  1
  O  O323  1  0.89730871  0.73816436  0.97352413  1
  O  O324  1  0.09538353  0.26431370  0.23503384  1
  O  O325  1  0.10941234  0.26729944  0.72598881  1
  O  O326  1  0.08390940  0.59003055  0.22566934  1
  O  O327  1  0.08852705  0.60172282  0.73551739  1
  O  O328  1  0.09848667  0.92403404  0.24113855  1
  O  O329  1  0.09002625  0.91655015  0.73595275  1
  O  O330  1  0.42621670  0.25943340  0.23658690  1
  O  O331  1  0.42961857  0.26328254  0.72030613  1
  O  O332  1  0.42806878  0.59509225  0.23037877  1
  O  O333  1  0.42781192  0.60099080  0.72276371  1
  O  O334  1  0.43527077  0.93687283  0.22329441  1
  O  O335  1  0.43424209  0.93548191  0.72744228  1
  O  O336  1  0.75590945  0.25470893  0.22133838  1
  O  O337  1  0.76499775  0.27028165  0.72593672  1
  O  O338  1  0.77712105  0.59496814  0.22398108  1
  O  O339  1  0.77078616  0.59736861  0.72758208  1
  O  O340  1  0.76748439  0.93765346  0.22789550  1
  O  O341  1  0.76113369  0.91682170  0.73019447  1
  O  O342  1  0.06104921  0.10793063  0.23118144  1
  O  O343  1  0.07979527  0.09005156  0.73975207  1
  O  O344  1  0.06062690  0.42972450  0.22398358  1
  O  O345  1  0.08093023  0.42615315  0.72019154  1
  O  O346  1  0.06729774  0.76196477  0.23712491  1
  O  O347  1  0.06414854  0.75985794  0.72506984  1
  O  O348  1  0.40034182  0.09570241  0.24868287  1
  O  O349  1  0.40303164  0.09921361  0.72565652  1
  O  O350  1  0.39333845  0.43767450  0.23391204  1
  O  O351  1  0.39573408  0.42437998  0.71917092  1
  O  O352  1  0.39967626  0.76625623  0.24691828  1
  O  O353  1  0.40024831  0.76540011  0.73786824  1
  O  O354  1  0.73488708  0.09115930  0.21363734  1
  O  O355  1  0.73591984  0.09185164  0.74462722  1
  O  O356  1  0.74859766  0.43208463  0.23807264  1
  O  O357  1  0.74701350  0.42960596  0.73897286  1
  O  O358  1  0.75379288  0.75230070  0.22860148  1
  O  O359  1  0.74653210  0.75707219  0.72832082  1
