# generated using pymatgen
data_BaLaInIrO6
_symmetry_space_group_name_H-M   'P 1'
_cell_length_a   17.52387343
_cell_length_b   17.55906502
_cell_length_c   16.51645328
_cell_angle_alpha   90.02311552
_cell_angle_beta   89.96538047
_cell_angle_gamma   89.91005775
_symmetry_Int_Tables_number   1
_chemical_formula_structural   BaLaInIrO6
_chemical_formula_sum   'Ba36 La36 In36 Ir36 O216'
_cell_volume   5082.15185912
_cell_formula_units_Z   36
loop_
 _symmetry_equiv_pos_site_id
 _symmetry_equiv_pos_as_xyz
  1  'x, y, z'
loop_
 _atom_site_type_symbol
 _atom_site_label
 _atom_site_symmetry_multiplicity
 _atom_site_fract_x
 _atom_site_fract_y
 _atom_site_fract_z
 _atom_site_occupancy
  Ba  Ba0  1  0.67381332  0.83699193  0.62315806  1
  Ba  Ba1  1  0.83348013  0.67276059  0.62490930  1
  Ba  Ba2  1  0.50424499  0.65044220  0.37291396  1
  Ba  Ba3  1  0.50312583  0.32536406  0.37475819  1
  Ba  Ba4  1  0.83363237  0.00563325  0.62469610  1
  Ba  Ba5  1  0.83095709  0.67948734  0.12685206  1
  Ba  Ba6  1  0.83179318  0.99384142  0.37385436  1
  Ba  Ba7  1  0.66506704  0.49133168  0.37368483  1
  Ba  Ba8  1  0.83713222  0.33781945  0.61915629  1
  Ba  Ba9  1  0.50520285  0.98671503  0.87640631  1
  Ba  Ba10  1  0.66363798  0.49549810  0.87253086  1
  Ba  Ba11  1  0.33361267  0.49430737  0.87651348  1
  Ba  Ba12  1  0.49590096  0.00735456  0.12570423  1
  Ba  Ba13  1  0.83130350  0.99866249  0.86940567  1
  Ba  Ba14  1  0.17046752  0.65788319  0.37808318  1
  Ba  Ba15  1  0.66499291  0.17672963  0.12245932  1
  Ba  Ba16  1  0.83056368  0.32441234  0.37333370  1
  Ba  Ba17  1  0.83224401  0.66240693  0.87432315  1
  Ba  Ba18  1  0.50076577  0.67483522  0.12883782  1
  Ba  Ba19  1  0.66759649  0.51444201  0.12926211  1
  Ba  Ba20  1  0.16935509  0.01207359  0.12842124  1
  Ba  Ba21  1  1.00377397  0.84392168  0.62641853  1
  Ba  Ba22  1  -0.00296196  0.15953846  0.37503296  1
  Ba  Ba23  1  0.66588673  0.15572123  0.87472846  1
  Ba  Ba24  1  0.16764254  0.65561506  0.87133306  1
  Ba  Ba25  1  0.33642641  0.84077994  0.62111414  1
  Ba  Ba26  1  0.16287933  0.33955404  0.62605459  1
  Ba  Ba27  1  0.16456015  0.01398747  0.62916028  1
  Ba  Ba28  1  -0.00257716  0.15926940  0.87894831  1
  Ba  Ba29  1  0.49941879  0.34125220  0.12952217  1
  Ba  Ba30  1  0.66547653  0.16054290  0.37420841  1
  Ba  Ba31  1  0.16543176  0.34363270  0.12278270  1
  Ba  Ba32  1  -0.00089498  0.82462991  0.87290467  1
  Ba  Ba33  1  0.99679739  0.51094851  0.12869089  1
  Ba  Ba34  1  0.33784194  0.84112740  0.13072880  1
  Ba  Ba35  1  0.66553719  0.17177235  0.62677579  1
  La  La36  1  1.00501096  0.84741953  0.12291616  1
  La  La37  1  0.83656191  0.31987524  0.87197745  1
  La  La38  1  0.17323103  0.98476592  0.87818614  1
  La  La39  1  0.49488156  0.01441592  0.62047210  1
  La  La40  1  0.34069069  0.18026631  0.12630875  1
  La  La41  1  0.16770571  0.98703686  0.37387767  1
  La  La42  1  0.49604152  0.34887482  0.62462157  1
  La  La43  1  0.16373337  0.32110094  0.87651872  1
  La  La44  1  0.66702579  0.81430989  0.37487666  1
  La  La45  1  0.34113695  0.51615373  0.12939719  1
  La  La46  1  0.50473540  0.31746800  0.87592326  1
  La  La47  1  1.00518127  0.51597196  0.62730590  1
  La  La48  1  0.34026065  0.18320211  0.62433234  1
  La  La49  1  0.32637996  0.15338475  0.87805149  1
  La  La50  1  0.66907139  0.84163355  0.12604318  1
  La  La51  1  0.50163042  0.66149209  0.88045980  1
  La  La52  1  0.16140455  0.68093944  0.62531929  1
  La  La53  1  1.00362886  0.17870155  0.12890318  1
  La  La54  1  0.50833255  0.97912960  0.37048141  1
  La  La55  1  -0.00857115  0.49215344  0.87360956  1
  La  La56  1  0.32660653  0.81844674  0.88077623  1
  La  La57  1  0.83568114  0.65693271  0.37452535  1
  La  La58  1  0.33386016  0.51465968  0.62252349  1
  La  La59  1  0.67139882  0.82046395  0.87589006  1
  La  La60  1  0.66931976  0.51213465  0.61810196  1
  La  La61  1  0.99186577  0.16831276  0.62976229  1
  La  La62  1  0.33469279  0.81532181  0.37236107  1
  La  La63  1  0.16834931  0.31527757  0.37241680  1
  La  La64  1  -0.00280201  0.82148984  0.37212880  1
  La  La65  1  0.16179489  0.67624351  0.12128120  1
  La  La66  1  0.33112478  0.48200370  0.37595215  1
  La  La67  1  0.49841145  0.67999416  0.62181333  1
  La  La68  1  0.82138693  0.35261492  0.12437160  1
  La  La69  1  0.32771337  0.15050111  0.36882224  1
  La  La70  1  0.83165881  0.01081400  0.12551052  1
  La  La71  1  -0.00710404  0.48672869  0.37495011  1
  In  In72  1  0.66556342  0.33625803  -0.00346623  1
  In  In73  1  0.16618006  0.49765829  0.50093163  1
  In  In74  1  0.16796704  0.83594405  0.49755106  1
  In  In75  1  0.33303566  0.33721880  0.75173276  1
  In  In76  1  0.66163087  -0.00517917  0.74860839  1
  In  In77  1  0.33117971  0.33303222  0.25050494  1
  In  In78  1  0.16750409  0.83263191  0.24995490  1
  In  In79  1  0.83319747  0.16659164  0.24935976  1
  In  In80  1  0.83492041  0.83475537  0.74936640  1
  In  In81  1  0.33178836  0.66690948  0.00413915  1
  In  In82  1  0.49812974  0.49906436  0.00024312  1
  In  In83  1  0.83179508  0.49505992  0.74516151  1
  In  In84  1  0.49648009  0.16853582  0.75061749  1
  In  In85  1  0.33483467  -0.00235706  0.49596219  1
  In  In86  1  0.33515409  -0.00083379  0.00312438  1
  In  In87  1  0.66406771  0.33169420  0.50198477  1
  In  In88  1  -0.00066521  0.66509666  -0.00101052  1
  In  In89  1  0.66390425  0.66344614  0.74741939  1
  In  In90  1  0.33118071  0.33615533  -0.00149403  1
  In  In91  1  0.66653322  -0.00164180  0.00359521  1
  In  In92  1  0.16470383  0.50227283  0.25059498  1
  In  In93  1  0.83626735  0.83408764  0.49638838  1
  In  In94  1  -0.00156311  0.33516856  0.24821188  1
  In  In95  1  0.83661320  0.83689460  0.00296656  1
  In  In96  1  0.16909129  0.16490516  0.50186862  1
  In  In97  1  0.49922230  0.83082034  0.74996388  1
  In  In98  1  0.00453137  0.00437164  0.75472860  1
  In  In99  1  0.00197660  0.66617141  0.49759147  1
  In  In100  1  0.83579513  0.16889705  0.00243073  1
  In  In101  1  0.66318016  -0.00221309  0.49813999  1
  In  In102  1  0.33529754  0.66390708  0.74765114  1
  In  In103  1  0.49992344  0.16427641  0.25276926  1
  In  In104  1  -0.00299349  0.33782290  0.00094986  1
  In  In105  1  0.17068695  0.83420128  0.75236442  1
  In  In106  1  0.00303262  0.33367729  0.50179724  1
  In  In107  1  0.33592227  0.00123098  0.74986103  1
  Ir  Ir108  1  0.50276714  0.82811110  0.49399583  1
  Ir  Ir109  1  0.50230451  0.83115276  0.25195590  1
  Ir  Ir110  1  0.33466424  0.66361006  0.25631499  1
  Ir  Ir111  1  0.83239190  0.50597016  0.25297025  1
  Ir  Ir112  1  0.33430149  0.33175340  0.49899834  1
  Ir  Ir113  1  0.33659572  0.66164761  0.49814362  1
  Ir  Ir114  1  0.33650540  -0.00095629  0.25410805  1
  Ir  Ir115  1  0.83225313  0.17302266  0.74741347  1
  Ir  Ir116  1  0.00338926  0.00561152  0.49680873  1
  Ir  Ir117  1  0.66894446  0.67048581  0.24961475  1
  Ir  Ir118  1  0.66640953  0.33770276  0.24861984  1
  Ir  Ir119  1  0.16516721  0.16578538  0.00149449  1
  Ir  Ir120  1  0.50048883  0.82913280  0.00235905  1
  Ir  Ir121  1  -0.00128381  0.67123261  0.24876493  1
  Ir  Ir122  1  0.16519704  0.50111489  -0.00162260  1
  Ir  Ir123  1  0.00401511  0.66012315  0.74911305  1
  Ir  Ir124  1  0.83581103  0.83483512  0.25048243  1
  Ir  Ir125  1  0.82954944  0.50300946  -0.00204288  1
  Ir  Ir126  1  0.66478519  0.66210457  0.49518313  1
  Ir  Ir127  1  0.83371214  0.16471029  0.50095327  1
  Ir  Ir128  1  0.49622381  0.49856933  0.50288525  1
  Ir  Ir129  1  0.00273329  0.33396163  0.75243815  1
  Ir  Ir130  1  0.50077229  0.49924741  0.74233095  1
  Ir  Ir131  1  0.16670872  0.83388724  0.00360848  1
  Ir  Ir132  1  0.66657581  -0.00576361  0.24989027  1
  Ir  Ir133  1  0.83427658  0.50080245  0.49710165  1
  Ir  Ir134  1  0.49823327  0.50207276  0.25257212  1
  Ir  Ir135  1  0.66371777  0.33443657  0.74895871  1
  Ir  Ir136  1  0.00570112  0.00051350  0.00622899  1
  Ir  Ir137  1  0.49236200  0.16683987  0.49857981  1
  Ir  Ir138  1  0.00050100  -0.00168334  0.24905380  1
  Ir  Ir139  1  0.49515111  0.16841029  0.00126213  1
  Ir  Ir140  1  0.16754817  0.17091768  0.75744647  1
  Ir  Ir141  1  0.16696247  0.16138354  0.24665828  1
  Ir  Ir142  1  0.66470930  0.66921712  0.00355633  1
  Ir  Ir143  1  0.16435588  0.49672043  0.75173852  1
  O  O144  1  0.31146076  0.31663770  0.12440455  1
  O  O145  1  0.31237720  0.32294107  0.61952592  1
  O  O146  1  0.30154465  0.65619653  0.13515258  1
  O  O147  1  0.30033502  0.65275896  0.61726749  1
  O  O148  1  0.31797224  0.99518349  0.13317007  1
  O  O149  1  0.31514520  0.99798546  0.62193481  1
  O  O150  1  0.65218791  0.34303365  0.12875389  1
  O  O151  1  0.63177154  0.32785195  0.62973049  1
  O  O152  1  0.64859463  0.67850723  0.12774852  1
  O  O153  1  0.63625909  0.65981690  0.61478366  1
  O  O154  1  0.64272624  0.98228160  0.13251534  1
  O  O155  1  0.62673733  0.99262759  0.62000529  1
  O  O156  1  0.96209760  0.32566873  0.12355404  1
  O  O157  1  0.99032900  0.30983728  0.63226803  1
  O  O158  1  0.98065810  0.66689265  0.13046938  1
  O  O159  1  0.98421818  0.65722839  0.62894842  1
  O  O160  1  0.97044583  0.98718788  0.12771451  1
  O  O161  1  0.98831554  1.00279366  0.61787336  1
  O  O162  1  0.20081461  0.16288596  0.12298298  1
  O  O163  1  0.20046027  0.16898879  0.63524552  1
  O  O164  1  0.19980951  0.50028358  0.11871680  1
  O  O165  1  0.19806362  0.49108857  0.63190067  1
  O  O166  1  0.18772358  0.81900051  0.12360976  1
  O  O167  1  0.18424774  0.82462405  0.62424166  1
  O  O168  1  0.51337043  0.16534622  0.12165882  1
  O  O169  1  0.51051726  0.15491675  0.61768964  1
  O  O170  1  0.51673387  0.50112218  0.13295915  1
  O  O171  1  0.53007461  0.48517675  0.62271838  1
  O  O172  1  0.53259779  0.83052865  0.12738684  1
  O  O173  1  0.52503420  0.81754042  0.61250738  1
  O  O174  1  0.86879989  0.15396849  0.12606591  1
  O  O175  1  0.85830745  0.16888585  0.62424006  1
  O  O176  1  0.84979295  0.48943509  0.12573809  1
  O  O177  1  0.86654602  0.49484966  0.61607821  1
  O  O178  1  0.86898301  0.83349145  0.13382908  1
  O  O179  1  0.85405190  0.82502136  0.62145027  1
  O  O180  1  0.14759185  0.17068366  0.36580121  1
  O  O181  1  0.14136662  0.18097376  0.87981946  1
  O  O182  1  0.12903823  0.50832111  0.37672164  1
  O  O183  1  0.12942472  0.50277073  0.87460101  1
  O  O184  1  0.13369906  0.84161917  0.37219898  1
  O  O185  1  0.14807176  0.84197650  0.88508185  1
  O  O186  1  0.46512218  0.17171687  0.38005499  1
  O  O187  1  0.46702343  0.17674890  0.88052485  1
  O  O188  1  0.46613549  0.49980027  0.38022185  1
  O  O189  1  0.48339724  0.52125382  0.86263680  1
  O  O190  1  0.46960930  0.83921058  0.37343850  1
  O  O191  1  0.46630781  0.82420074  0.88313182  1
  O  O192  1  0.81672220  0.16317717  0.37964497  1
  O  O193  1  0.81480591  0.17700035  0.86883477  1
  O  O194  1  0.81139810  0.51950607  0.37545095  1
  O  O195  1  0.81533186  0.50650797  0.87714404  1
  O  O196  1  0.80485787  0.83435180  0.36702550  1
  O  O197  1  0.80577152  0.84071540  0.87861616  1
  O  O198  1  0.03264560  0.00740569  0.37057032  1
  O  O199  1  0.03841141  0.00672552  0.88839356  1
  O  O200  1  0.03169413  0.34672761  0.37422551  1
  O  O201  1  0.02702442  0.35287187  0.87238592  1
  O  O202  1  0.02200793  0.67829905  0.36649645  1
  O  O203  1  0.01868972  0.65356021  0.86890337  1
  O  O204  1  0.37061520  0.01220098  0.37069939  1
  O  O205  1  0.35522087  0.01778987  0.87825314  1
  O  O206  1  0.35562024  0.34356693  0.38090975  1
  O  O207  1  0.37035508  0.34070423  0.87513061  1
  O  O208  1  0.35987507  0.67630520  0.37716485  1
  O  O209  1  0.36321270  0.67381351  0.87580413  1
  O  O210  1  0.67962212  0.00278839  0.36814852  1
  O  O211  1  0.67884070  -0.00142318  0.87796810  1
  O  O212  1  0.67930372  0.33309996  0.37049231  1
  O  O213  1  0.69740229  0.33931562  0.86741983  1
  O  O214  1  0.69695046  0.67007253  0.37149800  1
  O  O215  1  0.67696386  0.67190120  0.88303927  1
  O  O216  1  0.07031093  0.09775342  0.03184664  1
  O  O217  1  0.06414485  0.10274813  0.52351973  1
  O  O218  1  0.07343930  0.43477900  0.01522205  1
  O  O219  1  0.06372669  0.43603415  0.52947817  1
  O  O220  1  0.07787966  0.76132641  0.02652535  1
  O  O221  1  0.07753624  0.75808253  0.51542547  1
  O  O222  1  0.39910473  0.10404200  0.02115511  1
  O  O223  1  0.39697419  0.10481879  0.51859007  1
  O  O224  1  0.39748340  0.43364560  0.02899580  1
  O  O225  1  0.39893065  0.43177548  0.52586774  1
  O  O226  1  0.41005324  0.76146898  0.02138460  1
  O  O227  1  0.41187174  0.75282790  0.51899258  1
  O  O228  1  0.74867895  0.08737116  0.02274321  1
  O  O229  1  0.74351267  0.09363632  0.51374978  1
  O  O230  1  0.74197908  0.43294796  0.01568496  1
  O  O231  1  0.74084953  0.43040877  0.51940681  1
  O  O232  1  0.72984161  0.76457840  0.01781934  1
  O  O233  1  0.73697662  0.74993786  0.50327413  1
  O  O234  1  0.09055127  0.25375182  0.02013790  1
  O  O235  1  0.10557102  0.26601192  0.49891843  1
  O  O236  1  0.10112390  0.59685189  0.02366860  1
  O  O237  1  0.10124361  0.59803397  0.53070234  1
  O  O238  1  0.09451509  0.92382712  0.03027776  1
  O  O239  1  0.09935292  0.94367618  0.50513554  1
  O  O240  1  0.42571223  0.25615485  0.01829717  1
  O  O241  1  0.43012791  0.26562001  0.52781936  1
  O  O242  1  0.42145441  0.59035089  0.02065674  1
  O  O243  1  0.42842404  0.59170836  0.52894088  1
  O  O244  1  0.43074492  0.91947897  0.01615203  1
  O  O245  1  0.43981002  0.92529331  0.51438647  1
  O  O246  1  0.76279150  0.26770309  0.02179412  1
  O  O247  1  0.75992968  0.25324614  0.51320730  1
  O  O248  1  0.75943968  0.59901455  0.01910054  1
  O  O249  1  0.75443089  0.58731418  0.52326461  1
  O  O250  1  0.76109666  0.92425780  0.03849509  1
  O  O251  1  0.75578246  0.92221128  0.50953410  1
  O  O252  1  0.23962550  0.06577817  0.27746133  1
  O  O253  1  0.22819682  0.07540243  0.78160349  1
  O  O254  1  0.23661211  0.40405521  0.28089544  1
  O  O255  1  0.22828774  0.40254583  0.77817357  1
  O  O256  1  0.24896568  0.74085366  0.27392280  1
  O  O257  1  0.24825385  0.74375909  0.77278655  1
  O  O258  1  0.57028989  0.06184403  0.26994912  1
  O  O259  1  0.56520485  0.07111914  0.75497441  1
  O  O260  1  0.57223979  0.41227121  0.26977798  1
  O  O261  1  0.56230276  0.39862722  0.76905956  1
  O  O262  1  0.57845896  0.74398155  0.27587322  1
  O  O263  1  0.55994243  0.72174697  0.76713450  1
  O  O264  1  0.90861542  0.06359068  0.25961176  1
  O  O265  1  0.90982950  0.08794179  0.75690063  1
  O  O266  1  0.90660726  0.42066049  0.27261267  1
  O  O267  1  0.90691769  0.39993738  0.77344499  1
  O  O268  1  0.90258461  0.73886911  0.27811198  1
  O  O269  1  0.91616557  0.73280674  0.76485393  1
  O  O270  1  0.25771254  0.23039131  0.27300710  1
  O  O271  1  0.26157701  0.23678384  0.78099782  1
  O  O272  1  0.27030156  0.56824764  0.27708289  1
  O  O273  1  0.25811112  0.56490079  0.76346669  1
  O  O274  1  0.26702919  0.90717529  0.27924491  1
  O  O275  1  0.26859834  0.90503304  0.78482272  1
  O  O276  1  0.59424113  0.24699430  0.25928707  1
  O  O277  1  0.59190373  0.24774397  0.77503179  1
  O  O278  1  0.59739302  0.57585856  0.26672221  1
  O  O279  1  0.59525819  0.55968915  0.74829946  1
  O  O280  1  0.59913588  0.89779638  0.27558704  1
  O  O281  1  0.60062328  0.88773314  0.77690901  1
  O  O282  1  0.92619782  0.24107455  0.26607318  1
  O  O283  1  0.92727787  0.24654393  0.77219142  1
  O  O284  1  0.92774498  0.57809593  0.27925681  1
  O  O285  1  0.93711113  0.56366439  0.76086029  1
  O  O286  1  0.93692164  0.89765781  0.27165862  1
  O  O287  1  0.92841194  0.91366951  0.76603805  1
  O  O288  1  0.27298364  0.23595524  0.47308778  1
  O  O289  1  0.25622818  0.23553490  0.97476660  1
  O  O290  1  0.27382737  0.56446686  0.47878844  1
  O  O291  1  0.25370532  0.57057253  0.98405300  1
  O  O292  1  0.26519800  0.90254635  0.46331079  1
  O  O293  1  0.25823654  0.90463701  0.97838478  1
  O  O294  1  0.58509112  0.23363675  0.48597788  1
  O  O295  1  0.58461352  0.24105874  0.97966109  1
  O  O296  1  0.59285291  0.56559571  0.48747973  1
  O  O297  1  0.59108864  0.58177910  0.98648481  1
  O  O298  1  0.59020257  0.89748532  0.46270351  1
  O  O299  1  0.59587401  0.89176344  0.98409580  1
  O  O300  1  0.92365599  0.23788964  0.49192643  1
  O  O301  1  0.91964680  0.25080290  0.97092593  1
  O  O302  1  0.92821893  0.56952191  0.47544563  1
  O  O303  1  0.92637118  0.56533326  0.98136316  1
  O  O304  1  0.94113318  0.90803155  0.47324286  1
  O  O305  1  0.93900090  0.90997979  0.98918247  1
  O  O306  1  0.23653920  0.06971720  0.46627800  1
  O  O307  1  0.23275832  0.07481661  0.97656584  1
  O  O308  1  0.23826566  0.39726885  0.47161646  1
  O  O309  1  0.22768108  0.40506976  0.97325988  1
  O  O310  1  0.25213049  0.73871646  0.48102692  1
  O  O311  1  0.24046141  0.74633597  0.98074058  1
  O  O312  1  0.55346376  0.06831006  0.47805126  1
  O  O313  1  0.56768438  0.07977421  0.98855969  1
  O  O314  1  0.56456095  0.40677370  0.49079193  1
  O  O315  1  0.56563282  0.40270135  0.97190177  1
  O  O316  1  0.57731436  0.73860425  0.46906295  1
  O  O317  1  0.56936313  0.73615000  0.97778568  1
  O  O318  1  0.90729295  0.07174236  0.48520669  1
  O  O319  1  0.91613129  0.06815802  0.98742185  1
  O  O320  1  0.90694711  0.41383443  0.47305400  1
  O  O321  1  0.89633156  0.41095717  0.97497765  1
  O  O322  1  0.90736312  0.73887336  0.46732100  1
  O  O323  1  0.90981791  0.74281705  0.98539265  1
  O  O324  1  0.09455521  0.24971977  0.22588907  1
  O  O325  1  0.10296818  0.27047630  0.74884097  1
  O  O326  1  0.09694327  0.60866023  0.22593423  1
  O  O327  1  0.09907901  0.59096011  0.72046814  1
  O  O328  1  0.09067442  0.92913970  0.23186928  1
  O  O329  1  0.10278676  0.93368637  0.74850163  1
  O  O330  1  0.41989258  0.25355364  0.23422678  1
  O  O331  1  0.43124402  0.26866465  0.72256106  1
  O  O332  1  0.42254939  0.59003211  0.22957037  1
  O  O333  1  0.43278284  0.58952597  0.71243502  1
  O  O334  1  0.43381939  0.92887258  0.24069706  1
  O  O335  1  0.43894289  0.93542240  0.72476252  1
  O  O336  1  0.75820211  0.26727745  0.22592632  1
  O  O337  1  0.76155787  0.26910338  0.73384495  1
  O  O338  1  0.76292983  0.60029883  0.23673204  1
  O  O339  1  0.75334750  0.58395043  0.72483438  1
  O  O340  1  0.76584375  0.92795326  0.22322073  1
  O  O341  1  0.75830205  0.92771918  0.72943468  1
  O  O342  1  0.06609179  0.09489270  0.22349163  1
  O  O343  1  0.07218113  0.10836676  0.73025883  1
  O  O344  1  0.07320957  0.42764327  0.22935713  1
  O  O345  1  0.06433575  0.43399873  0.72961481  1
  O  O346  1  0.06388295  0.76482124  0.22647560  1
  O  O347  1  0.07913534  0.74766180  0.73316967  1
  O  O348  1  0.39479026  0.09669518  0.23243531  1
  O  O349  1  0.38864036  0.11094619  0.73411589  1
  O  O350  1  0.40115058  0.43750006  0.23623523  1
  O  O351  1  0.40488474  0.43606727  0.72053843  1
  O  O352  1  0.40559873  0.76064908  0.23952925  1
  O  O353  1  0.41149576  0.75317471  0.71871874  1
  O  O354  1  0.73902391  0.08369853  0.22618810  1
  O  O355  1  0.74618016  0.09861779  0.73528867  1
  O  O356  1  0.74613909  0.42656155  0.22961752  1
  O  O357  1  0.72978171  0.42441891  0.71941850  1
  O  O358  1  0.73567103  0.77113447  0.23139960  1
  O  O359  1  0.73770496  0.75679871  0.74841515  1
