# generated using pymatgen
data_BaLaInIrO6
_symmetry_space_group_name_H-M   'P 1'
_cell_length_a   17.54011294
_cell_length_b   17.57562662
_cell_length_c   16.51847473
_cell_angle_alpha   90.00113181
_cell_angle_beta   89.98988293
_cell_angle_gamma   89.96078985
_symmetry_Int_Tables_number   1
_chemical_formula_structural   BaLaInIrO6
_chemical_formula_sum   'Ba36 La36 In36 Ir36 O216'
_cell_volume   5092.28894476
_cell_formula_units_Z   36
loop_
 _symmetry_equiv_pos_site_id
 _symmetry_equiv_pos_as_xyz
  1  'x, y, z'
loop_
 _atom_site_type_symbol
 _atom_site_label
 _atom_site_symmetry_multiplicity
 _atom_site_fract_x
 _atom_site_fract_y
 _atom_site_fract_z
 _atom_site_occupancy
  Ba  Ba0  1  0.16986026  0.34005176  0.62711002  1
  Ba  Ba1  1  0.16745216  0.99118332  0.87276065  1
  Ba  Ba2  1  0.49859511  0.65922072  0.87342197  1
  Ba  Ba3  1  0.66857456  0.51159968  0.62948540  1
  Ba  Ba4  1  0.66854442  0.84105896  0.12807782  1
  Ba  Ba5  1  0.00103022  0.16129562  0.87410463  1
  Ba  Ba6  1  0.32997945  0.16325953  0.37330688  1
  Ba  Ba7  1  0.32982504  0.82670254  0.37721427  1
  Ba  Ba8  1  0.49911103  0.34445838  0.62479203  1
  Ba  Ba9  1  0.16823446  0.99199492  0.37513546  1
  Ba  Ba10  1  0.33374003  0.84078849  0.62338045  1
  Ba  Ba11  1  0.50090490  0.98887756  0.87536259  1
  Ba  Ba12  1  0.16824982  0.33500657  0.12747486  1
  Ba  Ba13  1  0.15968046  0.67807258  0.12896997  1
  Ba  Ba14  1  0.33471043  0.50640326  0.62634376  1
  Ba  Ba15  1  0.50057880  0.65920864  0.37299676  1
  Ba  Ba16  1  0.50688511  0.32354650  0.86607745  1
  Ba  Ba17  1  1.00003612  0.50846818  0.12300955  1
  Ba  Ba18  1  0.00072434  0.49176274  0.87613451  1
  Ba  Ba19  1  0.00189087  0.15790986  0.37465664  1
  Ba  Ba20  1  0.83708109  0.32867901  0.87515466  1
  Ba  Ba21  1  1.00111878  0.84448336  0.12730009  1
  Ba  Ba22  1  0.16074497  0.00476772  0.12573925  1
  Ba  Ba23  1  0.33028943  0.84470225  0.12923018  1
  Ba  Ba24  1  0.16303147  0.32348340  0.87667015  1
  Ba  Ba25  1  0.00027633  0.49374224  0.37123812  1
  Ba  Ba26  1  1.00213303  0.50826590  0.62510521  1
  Ba  Ba27  1  0.50127006  0.67195396  0.62626889  1
  Ba  Ba28  1  0.66863502  0.51127268  0.12178366  1
  Ba  Ba29  1  0.16910111  0.00840658  0.62145162  1
  Ba  Ba30  1  0.00294528  0.82713663  0.87290042  1
  Ba  Ba31  1  0.66718828  0.49153613  0.87351751  1
  Ba  Ba32  1  0.83543622  0.67291807  0.12536750  1
  Ba  Ba33  1  0.83478869  0.65841684  0.37385883  1
  Ba  Ba34  1  0.33140268  0.49745576  0.37958864  1
  Ba  Ba35  1  0.17020507  0.65976999  0.37401089  1
  La  La36  1  0.16915064  0.64785786  0.87783193  1
  La  La37  1  0.32852421  0.15078749  0.87477807  1
  La  La38  1  0.49347655  0.01728361  0.62600224  1
  La  La39  1  -0.00042961  0.81837147  0.37365976  1
  La  La40  1  0.33833990  0.17598997  0.63173118  1
  La  La41  1  0.66085846  0.15183353  0.86726160  1
  La  La42  1  1.00234154  0.18649949  0.62553915  1
  La  La43  1  0.83259404  0.01400297  0.62811878  1
  La  La44  1  0.66018639  0.15071210  0.37710722  1
  La  La45  1  0.33107225  0.17574565  0.12117274  1
  La  La46  1  0.65820046  0.48313552  0.37561554  1
  La  La47  1  0.83752604  0.65087862  0.87498596  1
  La  La48  1  0.33875159  0.51963603  0.12480223  1
  La  La49  1  0.83107809  0.34926452  0.12524294  1
  La  La50  1  0.16501664  0.33595343  0.38854377  1
  La  La51  1  1.00005604  0.17137102  0.12231811  1
  La  La52  1  0.83639231  0.32059881  0.37414999  1
  La  La53  1  0.48965279  0.34873687  0.12088630  1
  La  La54  1  0.66929371  0.84413844  0.62776970  1
  La  La55  1  0.32354281  0.81628237  0.87378909  1
  La  La56  1  0.49365425  0.68654290  0.11990470  1
  La  La57  1  0.84040988  0.98722333  0.87714585  1
  La  La58  1  0.66297749  0.81726376  0.87825321  1
  La  La59  1  0.82873581  0.35156432  0.62366638  1
  La  La60  1  0.66183157  0.81590141  0.37389814  1
  La  La61  1  0.83127985  0.01070423  0.12427191  1
  La  La62  1  0.67116418  0.18025903  0.12588469  1
  La  La63  1  0.32925715  0.47829142  0.87290020  1
  La  La64  1  0.49511875  0.01295456  0.12248789  1
  La  La65  1  0.50634291  0.31970350  0.37956671  1
  La  La66  1  1.00372149  0.84552778  0.62296935  1
  La  La67  1  0.66954110  0.18673666  0.62332877  1
  La  La68  1  0.50210249  0.98683329  0.37698237  1
  La  La69  1  0.83991606  0.98258864  0.37668036  1
  La  La70  1  0.82639062  0.68384268  0.62906421  1
  La  La71  1  0.16606206  0.67820678  0.61908003  1
  In  In72  1  0.83249245  0.16553654  0.49929556  1
  In  In73  1  0.66496837  0.33055894  -0.00059436  1
  In  In74  1  0.00214930  0.66942917  -0.00284222  1
  In  In75  1  -0.00214148  0.00102066  0.74702714  1
  In  In76  1  -0.00198355  0.32925741  0.25138587  1
  In  In77  1  0.82897178  0.49986340  0.25673789  1
  In  In78  1  0.83171208  0.16738449  0.74960073  1
  In  In79  1  0.83184142  0.83467548  0.25193152  1
  In  In80  1  0.16918219  0.49453942  0.24951114  1
  In  In81  1  0.50166876  0.83403153  0.75205949  1
  In  In82  1  0.50308337  0.16649305  0.24883503  1
  In  In83  1  0.49931466  0.50209395  0.74987237  1
  In  In84  1  0.33541698  0.66817314  0.50264640  1
  In  In85  1  0.66933716  -0.00017996  0.50316558  1
  In  In86  1  0.33425408  0.67003351  0.24793423  1
  In  In87  1  0.83002656  0.16723354  0.00195921  1
  In  In88  1  0.50492136  0.83472950  0.50232530  1
  In  In89  1  0.50110143  0.83955939  0.24728012  1
  In  In90  1  0.66960436  0.66370742  0.50054199  1
  In  In91  1  0.00032475  0.66805104  0.74626703  1
  In  In92  1  0.50293774  0.16635841  -0.00356470  1
  In  In93  1  0.33566622  0.33326129  0.25080868  1
  In  In94  1  0.49955001  0.50052670  -0.00211833  1
  In  In95  1  0.83196527  0.83292834  -0.00168297  1
  In  In96  1  0.16696485  0.16614363  0.74879572  1
  In  In97  1  -0.00135932  0.32885825  0.00269148  1
  In  In98  1  0.33557151  0.00286924  0.49725038  1
  In  In99  1  0.16569552  0.16689436  0.49804711  1
  In  In100  1  0.33481482  -0.00467099  0.75119990  1
  In  In101  1  0.16728957  0.83544527  0.00028520  1
  In  In102  1  0.17072129  0.49557872  0.00341180  1
  In  In103  1  0.16346953  0.50343840  0.50281969  1
  In  In104  1  0.50139461  0.50075628  0.24776857  1
  In  In105  1  0.33677942  0.33283100  0.49858224  1
  In  In106  1  0.66661889  -0.00121296  0.00222889  1
  In  In107  1  0.83166444  0.50045326  0.00027897  1
  Ir  Ir108  1  0.83232102  0.50130770  0.50141522  1
  Ir  Ir109  1  0.50386809  0.49725988  0.49826239  1
  Ir  Ir110  1  -0.00597256  -0.00398198  0.49805335  1
  Ir  Ir111  1  0.15873526  0.83463682  0.50254062  1
  Ir  Ir112  1  -0.00475924  0.00152861  0.25547186  1
  Ir  Ir113  1  0.67153285  0.33465625  0.49864233  1
  Ir  Ir114  1  0.33532757  0.32846225  -0.00162130  1
  Ir  Ir115  1  -0.00536692  0.33417492  0.49974316  1
  Ir  Ir116  1  0.33565429  0.00015249  0.00291160  1
  Ir  Ir117  1  -0.00295170  0.00159337  0.00004173  1
  Ir  Ir118  1  0.50467309  0.16765875  0.50179578  1
  Ir  Ir119  1  0.16331208  0.83997236  0.25564708  1
  Ir  Ir120  1  -0.00855403  0.67004647  0.50207581  1
  Ir  Ir121  1  0.32775636  0.66601173  0.75402211  1
  Ir  Ir122  1  0.83551667  0.83542886  0.50495265  1
  Ir  Ir123  1  0.16569604  0.82913242  0.74646493  1
  Ir  Ir124  1  0.66886091  0.00347042  0.25391601  1
  Ir  Ir125  1  0.67157523  0.67064529  0.75330770  1
  Ir  Ir126  1  0.33682442  0.32862579  0.75384856  1
  Ir  Ir127  1  0.16676568  0.16255137  0.24381229  1
  Ir  Ir128  1  0.83467836  0.50136478  0.74515687  1
  Ir  Ir129  1  0.66328045  0.67042011  -0.00080364  1
  Ir  Ir130  1  0.49675532  0.83389604  -0.00199639  1
  Ir  Ir131  1  0.82804759  0.16360353  0.25351391  1
  Ir  Ir132  1  0.16947492  0.16061522  0.00169432  1
  Ir  Ir133  1  -0.00171377  0.33645187  0.74538670  1
  Ir  Ir134  1  0.00066830  0.66940776  0.25511783  1
  Ir  Ir135  1  0.50361418  0.16645950  0.74702769  1
  Ir  Ir136  1  0.67071506  0.33294322  0.74377305  1
  Ir  Ir137  1  0.66810900  0.00044984  0.74707639  1
  Ir  Ir138  1  0.33410220  0.00593349  0.24453900  1
  Ir  Ir139  1  0.66717074  0.32721807  0.25413170  1
  Ir  Ir140  1  0.17038058  0.49955410  0.75084288  1
  Ir  Ir141  1  0.82899719  0.83568824  0.74747630  1
  Ir  Ir142  1  0.66564159  0.66648160  0.24924091  1
  Ir  Ir143  1  0.33467225  0.66697267  -0.00475913  1
  O  O144  1  0.31828557  0.31504312  0.11684974  1
  O  O145  1  0.31963037  0.31695270  0.63230081  1
  O  O146  1  0.31140425  0.66213249  0.11286691  1
  O  O147  1  0.30148836  0.66553792  0.63629354  1
  O  O148  1  0.31118454  1.00146829  0.12302291  1
  O  O149  1  0.32143218  1.00294080  0.62447732  1
  O  O150  1  0.62892701  0.31632428  0.13768270  1
  O  O151  1  0.64575859  0.32541565  0.62036356  1
  O  O152  1  0.63251458  0.66797369  0.12246505  1
  O  O153  1  0.65407643  0.67266145  0.63258988  1
  O  O154  1  0.63255253  0.99525144  0.13624909  1
  O  O155  1  0.63070618  0.98498986  0.63027065  1
  O  O156  1  0.96405811  0.31053604  0.13011768  1
  O  O157  1  0.96656455  0.32952790  0.62100607  1
  O  O158  1  0.98683370  0.67085005  0.13385561  1
  O  O159  1  0.96202417  0.66846183  0.62098572  1
  O  O160  1  0.96750062  1.00196670  0.12814998  1
  O  O161  1  0.96516743  0.98380372  0.61751941  1
  O  O162  1  0.19685321  0.15592405  0.12165113  1
  O  O163  1  0.19960846  0.16998413  0.62439026  1
  O  O164  1  0.20599563  0.49110924  0.12456600  1
  O  O165  1  0.18329502  0.49499205  0.63217110  1
  O  O166  1  0.17828962  0.84058219  0.13383569  1
  O  O167  1  0.18438531  0.82073078  0.62483031  1
  O  O168  1  0.53533373  0.14955909  0.12517223  1
  O  O169  1  0.53650080  0.15609675  0.62393925  1
  O  O170  1  0.52232074  0.48242377  0.12328751  1
  O  O171  1  0.51822828  0.50270643  0.61958283  1
  O  O172  1  0.51984126  0.83269940  0.11774811  1
  O  O173  1  0.53585737  0.82715047  0.62887253  1
  O  O174  1  0.86274147  0.14820353  0.13767139  1
  O  O175  1  0.86842535  0.15108475  0.62305941  1
  O  O176  1  0.84502921  0.49148026  0.13058645  1
  O  O177  1  0.85543665  0.48924413  0.62131767  1
  O  O178  1  0.84819332  0.83310470  0.12632592  1
  O  O179  1  0.86638390  0.82229851  0.62637314  1
  O  O180  1  0.14950870  0.17987868  0.36299622  1
  O  O181  1  0.15183154  0.16337564  0.88077693  1
  O  O182  1  0.14963357  0.49800591  0.37685238  1
  O  O183  1  0.15447094  0.50574717  0.87061473  1
  O  O184  1  0.13361182  0.83829410  0.38124507  1
  O  O185  1  0.15360166  0.83346168  0.86570983  1
  O  O186  1  0.48410465  0.17753277  0.38068468  1
  O  O187  1  0.46941454  0.16805206  0.86666302  1
  O  O188  1  0.48761005  0.49476919  0.37826876  1
  O  O189  1  0.46770463  0.50183111  0.87425396  1
  O  O190  1  0.48236290  0.85087235  0.37298861  1
  O  O191  1  0.46472324  0.83426883  0.87924352  1
  O  O192  1  0.79473126  0.17814216  0.37320307  1
  O  O193  1  0.79689485  0.17119168  0.87396432  1
  O  O194  1  0.79628359  0.50359331  0.38432194  1
  O  O195  1  0.81615767  0.50791920  0.86596502  1
  O  O196  1  0.79947403  0.84500562  0.38404040  1
  O  O197  1  0.79675132  0.85275261  0.86558840  1
  O  O198  1  0.02028779  0.00424550  0.37754836  1
  O  O199  1  0.01449497  0.00448052  0.87843562  1
  O  O200  1  0.02609781  0.33089654  0.38054970  1
  O  O201  1  0.01048138  0.33382974  0.86622914  1
  O  O202  1  0.01959871  0.67756500  0.38088221  1
  O  O203  1  0.03353712  0.66985468  0.86786505  1
  O  O204  1  0.36551422  0.00687164  0.36527329  1
  O  O205  1  0.35378903  0.01001552  0.88266172  1
  O  O206  1  0.37351345  0.33079855  0.37470692  1
  O  O207  1  0.35917484  0.33979344  0.87759163  1
  O  O208  1  0.34740435  0.66932622  0.37505857  1
  O  O209  1  0.35193432  0.67884293  0.87495966  1
  O  O210  1  0.70406092  0.01540540  0.37280991  1
  O  O211  1  0.70353524  0.01505533  0.86570570  1
  O  O212  1  0.70112471  0.34209123  0.37628038  1
  O  O213  1  0.68743535  0.33089971  0.86321520  1
  O  O214  1  0.68613925  0.67455567  0.36958780  1
  O  O215  1  0.69902090  0.67668891  0.87567466  1
  O  O216  1  0.06818299  0.09614643  0.02356636  1
  O  O217  1  0.05924906  0.09193482  0.52373320  1
  O  O218  1  0.07864096  0.41756787  0.01392979  1
  O  O219  1  0.06939984  0.41865742  0.51365935  1
  O  O220  1  0.07417140  0.76421756  0.01429804  1
  O  O221  1  0.05838009  0.76683386  0.52155168  1
  O  O222  1  0.40444451  0.09298714  0.02446112  1
  O  O223  1  0.41371656  0.10231616  0.53021309  1
  O  O224  1  0.39641119  0.42482933  0.02280051  1
  O  O225  1  0.41508208  0.42720362  0.51581032  1
  O  O226  1  0.40344967  0.76221342  0.02022723  1
  O  O227  1  0.41030979  0.76017238  0.51841309  1
  O  O228  1  0.73839689  0.09438629  0.03762792  1
  O  O229  1  0.73294395  0.09931925  0.52920281  1
  O  O230  1  0.74061173  0.42185927  0.01544031  1
  O  O231  1  0.73988399  0.42863484  0.52251582  1
  O  O232  1  0.72734560  0.76453515  0.00696662  1
  O  O233  1  0.74376822  0.76828881  0.52973413  1
  O  O234  1  0.09576350  0.24587623  0.02086462  1
  O  O235  1  0.07999504  0.25792056  0.52269237  1
  O  O236  1  0.10054077  0.59445563  0.00673957  1
  O  O237  1  0.08578252  0.60561149  0.52574759  1
  O  O238  1  0.08784516  0.93297376  0.00857408  1
  O  O239  1  0.08446102  0.92409542  0.52504367  1
  O  O240  1  0.43037274  0.26262933  0.02199403  1
  O  O241  1  0.43250851  0.25366895  0.52126419  1
  O  O242  1  0.42746095  0.60047049  0.02556824  1
  O  O243  1  0.43314339  0.58635958  0.51150212  1
  O  O244  1  0.43284148  0.93370566  0.02392932  1
  O  O245  1  0.44221271  0.94189524  0.51411139  1
  O  O246  1  0.76079218  0.26148795  0.04109190  1
  O  O247  1  0.76252882  0.26639641  0.52535396  1
  O  O248  1  0.75589235  0.60316829  0.00810706  1
  O  O249  1  0.77144087  0.59830824  0.52687435  1
  O  O250  1  0.76774387  0.93633256  0.01698277  1
  O  O251  1  0.77252797  0.92989582  0.53055700  1
  O  O252  1  0.23952093  0.07274962  0.26441392  1
  O  O253  1  0.24874896  0.07782791  0.76983253  1
  O  O254  1  0.23363565  0.38959090  0.28181981  1
  O  O255  1  0.24637085  0.40574357  0.77638778  1
  O  O256  1  0.23611984  0.75256651  0.26412346  1
  O  O257  1  0.23057378  0.73136996  0.77367511  1
  O  O258  1  0.57419511  0.06731027  0.28228426  1
  O  O259  1  0.57769311  0.07486814  0.77278176  1
  O  O260  1  0.57515397  0.39468926  0.28013258  1
  O  O261  1  0.58375146  0.40897245  0.75934993  1
  O  O262  1  0.58047289  0.74198673  0.26352752  1
  O  O263  1  0.58461519  0.74412457  0.77770408  1
  O  O264  1  0.89392943  0.06586822  0.27744629  1
  O  O265  1  0.89253587  0.06236913  0.76688774  1
  O  O266  1  0.89635160  0.39881850  0.27515437  1
  O  O267  1  0.90078203  0.40399138  0.75558752  1
  O  O268  1  0.91528912  0.74583232  0.27377609  1
  O  O269  1  0.89177584  0.73964330  0.77098019  1
  O  O270  1  0.26212328  0.22713670  0.24679725  1
  O  O271  1  0.27026377  0.23644941  0.77452325  1
  O  O272  1  0.26608695  0.57062812  0.25325036  1
  O  O273  1  0.26298899  0.56850560  0.77899335  1
  O  O274  1  0.26103625  0.91125143  0.26913275  1
  O  O275  1  0.26299573  0.89399532  0.76964520  1
  O  O276  1  0.60588830  0.23378540  0.28028873  1
  O  O277  1  0.60418629  0.23344734  0.76238019  1
  O  O278  1  0.60287739  0.56949353  0.27250407  1
  O  O279  1  0.59802271  0.58236906  0.76756735  1
  O  O280  1  0.60539639  0.91026999  0.28128080  1
  O  O281  1  0.60930813  0.90510122  0.77671391  1
  O  O282  1  0.91306671  0.23511951  0.27912732  1
  O  O283  1  0.93018901  0.24377862  0.75422301  1
  O  O284  1  0.92661429  0.58104144  0.26392724  1
  O  O285  1  0.92122280  0.57466862  0.76739578  1
  O  O286  1  0.92744683  0.91003281  0.28373256  1
  O  O287  1  0.91874288  0.90427646  0.76538551  1
  O  O288  1  0.24724806  0.25354146  0.47345768  1
  O  O289  1  0.27197318  0.22549942  0.98180952  1
  O  O290  1  0.25216250  0.58379700  0.49826902  1
  O  O291  1  0.27341269  0.57144574  0.97212158  1
  O  O292  1  0.25018497  0.90503805  0.48942852  1
  O  O293  1  0.26940362  0.90420664  0.97927327  1
  O  O294  1  0.60351537  0.23738165  0.47565296  1
  O  O295  1  0.60699632  0.22663627  0.97495034  1
  O  O296  1  0.60048674  0.56227990  0.47916915  1
  O  O297  1  0.59560068  0.58007978  0.98275987  1
  O  O298  1  0.60781698  0.90265986  0.47337867  1
  O  O299  1  0.59394379  0.89691524  0.97463218  1
  O  O300  1  0.92257566  0.24668838  0.48027793  1
  O  O301  1  0.93028441  0.22931091  0.98978217  1
  O  O302  1  0.92615592  0.57131463  0.48119329  1
  O  O303  1  0.92049950  0.58020149  0.98124610  1
  O  O304  1  0.92972959  0.90020495  0.47278142  1
  O  O305  1  0.92701200  0.91295012  0.97793375  1
  O  O306  1  0.24334282  0.07722423  0.48010522  1
  O  O307  1  0.24500740  0.07218648  0.97859186  1
  O  O308  1  0.24165798  0.40914276  0.48592120  1
  O  O309  1  0.24879613  0.39971294  0.97602689  1
  O  O310  1  0.22764967  0.74545199  0.49301338  1
  O  O311  1  0.24178043  0.73475455  0.97097091  1
  O  O312  1  0.56988641  0.07346077  0.47559634  1
  O  O313  1  0.57613383  0.07087235  0.97627071  1
  O  O314  1  0.57649916  0.40212662  0.47210249  1
  O  O315  1  0.56664812  0.39891144  0.98780675  1
  O  O316  1  0.58354830  0.74329605  0.47602443  1
  O  O317  1  0.56531265  0.73900126  0.98274942  1
  O  O318  1  0.89811510  0.06020362  0.47819228  1
  O  O319  1  0.90045219  0.06342998  0.98501508  1
  O  O320  1  0.89669978  0.40203709  0.47712607  1
  O  O321  1  0.90366067  0.40307500  0.99769632  1
  O  O322  1  0.90205305  0.74374147  0.47916710  1
  O  O323  1  0.89947389  0.73793214  0.96866495  1
  O  O324  1  0.08727403  0.24150288  0.22143538  1
  O  O325  1  0.08572398  0.26154921  0.73022347  1
  O  O326  1  0.08620937  0.59580283  0.24135999  1
  O  O327  1  0.10623566  0.59549815  0.72951262  1
  O  O328  1  0.08748070  0.93174821  0.23844721  1
  O  O329  1  0.09200561  0.91913195  0.72731067  1
  O  O330  1  0.43856769  0.26570493  0.22668069  1
  O  O331  1  0.42632830  0.25261589  0.72361486  1
  O  O332  1  0.43441190  0.59910308  0.21714550  1
  O  O333  1  0.41802914  0.59721829  0.73453192  1
  O  O334  1  0.43326000  0.94411247  0.22789015  1
  O  O335  1  0.43806723  0.93425616  0.72704876  1
  O  O336  1  0.76335246  0.26014644  0.22473193  1
  O  O337  1  0.75947251  0.26136521  0.71480753  1
  O  O338  1  0.75323099  0.59655568  0.23415171  1
  O  O339  1  0.76969520  0.60268606  0.73141820  1
  O  O340  1  0.76495715  0.94206397  0.23260517  1
  O  O341  1  0.76028677  0.93127558  0.71542815  1
  O  O342  1  0.06466619  0.09441419  0.22845521  1
  O  O343  1  0.06579712  0.09849231  0.72163653  1
  O  O344  1  0.07173790  0.42167263  0.22988812  1
  O  O345  1  0.07339062  0.42779724  0.73412957  1
  O  O346  1  0.06793519  0.77054395  0.24826383  1
  O  O347  1  0.07308862  0.76288853  0.71519073  1
  O  O348  1  0.40277011  0.09630825  0.21919910  1
  O  O349  1  0.41260816  0.09818988  0.72597651  1
  O  O350  1  0.40127773  0.43161151  0.21849528  1
  O  O351  1  0.40568087  0.41989575  0.73933723  1
  O  O352  1  0.41444359  0.75890525  0.22613759  1
  O  O353  1  0.39686160  0.75862047  0.74121823  1
  O  O354  1  0.73160558  0.09956958  0.22680636  1
  O  O355  1  0.73037133  0.09396038  0.71546901  1
  O  O356  1  0.73266503  0.41677503  0.23301701  1
  O  O357  1  0.74578567  0.42175126  0.72218211  1
  O  O358  1  0.73548531  0.75892883  0.24127781  1
  O  O359  1  0.73667756  0.76794565  0.72621283  1
