# generated using pymatgen
data_BaLaInIrO6
_symmetry_space_group_name_H-M   'P 1'
_cell_length_a   17.51904657
_cell_length_b   17.54515762
_cell_length_c   16.50048531
_cell_angle_alpha   90.03913078
_cell_angle_beta   90.02081884
_cell_angle_gamma   89.97314876
_symmetry_Int_Tables_number   1
_chemical_formula_structural   BaLaInIrO6
_chemical_formula_sum   'Ba36 La36 In36 Ir36 O216'
_cell_volume   5071.82524793
_cell_formula_units_Z   36
loop_
 _symmetry_equiv_pos_site_id
 _symmetry_equiv_pos_as_xyz
  1  'x, y, z'
loop_
 _atom_site_type_symbol
 _atom_site_label
 _atom_site_symmetry_multiplicity
 _atom_site_fract_x
 _atom_site_fract_y
 _atom_site_fract_z
 _atom_site_occupancy
  Ba  Ba0  1  1.00129379  0.16937552  0.12290251  1
  Ba  Ba1  1  0.16513128  0.65895705  0.37432397  1
  Ba  Ba2  1  0.32859141  0.82738600  0.37414303  1
  Ba  Ba3  1  0.49933099  0.01450752  0.12307025  1
  Ba  Ba4  1  0.32936372  0.48785467  0.87861546  1
  Ba  Ba5  1  0.83671912  0.32579537  0.86977396  1
  Ba  Ba6  1  0.16303221  0.67203757  0.62743511  1
  Ba  Ba7  1  0.66476072  0.49170175  0.87975049  1
  Ba  Ba8  1  0.32951538  0.82766857  0.88236514  1
  Ba  Ba9  1  0.16654643  0.99348439  0.37176372  1
  Ba  Ba10  1  0.33139762  0.17621633  0.12036026  1
  Ba  Ba11  1  0.16174261  0.68082352  0.12713321  1
  Ba  Ba12  1  0.50077249  0.34733333  0.62286954  1
  Ba  Ba13  1  0.83145975  0.67509689  0.12505342  1
  Ba  Ba14  1  0.83497829  0.99231526  0.87373952  1
  Ba  Ba15  1  0.67202493  0.84090879  0.12581032  1
  Ba  Ba16  1  0.17037441  0.00836005  0.12450192  1
  Ba  Ba17  1  0.50202342  0.32971248  0.87143921  1
  Ba  Ba18  1  0.99853856  0.84041917  0.62482444  1
  Ba  Ba19  1  0.83519817  0.32154191  0.37363543  1
  Ba  Ba20  1  0.49792396  0.67806277  0.12488844  1
  Ba  Ba21  1  0.66509140  0.50811746  0.12472876  1
  Ba  Ba22  1  0.16587997  0.99472445  0.87742480  1
  Ba  Ba23  1  0.83387193  0.34182673  0.62287751  1
  Ba  Ba24  1  0.33799711  0.16328965  0.87128279  1
  Ba  Ba25  1  0.00086741  0.49381135  0.87746171  1
  Ba  Ba26  1  1.00161623  0.84536551  0.12541205  1
  Ba  Ba27  1  0.83178728  0.00905157  0.62421454  1
  Ba  Ba28  1  0.83021492  0.67602451  0.62790395  1
  Ba  Ba29  1  0.33526778  0.51241625  0.62713537  1
  Ba  Ba30  1  1.00036333  0.17073090  0.62444479  1
  Ba  Ba31  1  0.49851060  0.65613432  0.87943038  1
  Ba  Ba32  1  -0.00259177  0.82722010  0.87394942  1
  Ba  Ba33  1  0.99964349  0.50316303  0.62788718  1
  Ba  Ba34  1  -0.00615160  0.14580431  0.37461424  1
  Ba  Ba35  1  0.67133831  0.50881236  0.63021790  1
  La  La36  1  0.32759845  0.48740619  0.37343782  1
  La  La37  1  0.83501328  0.65331361  0.37339271  1
  La  La38  1  -0.00203553  0.14730688  0.87394211  1
  La  La39  1  0.00095740  0.81985438  0.37492156  1
  La  La40  1  0.49827547  0.01704096  0.62240262  1
  La  La41  1  0.66497163  0.48388758  0.37626172  1
  La  La42  1  0.33009068  0.15423588  0.37016138  1
  La  La43  1  0.66555886  0.15114646  0.37296346  1
  La  La44  1  0.17246477  0.65293897  0.87916229  1
  La  La45  1  0.51014389  0.98527323  0.87316717  1
  La  La46  1  0.84076813  0.97933879  0.37720507  1
  La  La47  1  0.32475462  0.84016218  0.62787219  1
  La  La48  1  1.00307951  0.51698916  0.12848106  1
  La  La49  1  0.50423389  0.31786850  0.36924729  1
  La  La50  1  0.50486187  0.33567041  0.11788230  1
  La  La51  1  0.66206992  0.81622114  0.87789546  1
  La  La52  1  0.16193204  0.00305275  0.62889535  1
  La  La53  1  0.17119673  0.32105524  0.87137129  1
  La  La54  1  0.83109437  0.34757317  0.12315148  1
  La  La55  1  0.16117665  0.35005747  0.12328391  1
  La  La56  1  0.66346531  0.15342172  0.87295464  1
  La  La57  1  0.33548895  0.51414388  0.12721714  1
  La  La58  1  0.50287735  0.64953752  0.37903854  1
  La  La59  1  0.83230317  0.65483672  0.87763362  1
  La  La60  1  0.33607578  0.18533016  0.62139201  1
  La  La61  1  0.83858947  0.00659416  0.13000113  1
  La  La62  1  0.16774443  0.31963153  0.37684203  1
  La  La63  1  0.49396809  0.68067771  0.62931703  1
  La  La64  1  0.33558824  0.85506209  0.12912790  1
  La  La65  1  0.67533743  0.84694474  0.62608802  1
  La  La66  1  -0.00452090  0.48597968  0.37577515  1
  La  La67  1  0.67927742  0.18006761  0.62821422  1
  La  La68  1  0.50151744  0.98383577  0.37169505  1
  La  La69  1  0.66174003  0.81508716  0.37927117  1
  La  La70  1  0.16039859  0.34778846  0.62622772  1
  La  La71  1  0.67514815  0.17237724  0.12399335  1
  In  In72  1  0.33664830  -0.00036293  0.74836820  1
  In  In73  1  0.16513354  0.16815684  0.24763877  1
  In  In74  1  0.33281594  0.33352672  0.24747036  1
  In  In75  1  0.33428211  0.67092536  0.25144514  1
  In  In76  1  0.49862000  0.83363299  0.00238124  1
  In  In77  1  0.50312566  0.16692049  0.74599689  1
  In  In78  1  0.16904865  0.16378066  0.74713178  1
  In  In79  1  0.66439501  0.33080249  0.49649701  1
  In  In80  1  0.50067929  0.50215154  0.74947709  1
  In  In81  1  0.83328701  0.83554962  -0.00073292  1
  In  In82  1  0.16573530  0.83118524  0.75538930  1
  In  In83  1  0.83603444  0.16904205  -0.00218291  1
  In  In84  1  0.00108665  0.32873285  0.49850415  1
  In  In85  1  0.33283365  0.66936015  0.75454983  1
  In  In86  1  0.50144566  0.83505987  0.50431421  1
  In  In87  1  0.00126550  0.32997074  0.75199734  1
  In  In88  1  -0.00231742  0.66404481  0.50206758  1
  In  In89  1  -0.00033396  0.33063659  0.24658820  1
  In  In90  1  0.66643751  0.66527273  0.00162422  1
  In  In91  1  0.66566029  0.66521233  0.25427721  1
  In  In92  1  0.49702605  0.49616176  0.25148237  1
  In  In93  1  0.66849385  -0.00244554  0.25277191  1
  In  In94  1  0.00013854  0.66826591  -0.00093752  1
  In  In95  1  0.49632936  0.49626351  0.00223303  1
  In  In96  1  0.83036041  0.50068113  0.50037195  1
  In  In97  1  0.83190151  0.49881016  0.24922429  1
  In  In98  1  0.16645964  0.49980145  0.75182490  1
  In  In99  1  0.33388972  0.66868137  0.50007788  1
  In  In100  1  0.50155190  0.16658905  0.49627106  1
  In  In101  1  0.33395375  0.00220752  0.50069729  1
  In  In102  1  0.66930640  0.00169572  0.00110225  1
  In  In103  1  0.66684548  -0.00141255  0.49778766  1
  In  In104  1  0.16865376  0.16502707  0.49916985  1
  In  In105  1  0.16485861  0.83325011  0.49836942  1
  In  In106  1  0.66923686  0.33210597  0.75278885  1
  In  In107  1  0.33676862  0.00660118  -0.00397469  1
  Ir  Ir108  1  0.32579149  0.66692520  0.00631881  1
  Ir  Ir109  1  0.16413339  0.83656478  0.24802574  1
  Ir  Ir110  1  -0.00261299  -0.00423143  0.50136764  1
  Ir  Ir111  1  0.83050173  0.16310718  0.25137276  1
  Ir  Ir112  1  0.16337496  0.17216074  -0.00291052  1
  Ir  Ir113  1  0.83740183  0.49472052  -0.00039033  1
  Ir  Ir114  1  0.49887999  0.83524135  0.25375465  1
  Ir  Ir115  1  0.67058640  0.32796358  0.00475217  1
  Ir  Ir116  1  0.33701973  0.33869779  0.49762346  1
  Ir  Ir117  1  -0.00344341  -0.00093854  0.74661449  1
  Ir  Ir118  1  0.33995552  0.00435485  0.24956430  1
  Ir  Ir119  1  0.50777738  0.83549693  0.74653111  1
  Ir  Ir120  1  0.50182944  0.16942965  0.24903393  1
  Ir  Ir121  1  0.16546023  0.49723667  0.00708366  1
  Ir  Ir122  1  0.83393460  0.50485739  0.75464110  1
  Ir  Ir123  1  0.82761920  0.83429744  0.74790311  1
  Ir  Ir124  1  0.16792054  0.49663990  0.49402527  1
  Ir  Ir125  1  0.83024042  0.16251798  0.49827585  1
  Ir  Ir126  1  0.66330686  0.66599117  0.50170512  1
  Ir  Ir127  1  0.00054227  0.66701285  0.25276103  1
  Ir  Ir128  1  0.16597110  0.83555262  0.00362034  1
  Ir  Ir129  1  0.50489874  0.17101361  -0.00060179  1
  Ir  Ir130  1  -0.00350106  0.66775650  0.75419344  1
  Ir  Ir131  1  0.00208541  0.00011135  -0.00069581  1
  Ir  Ir132  1  0.49887041  0.50269118  0.49698207  1
  Ir  Ir133  1  0.83268078  0.16237284  0.74793226  1
  Ir  Ir134  1  0.66636821  0.67039257  0.74790368  1
  Ir  Ir135  1  0.33156453  0.33207153  0.74745674  1
  Ir  Ir136  1  0.66775389  0.32592017  0.24722082  1
  Ir  Ir137  1  0.83408204  0.83288968  0.25595184  1
  Ir  Ir138  1  -0.00313888  -0.00570790  0.25279675  1
  Ir  Ir139  1  0.00206601  0.33308028  0.00060213  1
  Ir  Ir140  1  0.32612987  0.33224914  -0.00042076  1
  Ir  Ir141  1  0.16344762  0.49944257  0.25249562  1
  Ir  Ir142  1  0.66486038  -0.00320631  0.74896229  1
  Ir  Ir143  1  0.82772779  0.83044288  0.49968822  1
  O  O144  1  0.29667255  0.32929280  0.11935187  1
  O  O145  1  0.30120093  0.32788098  0.62261310  1
  O  O146  1  0.30701861  0.65345926  0.12478725  1
  O  O147  1  0.31565154  0.67151686  0.62732424  1
  O  O148  1  0.32308796  0.99948348  0.12797675  1
  O  O149  1  0.30134045  0.98131288  0.62390746  1
  O  O150  1  0.64077812  0.31215211  0.12623231  1
  O  O151  1  0.65112890  0.31711638  0.62294889  1
  O  O152  1  0.65143778  0.66899899  0.12943126  1
  O  O153  1  0.63214343  0.66394919  0.62469287  1
  O  O154  1  0.65067584  1.00704185  0.12853993  1
  O  O155  1  0.63508582  0.98656023  0.62766751  1
  O  O156  1  0.96807970  0.32616854  0.11781789  1
  O  O157  1  0.98305671  0.33111439  0.62501524  1
  O  O158  1  0.98298449  0.65947684  0.13115117  1
  O  O159  1  0.97869315  0.66312678  0.63302999  1
  O  O160  1  0.97202927  1.00103809  0.12685579  1
  O  O161  1  0.97693714  1.00083602  0.62348800  1
  O  O162  1  0.18054290  0.16584779  0.11717149  1
  O  O163  1  0.20204077  0.14321979  0.62119268  1
  O  O164  1  0.19813555  0.49000354  0.13042194  1
  O  O165  1  0.18820950  0.48777315  0.61520072  1
  O  O166  1  0.19606500  0.83410643  0.12564009  1
  O  O167  1  0.18960407  0.83042999  0.62723500  1
  O  O168  1  0.53545646  0.17059165  0.12461282  1
  O  O169  1  0.54350117  0.15482942  0.61980466  1
  O  O170  1  0.51574550  0.47458201  0.12717952  1
  O  O171  1  0.52064145  0.50152623  0.61541882  1
  O  O172  1  0.52227497  0.83571186  0.13534168  1
  O  O173  1  0.54076106  0.82054536  0.63016164  1
  O  O174  1  0.84816781  0.14741457  0.13000689  1
  O  O175  1  0.85311374  0.16431510  0.62201519  1
  O  O176  1  0.86391382  0.48722825  0.12065995  1
  O  O177  1  0.84732326  0.50576722  0.63289021  1
  O  O178  1  0.85145937  0.82981426  0.13566507  1
  O  O179  1  0.84979187  0.82867606  0.62277004  1
  O  O180  1  0.14250657  0.18242191  0.37349957  1
  O  O181  1  0.13484407  0.18176429  0.87729001  1
  O  O182  1  0.13140310  0.50104735  0.37222085  1
  O  O183  1  0.14910311  0.50595560  0.88646202  1
  O  O184  1  0.13604361  0.84058692  0.36714530  1
  O  O185  1  0.14678083  0.84043208  0.88469750  1
  O  O186  1  0.46713690  0.18051934  0.36713145  1
  O  O187  1  0.48750326  0.17352148  0.87910955  1
  O  O188  1  0.46628791  0.51046996  0.37978862  1
  O  O189  1  0.48141609  0.49459736  0.87705128  1
  O  O190  1  0.47797389  0.84299976  0.37218914  1
  O  O191  1  0.48169335  0.84583159  0.86453085  1
  O  O192  1  0.80131324  0.16645841  0.37607018  1
  O  O193  1  0.80437208  0.16393398  0.86756402  1
  O  O194  1  0.79890059  0.51145351  0.37380593  1
  O  O195  1  0.81426994  0.51018001  0.87731419  1
  O  O196  1  0.80017295  0.84181427  0.37816420  1
  O  O197  1  0.79952962  0.83976527  0.86630129  1
  O  O198  1  0.01591325  -0.01617717  0.37862921  1
  O  O199  1  0.01791534  0.00919690  0.87256071  1
  O  O200  1  0.03153505  0.34308354  0.37237776  1
  O  O201  1  0.03399396  0.33835333  0.88240667  1
  O  O202  1  0.01504779  0.67721699  0.37052096  1
  O  O203  1  0.03039409  0.66642834  0.87336572  1
  O  O204  1  0.36817012  0.01109732  0.36923825  1
  O  O205  1  0.37411045  0.00352190  0.87264174  1
  O  O206  1  0.36839512  0.34801671  0.37907739  1
  O  O207  1  0.35266276  0.33053026  0.87249622  1
  O  O208  1  0.36871870  0.67129942  0.37539446  1
  O  O209  1  0.34767542  0.66946724  0.88800727  1
  O  O210  1  0.70515498  0.01209782  0.37452960  1
  O  O211  1  0.68482273  0.01299201  0.86791342  1
  O  O212  1  0.68680132  0.34294398  0.36528620  1
  O  O213  1  0.68831629  0.33041960  0.88538828  1
  O  O214  1  0.69602366  0.67647766  0.38326956  1
  O  O215  1  0.69502089  0.67823808  0.86744104  1
  O  O216  1  0.07045015  0.10024731  0.00457057  1
  O  O217  1  0.07306469  0.08306729  0.51665730  1
  O  O218  1  0.07027117  0.42720314  0.03534101  1
  O  O219  1  0.08259445  0.42587076  0.51389046  1
  O  O220  1  0.07742516  0.76372159  0.01626897  1
  O  O221  1  0.06343781  0.76383382  0.50328813  1
  O  O222  1  0.41443275  0.10404200  0.01508783  1
  O  O223  1  0.40460509  0.10180524  0.52934281  1
  O  O224  1  0.39379802  0.42168485  0.02855807  1
  O  O225  1  0.40222687  0.43704720  0.51512201  1
  O  O226  1  0.39350654  0.75901444  0.02866044  1
  O  O227  1  0.40721001  0.76785495  0.53336089  1
  O  O228  1  0.73100480  0.10740247  0.00953742  1
  O  O229  1  0.73375756  0.10029254  0.52036732  1
  O  O230  1  0.74379951  0.42007692  0.02688887  1
  O  O231  1  0.73372484  0.42794945  0.50600288  1
  O  O232  1  0.73678781  0.76435128  0.00404220  1
  O  O233  1  0.72503102  0.76644671  0.52043935  1
  O  O234  1  0.09889112  0.27081825  0.02170420  1
  O  O235  1  0.10703471  0.26693610  0.52126659  1
  O  O236  1  0.09061656  0.58409452  0.02536157  1
  O  O237  1  0.09542572  0.58445231  0.51378058  1
  O  O238  1  0.09509228  0.92833911  0.02056435  1
  O  O239  1  0.09266372  0.93360281  0.52569688  1
  O  O240  1  0.43168905  0.26710257  0.02111232  1
  O  O241  1  0.42484796  0.26661183  0.51875489  1
  O  O242  1  0.41192688  0.58971008  0.02533042  1
  O  O243  1  0.44238975  0.60293292  0.51861948  1
  O  O244  1  0.42125286  0.92200910  0.01971012  1
  O  O245  1  0.44260364  0.94202493  0.51584913  1
  O  O246  1  0.76602785  0.26567582  0.02963280  1
  O  O247  1  0.76033456  0.25135318  0.51458049  1
  O  O248  1  0.76741786  0.58662251  0.00938939  1
  O  O249  1  0.75459939  0.60068755  0.51653146  1
  O  O250  1  0.77079657  0.93760520  0.02573757  1
  O  O251  1  0.76086906  0.92162547  0.51836371  1
  O  O252  1  0.25047266  0.07701391  0.26630229  1
  O  O253  1  0.24106112  0.07151792  0.76978941  1
  O  O254  1  0.22717781  0.40514141  0.27662612  1
  O  O255  1  0.23751793  0.39690353  0.76932211  1
  O  O256  1  0.23474685  0.74663802  0.26439456  1
  O  O257  1  0.23170873  0.73245988  0.78113930  1
  O  O258  1  0.56703108  0.07510289  0.27915323  1
  O  O259  1  0.56985295  0.06082216  0.77012946  1
  O  O260  1  0.57127023  0.39278668  0.27026775  1
  O  O261  1  0.58008592  0.41164658  0.75886262  1
  O  O262  1  0.56431952  0.74017165  0.28190875  1
  O  O263  1  0.57491219  0.74096642  0.77317048  1
  O  O264  1  0.89401397  0.05974277  0.27132867  1
  O  O265  1  0.90769514  0.07554025  0.76945477  1
  O  O266  1  0.91118079  0.41020748  0.26985172  1
  O  O267  1  0.90937392  0.41822906  0.76489429  1
  O  O268  1  0.90212501  0.73595787  0.27947251  1
  O  O269  1  0.89707726  0.73927915  0.77637373  1
  O  O270  1  0.26472965  0.24085152  0.27908518  1
  O  O271  1  0.26436541  0.24218672  0.75934381  1
  O  O272  1  0.25852537  0.56427724  0.27328914  1
  O  O273  1  0.25544128  0.57481461  0.77090982  1
  O  O274  1  0.26771934  0.90582278  0.25471586  1
  O  O275  1  0.26924732  0.89760961  0.76004804  1
  O  O276  1  0.60084633  0.23063939  0.27222194  1
  O  O277  1  0.60420850  0.22916624  0.76823329  1
  O  O278  1  0.59391876  0.56704909  0.28236269  1
  O  O279  1  0.59889950  0.58251603  0.76753088  1
  O  O280  1  0.59501908  0.90092036  0.28165161  1
  O  O281  1  0.60353535  0.90030335  0.77578522  1
  O  O282  1  0.92297744  0.23103212  0.26391019  1
  O  O283  1  0.92856535  0.22868231  0.77333287  1
  O  O284  1  0.93669257  0.57076771  0.27075514  1
  O  O285  1  0.91852594  0.58511698  0.78097166  1
  O  O286  1  0.92849953  0.89911628  0.27702444  1
  O  O287  1  0.92040911  0.90539935  0.76492355  1
  O  O288  1  0.27301721  0.24612096  0.47501880  1
  O  O289  1  0.25120019  0.24490666  0.97072443  1
  O  O290  1  0.26127788  0.56343714  0.47483822  1
  O  O291  1  0.25292110  0.57456986  0.98246078  1
  O  O292  1  0.25967532  0.90837899  0.48258814  1
  O  O293  1  0.25508299  0.90871017  0.99569538  1
  O  O294  1  0.59244704  0.23954462  0.45899522  1
  O  O295  1  0.60608843  0.23140455  0.98270288  1
  O  O296  1  0.59781874  0.56747969  0.47053572  1
  O  O297  1  0.58884376  0.57390399  0.99078968  1
  O  O298  1  0.60151959  0.89823299  0.47376986  1
  O  O299  1  0.59546418  0.90917747  0.97187157  1
  O  O300  1  0.92172494  0.23131729  0.48177634  1
  O  O301  1  0.93822013  0.23801208  0.97214056  1
  O  O302  1  0.92330189  0.57562056  0.46562058  1
  O  O303  1  0.92506778  0.56841867  0.99025008  1
  O  O304  1  0.92368188  0.89773674  0.47506665  1
  O  O305  1  0.93110780  0.91119899  0.98703823  1
  O  O306  1  0.25123953  0.08428018  0.46355028  1
  O  O307  1  0.23884641  0.08483299  0.98195628  1
  O  O308  1  0.24050892  0.40469504  0.46666063  1
  O  O309  1  0.22865492  0.39786790  0.98073426  1
  O  O310  1  0.23840595  0.73882287  0.48191230  1
  O  O311  1  0.23084506  0.73703398  0.98103818  1
  O  O312  1  0.56974992  0.06753144  0.46459636  1
  O  O313  1  0.56901529  0.07716776  0.97374152  1
  O  O314  1  0.56302683  0.40777389  0.46750053  1
  O  O315  1  0.57641234  0.39310018  0.99496590  1
  O  O316  1  0.56994339  0.73002411  0.47601361  1
  O  O317  1  0.57496388  0.74590208  0.97791933  1
  O  O318  1  0.89714400  0.06379229  0.47690316  1
  O  O319  1  0.91346979  0.07369967  0.98475704  1
  O  O320  1  0.91482762  0.41387892  0.47618857  1
  O  O321  1  0.90527206  0.39814652  0.98507179  1
  O  O322  1  0.89303224  0.73823480  0.47498388  1
  O  O323  1  0.90191547  0.73607331  0.97638305  1
  O  O324  1  0.10235503  0.27113098  0.22517777  1
  O  O325  1  0.10357657  0.26265388  0.72704467  1
  O  O326  1  0.09102420  0.59260505  0.22811400  1
  O  O327  1  0.08364720  0.59381866  0.74041745  1
  O  O328  1  0.09310870  0.92851395  0.23039633  1
  O  O329  1  0.09062602  0.93129112  0.72991215  1
  O  O330  1  0.44101770  0.26960152  0.22812036  1
  O  O331  1  0.42084850  0.25901063  0.72295184  1
  O  O332  1  0.42565651  0.59334591  0.22983184  1
  O  O333  1  0.43364951  0.60226020  0.73144174  1
  O  O334  1  0.43385506  0.93203604  0.23388709  1
  O  O335  1  0.44658510  0.92998451  0.71998110  1
  O  O336  1  0.76542229  0.25929421  0.22105325  1
  O  O337  1  0.76403153  0.25155258  0.72929418  1
  O  O338  1  0.76577003  0.59775730  0.23965719  1
  O  O339  1  0.76199990  0.60160401  0.74292553  1
  O  O340  1  0.77521393  0.93177601  0.23536466  1
  O  O341  1  0.75531334  0.92445388  0.72243006  1
  O  O342  1  0.06906330  0.08467157  0.23913623  1
  O  O343  1  0.07047568  0.08649981  0.73496555  1
  O  O344  1  0.07127158  0.43569874  0.22257002  1
  O  O345  1  0.08121819  0.42043944  0.73238375  1
  O  O346  1  0.06583534  0.76880298  0.24095010  1
  O  O347  1  0.06654179  0.75511624  0.73658175  1
  O  O348  1  0.40433202  0.10383719  0.23517439  1
  O  O349  1  0.40927172  0.09550840  0.71042894  1
  O  O350  1  0.38763848  0.43834002  0.23665229  1
  O  O351  1  0.40194451  0.42104412  0.73429565  1
  O  O352  1  0.40347276  0.77336425  0.22503934  1
  O  O353  1  0.41236860  0.77101366  0.72379324  1
  O  O354  1  0.73267643  0.10512754  0.23590651  1
  O  O355  1  0.73148801  0.09564543  0.72711969  1
  O  O356  1  0.73857805  0.41563273  0.22545555  1
  O  O357  1  0.75123830  0.42645651  0.74177844  1
  O  O358  1  0.73864945  0.77029491  0.24899937  1
  O  O359  1  0.73109433  0.76764181  0.72748216  1
