# generated using pymatgen
data_BaLaInIrO6
_symmetry_space_group_name_H-M   'P 1'
_cell_length_a   17.53395767
_cell_length_b   17.57091448
_cell_length_c   16.51706270
_cell_angle_alpha   90.08476688
_cell_angle_beta   90.01701012
_cell_angle_gamma   89.98420196
_symmetry_Int_Tables_number   1
_chemical_formula_structural   BaLaInIrO6
_chemical_formula_sum   'Ba36 La36 In36 Ir36 O216'
_cell_volume   5088.69738834
_cell_formula_units_Z   36
loop_
 _symmetry_equiv_pos_site_id
 _symmetry_equiv_pos_as_xyz
  1  'x, y, z'
loop_
 _atom_site_type_symbol
 _atom_site_label
 _atom_site_symmetry_multiplicity
 _atom_site_fract_x
 _atom_site_fract_y
 _atom_site_fract_z
 _atom_site_occupancy
  Ba  Ba0  1  0.66596348  0.17489086  0.63159204  1
  Ba  Ba1  1  0.66699480  0.49006791  0.37159437  1
  Ba  Ba2  1  0.16109865  0.00769702  0.12696743  1
  Ba  Ba3  1  0.32984446  0.82241249  0.36792600  1
  Ba  Ba4  1  0.17023043  0.65661479  0.37347745  1
  Ba  Ba5  1  1.00157731  0.83677515  0.12380694  1
  Ba  Ba6  1  0.83232990  0.00977365  0.62473392  1
  Ba  Ba7  1  0.16905553  0.32785549  0.87483633  1
  Ba  Ba8  1  0.66893500  0.84257104  0.62113995  1
  Ba  Ba9  1  1.00265208  0.50886740  0.62369782  1
  Ba  Ba10  1  0.66772990  0.50744694  0.62918051  1
  Ba  Ba11  1  1.00172512  0.84050907  0.62416838  1
  Ba  Ba12  1  0.50183945  0.99030388  0.87316184  1
  Ba  Ba13  1  0.83747734  0.65748164  0.87929413  1
  Ba  Ba14  1  0.33476456  0.50753717  0.63000390  1
  Ba  Ba15  1  0.83365420  0.32432021  0.87509543  1
  Ba  Ba16  1  0.83812987  0.65859391  0.37648247  1
  Ba  Ba17  1  0.16714114  0.99085722  0.37323323  1
  Ba  Ba18  1  0.50130428  0.32612996  0.87948534  1
  Ba  Ba19  1  0.16759548  0.65550195  0.87992065  1
  Ba  Ba20  1  0.33459730  0.83723060  0.62507027  1
  Ba  Ba21  1  0.33189335  0.84316112  0.12290461  1
  Ba  Ba22  1  0.33399223  0.16150865  0.37583474  1
  Ba  Ba23  1  0.50234507  0.65843056  0.87591417  1
  Ba  Ba24  1  0.82861967  0.01375140  0.12400671  1
  Ba  Ba25  1  0.16684161  0.00582030  0.62329915  1
  Ba  Ba26  1  0.83049706  0.32996770  0.37668328  1
  Ba  Ba27  1  0.83583686  0.34219437  0.12317777  1
  Ba  Ba28  1  0.33368000  0.17482387  0.62314712  1
  Ba  Ba29  1  0.49753324  0.01495996  0.11984943  1
  Ba  Ba30  1  0.33446626  0.81823257  0.87746881  1
  Ba  Ba31  1  1.00157812  0.17477517  0.12550986  1
  Ba  Ba32  1  0.49726072  0.67282391  0.62493970  1
  Ba  Ba33  1  0.16957848  0.34428670  0.62202136  1
  Ba  Ba34  1  0.16557179  0.34551913  0.12663383  1
  Ba  Ba35  1  0.83708788  0.67524317  0.12942530  1
  La  La36  1  0.66485373  0.48462588  0.87681836  1
  La  La37  1  -0.00281644  0.81831117  0.87278381  1
  La  La38  1  -0.00232951  0.81716239  0.37249449  1
  La  La39  1  0.83643482  0.98617405  0.37606177  1
  La  La40  1  0.32960528  0.49109030  0.87515498  1
  La  La41  1  0.16414934  0.67944687  0.12724485  1
  La  La42  1  0.16893673  0.68088384  0.62781672  1
  La  La43  1  0.33503097  0.51650375  0.12495012  1
  La  La44  1  0.83130127  0.98419333  0.86866323  1
  La  La45  1  0.49445232  0.34746433  0.12926249  1
  La  La46  1  -0.00271338  0.15396113  0.37297359  1
  La  La47  1  0.82761422  0.34670690  0.63001684  1
  La  La48  1  1.00804528  0.50999761  0.12894447  1
  La  La49  1  0.32702060  0.48651024  0.37706071  1
  La  La50  1  1.00766589  0.17963017  0.62527428  1
  La  La51  1  0.66257571  0.15247182  0.87693100  1
  La  La52  1  0.66170217  0.15604324  0.37360572  1
  La  La53  1  -0.00177928  0.48228306  0.87396517  1
  La  La54  1  0.33107762  0.15062283  0.87509476  1
  La  La55  1  0.48914161  0.01566656  0.62580547  1
  La  La56  1  0.65948902  0.81786104  0.87308003  1
  La  La57  1  0.82641797  0.68345935  0.62631729  1
  La  La58  1  0.49036657  0.34818700  0.62666738  1
  La  La59  1  0.49638558  0.32965431  0.37737443  1
  La  La60  1  0.50207207  0.65108724  0.37789732  1
  La  La61  1  0.66905050  0.50696900  0.11991436  1
  La  La62  1  0.16959826  0.32171152  0.37537206  1
  La  La63  1  -0.00403769  0.15021149  0.87622614  1
  La  La64  1  0.66085738  0.81431686  0.37042813  1
  La  La65  1  0.67192499  0.18729637  0.12306571  1
  La  La66  1  0.67477026  0.84951490  0.12047033  1
  La  La67  1  0.50326122  0.98138586  0.37457085  1
  La  La68  1  0.49362964  0.68191443  0.12652647  1
  La  La69  1  -0.00427242  0.48507889  0.37402983  1
  La  La70  1  0.16932274  0.98372241  0.87491028  1
  La  La71  1  0.33400456  0.17935114  0.12130467  1
  In  In72  1  0.33177388  0.00080969  -0.00047856  1
  In  In73  1  0.33274590  0.66487866  0.49904018  1
  In  In74  1  0.33623873  0.00015890  0.49725119  1
  In  In75  1  0.66700165  0.00084719  0.49603362  1
  In  In76  1  0.33384876  0.00441068  0.24736980  1
  In  In77  1  0.66560054  0.32998521  0.50351509  1
  In  In78  1  0.00237380  0.66049595  -0.00046650  1
  In  In79  1  0.82922532  0.17046085  0.25227458  1
  In  In80  1  0.66691670  0.66385827  0.00132554  1
  In  In81  1  0.16461564  0.50244792  0.75021478  1
  In  In82  1  0.50201948  0.16919221  0.49798626  1
  In  In83  1  0.50287481  0.83482765  0.00199237  1
  In  In84  1  0.16709206  0.83227958  0.49797477  1
  In  In85  1  0.16336861  0.16514006  0.75263027  1
  In  In86  1  0.50154540  0.83172025  0.49932861  1
  In  In87  1  0.33200311  -0.00469495  0.75148114  1
  In  In88  1  0.49964368  0.50078331  0.00169358  1
  In  In89  1  0.00002055  0.33143843  0.00137702  1
  In  In90  1  0.83423289  0.16738501  0.74838701  1
  In  In91  1  -0.00154466  0.33082265  0.49976197  1
  In  In92  1  0.66388436  -0.00141830  0.74691406  1
  In  In93  1  0.83501915  0.50096292  0.50120837  1
  In  In94  1  -0.00030559  0.00028856  0.50017244  1
  In  In95  1  0.66465245  0.00277353  0.24888281  1
  In  In96  1  0.66866993  0.66356225  0.49914826  1
  In  In97  1  0.83431292  0.49924058  0.24598530  1
  In  In98  1  -0.00344853  -0.00241670  0.25052546  1
  In  In99  1  0.16427349  0.16765686  -0.00130685  1
  In  In100  1  0.33518665  0.33062867  0.75552326  1
  In  In101  1  0.49891836  0.49774233  0.49961701  1
  In  In102  1  0.83286390  0.83331262  -0.00111490  1
  In  In103  1  0.49956770  0.16984512  0.24759006  1
  In  In104  1  0.83430468  0.83382301  0.49783781  1
  In  In105  1  0.83510587  0.50324323  0.75315777  1
  In  In106  1  0.66339436  0.66388952  0.24476197  1
  In  In107  1  -0.00355360  -0.00271119  -0.00199753  1
  Ir  Ir108  1  0.66759800  0.00411920  -0.00217616  1
  Ir  Ir109  1  0.33107711  0.33642144  0.49770887  1
  Ir  Ir110  1  0.50273092  0.17312274  -0.00080939  1
  Ir  Ir111  1  0.16603600  0.82920665  -0.00058640  1
  Ir  Ir112  1  0.16302127  0.82912097  0.75579756  1
  Ir  Ir113  1  0.82714333  0.16642828  -0.00405289  1
  Ir  Ir114  1  0.00569907  0.66388785  0.25330437  1
  Ir  Ir115  1  0.66119294  0.33366167  0.24624979  1
  Ir  Ir116  1  0.33090679  0.33795162  0.24793069  1
  Ir  Ir117  1  0.50316169  0.82965901  0.75020716  1
  Ir  Ir118  1  0.83550396  0.49747357  0.00047680  1
  Ir  Ir119  1  0.00036927  -0.00304693  0.75261327  1
  Ir  Ir120  1  0.66959607  0.66839715  0.75089499  1
  Ir  Ir121  1  0.50132038  0.83021042  0.24888455  1
  Ir  Ir122  1  0.00022341  0.66788240  0.74802830  1
  Ir  Ir123  1  0.83378171  0.83102605  0.75227919  1
  Ir  Ir124  1  0.66243968  0.33482363  0.75446238  1
  Ir  Ir125  1  0.33370003  0.66452728  0.75659265  1
  Ir  Ir126  1  0.49505256  0.49702343  0.24769111  1
  Ir  Ir127  1  0.66634699  0.33227367  0.00003355  1
  Ir  Ir128  1  0.50075300  0.50115476  0.75558889  1
  Ir  Ir129  1  0.83425267  0.16823923  0.49994575  1
  Ir  Ir130  1  0.33619933  0.66334144  0.24467821  1
  Ir  Ir131  1  0.00585128  0.33450942  0.25250534  1
  Ir  Ir132  1  0.16495721  0.50128045  0.49584362  1
  Ir  Ir133  1  0.00360719  0.66456793  0.50111933  1
  Ir  Ir134  1  0.16901984  0.50069103  0.25172330  1
  Ir  Ir135  1  0.33186224  0.66361607  0.00356311  1
  Ir  Ir136  1  0.16399536  0.17133493  0.49941589  1
  Ir  Ir137  1  0.50162513  0.17049424  0.75467506  1
  Ir  Ir138  1  0.16994467  0.49946915  0.00598870  1
  Ir  Ir139  1  -0.00140092  0.33148998  0.75068237  1
  Ir  Ir140  1  0.83004573  0.83330308  0.24927989  1
  Ir  Ir141  1  0.16692019  0.17308862  0.25362030  1
  Ir  Ir142  1  0.16518877  0.82807485  0.24694141  1
  Ir  Ir143  1  0.33563315  0.33492609  0.00579392  1
  O  O144  1  0.31148099  0.31768767  0.12645817  1
  O  O145  1  0.32015563  0.33412890  0.62026772  1
  O  O146  1  0.30166431  0.65660095  0.12377310  1
  O  O147  1  0.30708058  0.66241539  0.63628271  1
  O  O148  1  0.31140185  1.00683523  0.12329825  1
  O  O149  1  0.32204884  0.99976326  0.62680068  1
  O  O150  1  0.63344692  0.32529566  0.12259156  1
  O  O151  1  0.62780381  0.33173189  0.63724789  1
  O  O152  1  0.62641443  0.64547441  0.12387638  1
  O  O153  1  0.64897777  0.66599611  0.63266687  1
  O  O154  1  0.64747552  0.98750991  0.11858997  1
  O  O155  1  0.62771097  0.99963654  0.62291866  1
  O  O156  1  0.98586788  0.33538054  0.13305726  1
  O  O157  1  0.96655467  0.32093454  0.62998032  1
  O  O158  1  0.98657303  0.65167885  0.13163354  1
  O  O159  1  0.96836241  0.66189500  0.62335728  1
  O  O160  1  0.97923351  0.99514326  0.12529792  1
  O  O161  1  0.98011477  0.99480903  0.63257141  1
  O  O162  1  0.19631334  0.16740875  0.13271591  1
  O  O163  1  0.18091945  0.16652577  0.62049254  1
  O  O164  1  0.20082939  0.49919214  0.12926551  1
  O  O165  1  0.18474606  0.50209896  0.61683267  1
  O  O166  1  0.18691579  0.81806181  0.12234648  1
  O  O167  1  0.18074483  0.82093742  0.63517528  1
  O  O168  1  0.53370159  0.17257959  0.11765489  1
  O  O169  1  0.51798125  0.15826423  0.63335860  1
  O  O170  1  0.53059692  0.48853153  0.13033257  1
  O  O171  1  0.51682595  0.48893120  0.63321207  1
  O  O172  1  0.53679289  0.82072868  0.13067600  1
  O  O173  1  0.52070645  0.82688073  0.63165528  1
  O  O174  1  0.84830369  0.16957602  0.11642387  1
  O  O175  1  0.87033648  0.16328288  0.61967096  1
  O  O176  1  0.87002769  0.49679684  0.11998758  1
  O  O177  1  0.85275618  0.48280970  0.62945418  1
  O  O178  1  0.85114144  0.83810809  0.13044969  1
  O  O179  1  0.85263239  0.82526892  0.63131298  1
  O  O180  1  0.13449791  0.18194793  0.37663210  1
  O  O181  1  0.12636163  0.17691894  0.87312115  1
  O  O182  1  0.13454092  0.50235275  0.37216265  1
  O  O183  1  0.13729535  0.50029915  0.88469661  1
  O  O184  1  0.13792047  0.82645369  0.36635095  1
  O  O185  1  0.13420174  0.83734506  0.87816954  1
  O  O186  1  0.48151354  0.19691964  0.37194776  1
  O  O187  1  0.46944999  0.17384194  0.87715012  1
  O  O188  1  0.46434187  0.49988921  0.36579732  1
  O  O189  1  0.46796816  0.50192261  0.87528863  1
  O  O190  1  0.47712525  0.84114149  0.36550883  1
  O  O191  1  0.48684291  0.83051798  0.86967622  1
  O  O192  1  0.79844655  0.17759305  0.38192209  1
  O  O193  1  0.79947956  0.17013717  0.87772474  1
  O  O194  1  0.81818441  0.50069524  0.37168496  1
  O  O195  1  0.80345488  0.50051746  0.88030650  1
  O  O196  1  0.80012085  0.83233130  0.36627668  1
  O  O197  1  0.80010632  0.83533159  0.87066753  1
  O  O198  1  0.01924069  0.01844756  0.37388189  1
  O  O199  1  0.03138703  0.00904698  0.86914429  1
  O  O200  1  0.03228120  0.34346756  0.37113371  1
  O  O201  1  0.01938039  0.34435748  0.87137210  1
  O  O202  1  0.02471615  0.68028919  0.37838791  1
  O  O203  1  0.01875079  0.67686271  0.86935120  1
  O  O204  1  0.36649474  0.00345795  0.36960189  1
  O  O205  1  0.35499668  0.01148336  0.87463875  1
  O  O206  1  0.35979978  0.34798848  0.37030267  1
  O  O207  1  0.35331821  0.35260930  0.88650281  1
  O  O208  1  0.36470269  0.66427079  0.36339487  1
  O  O209  1  0.35457911  0.65941949  0.88177407  1
  O  O210  1  0.70485168  0.02002111  0.36991438  1
  O  O211  1  0.69307893  0.01302507  0.87827629  1
  O  O212  1  0.67796363  0.33615836  0.36579945  1
  O  O213  1  0.68836578  0.34601978  0.87811469  1
  O  O214  1  0.68794590  0.67393550  0.36874979  1
  O  O215  1  0.68916024  0.67804272  0.87073608  1
  O  O216  1  0.06794169  0.09244655  0.01074276  1
  O  O217  1  0.06785514  0.10669451  0.51607142  1
  O  O218  1  0.07202948  0.43830400  0.02279198  1
  O  O219  1  0.07705625  0.43116261  0.50961584  1
  O  O220  1  0.08336926  0.75177317  0.01705983  1
  O  O221  1  0.07256133  0.75184519  0.52063355  1
  O  O222  1  0.40548249  0.11106213  0.01656448  1
  O  O223  1  0.41149688  0.09493640  0.51908661  1
  O  O224  1  0.40381044  0.42712894  0.03404397  1
  O  O225  1  0.39751755  0.42665370  0.51021992  1
  O  O226  1  0.40759443  0.74978623  0.02274311  1
  O  O227  1  0.40568482  0.75996915  0.51046559  1
  O  O228  1  0.72756108  0.10441603  0.01833803  1
  O  O229  1  0.74350762  0.10415002  0.51863226  1
  O  O230  1  0.73458035  0.43083021  0.02199636  1
  O  O231  1  0.74257094  0.41875866  0.52052259  1
  O  O232  1  0.73618277  0.76370846  0.02431496  1
  O  O233  1  0.74555527  0.75653517  0.51702498  1
  O  O234  1  0.09537212  0.26381242  0.01822274  1
  O  O235  1  0.09365361  0.25963250  0.51821078  1
  O  O236  1  0.10228730  0.59005229  0.03061048  1
  O  O237  1  0.10129482  0.59791468  0.52271715  1
  O  O238  1  0.09415344  0.91685745  0.01058607  1
  O  O239  1  0.09172482  0.92446929  0.51328321  1
  O  O240  1  0.43234694  0.26721823  0.02993018  1
  O  O241  1  0.43063808  0.27486259  0.51741600  1
  O  O242  1  0.42376720  0.59523401  0.03214127  1
  O  O243  1  0.42704202  0.59273901  0.50658501  1
  O  O244  1  0.42649229  0.92479495  0.01360419  1
  O  O245  1  0.44566832  0.93867333  0.51536812  1
  O  O246  1  0.75650053  0.26010746  0.02040460  1
  O  O247  1  0.77500370  0.26369720  0.52927441  1
  O  O248  1  0.76339003  0.58496851  0.02341407  1
  O  O249  1  0.76996337  0.59913447  0.52736341  1
  O  O250  1  0.75900848  0.93494262  0.01050948  1
  O  O251  1  0.76752799  0.93414180  0.50673917  1
  O  O252  1  0.23525724  0.08515918  0.27073377  1
  O  O253  1  0.23311848  0.06784108  0.77668888  1
  O  O254  1  0.23754922  0.40805262  0.27977537  1
  O  O255  1  0.24762869  0.41501938  0.76707305  1
  O  O256  1  0.23924679  0.73196135  0.25815869  1
  O  O257  1  0.23180772  0.73180893  0.76635883  1
  O  O258  1  0.56347837  0.06731979  0.27554335  1
  O  O259  1  0.57405113  0.08331234  0.77381705  1
  O  O260  1  0.55782364  0.39685320  0.26678938  1
  O  O261  1  0.57733562  0.41570223  0.78251527  1
  O  O262  1  0.56289791  0.73541718  0.27399821  1
  O  O263  1  0.57872711  0.74072482  0.77393898  1
  O  O264  1  0.89921890  0.07419580  0.27569063  1
  O  O265  1  0.90786399  0.06358382  0.77871025  1
  O  O266  1  0.91736752  0.40622807  0.26926575  1
  O  O267  1  0.91249871  0.40553483  0.77021197  1
  O  O268  1  0.91479875  0.74329825  0.27363595  1
  O  O269  1  0.90669062  0.73938773  0.77061052  1
  O  O270  1  0.25707741  0.25011854  0.27789661  1
  O  O271  1  0.26681417  0.23284231  0.77618632  1
  O  O272  1  0.27107174  0.56350164  0.26771672  1
  O  O273  1  0.26594244  0.57283617  0.77724183  1
  O  O274  1  0.25112114  0.90423610  0.25949707  1
  O  O275  1  0.25144131  0.90003783  0.77548648  1
  O  O276  1  0.60348328  0.23639074  0.26297834  1
  O  O277  1  0.59743543  0.23868349  0.77962894  1
  O  O278  1  0.57735161  0.57100516  0.27659042  1
  O  O279  1  0.60192477  0.57218777  0.77692592  1
  O  O280  1  0.59568428  0.89631387  0.27197378  1
  O  O281  1  0.59711866  0.89679879  0.77272629  1
  O  O282  1  0.93736812  0.24148684  0.27346897  1
  O  O283  1  0.93475821  0.23489333  0.77334714  1
  O  O284  1  0.93904990  0.57098238  0.27117966  1
  O  O285  1  0.93911486  0.57159901  0.77418537  1
  O  O286  1  0.92017066  0.90118272  0.28159943  1
  O  O287  1  0.92998305  0.90057098  0.77977474  1
  O  O288  1  0.25467185  0.24817562  0.47722165  1
  O  O289  1  0.27500785  0.23741150  0.98060405  1
  O  O290  1  0.25994053  0.56285541  0.47447953  1
  O  O291  1  0.26903961  0.56259467  0.98485946  1
  O  O292  1  0.26146688  0.90646006  0.48298738  1
  O  O293  1  0.24876023  0.90659276  0.97771376  1
  O  O294  1  0.60718215  0.22910968  0.48195728  1
  O  O295  1  0.60222150  0.23529640  0.97676389  1
  O  O296  1  0.59043675  0.57232607  0.47899146  1
  O  O297  1  0.60104175  0.56248747  0.97599687  1
  O  O298  1  0.60133572  0.90006895  0.46287165  1
  O  O299  1  0.60784794  0.90538078  0.97880333  1
  O  O300  1  0.93019375  0.22871397  0.47525004  1
  O  O301  1  0.92451217  0.23003871  0.97604022  1
  O  O302  1  0.94110320  0.57223535  0.47594153  1
  O  O303  1  0.93245450  0.56107121  0.97748966  1
  O  O304  1  0.92857453  0.90359995  0.46524364  1
  O  O305  1  0.92297737  0.90799956  0.95966544  1
  O  O306  1  0.23518102  0.08406480  0.48264044  1
  O  O307  1  0.23802458  0.07621770  0.96592099  1
  O  O308  1  0.23403071  0.40621696  0.46956325  1
  O  O309  1  0.24415483  0.41023198  0.98212564  1
  O  O310  1  0.23358927  0.73133688  0.49792334  1
  O  O311  1  0.23957696  0.73557001  0.98699421  1
  O  O312  1  0.57254994  0.07161668  0.46176639  1
  O  O313  1  0.57443619  0.07970951  0.97473407  1
  O  O314  1  0.56031803  0.39422334  0.48658222  1
  O  O315  1  0.57757410  0.40388995  0.98839449  1
  O  O316  1  0.57246617  0.73647134  0.46851044  1
  O  O317  1  0.57706682  0.74297070  0.98393251  1
  O  O318  1  0.89758440  0.07362026  0.47138838  1
  O  O319  1  0.89261122  0.07319985  0.96888858  1
  O  O320  1  0.91548656  0.41154033  0.47860830  1
  O  O321  1  0.90819673  0.41103480  0.97849832  1
  O  O322  1  0.91607352  0.73816387  0.48462124  1
  O  O323  1  0.91623478  0.74469635  0.98697280  1
  O  O324  1  0.10040381  0.26668620  0.24022025  1
  O  O325  1  0.08474296  0.26052355  0.72378353  1
  O  O326  1  0.09959034  0.59297574  0.22401226  1
  O  O327  1  0.09547774  0.60366404  0.72695577  1
  O  O328  1  0.09091958  0.91481450  0.23566759  1
  O  O329  1  0.09846290  0.92894307  0.74202560  1
  O  O330  1  0.42584290  0.27330884  0.22607260  1
  O  O331  1  0.43717479  0.26322846  0.73057240  1
  O  O332  1  0.42977829  0.59399678  0.21829127  1
  O  O333  1  0.42662591  0.59345249  0.73533340  1
  O  O334  1  0.43549417  0.92266616  0.23001015  1
  O  O335  1  0.43731532  0.92433363  0.72961294  1
  O  O336  1  0.75489818  0.26863248  0.22883976  1
  O  O337  1  0.75751357  0.26793119  0.72777828  1
  O  O338  1  0.75086326  0.58301326  0.21826032  1
  O  O339  1  0.76499401  0.60372222  0.72977245  1
  O  O340  1  0.75936783  0.92180438  0.23153332  1
  O  O341  1  0.76652141  0.92432059  0.74035872  1
  O  O342  1  0.07740315  0.10193935  0.23944181  1
  O  O343  1  0.05849071  0.09503866  0.72973857  1
  O  O344  1  0.06996846  0.43691686  0.23245024  1
  O  O345  1  0.06831034  0.42426513  0.73809501  1
  O  O346  1  0.07793828  0.75197567  0.22694970  1
  O  O347  1  0.06672010  0.76240349  0.73694819  1
  O  O348  1  0.40006748  0.10737468  0.22136507  1
  O  O349  1  0.41259795  0.09918137  0.73998266  1
  O  O350  1  0.40015751  0.42983450  0.21786079  1
  O  O351  1  0.41591582  0.42487358  0.73729087  1
  O  O352  1  0.40971619  0.75538325  0.21979839  1
  O  O353  1  0.40708414  0.75850559  0.73602294  1
  O  O354  1  0.72802147  0.10619387  0.22332688  1
  O  O355  1  0.74337530  0.09004824  0.73730301  1
  O  O356  1  0.72723188  0.42599190  0.22277380  1
  O  O357  1  0.73695673  0.42176507  0.73748827  1
  O  O358  1  0.73479716  0.76672274  0.22180118  1
  O  O359  1  0.74133511  0.76010286  0.72704309  1
