# generated using pymatgen
data_BaLaInIrO6
_symmetry_space_group_name_H-M   'P 1'
_cell_length_a   17.52058863
_cell_length_b   17.55348621
_cell_length_c   16.48737898
_cell_angle_alpha   90.03020217
_cell_angle_beta   90.00431735
_cell_angle_gamma   90.04511871
_symmetry_Int_Tables_number   1
_chemical_formula_structural   BaLaInIrO6
_chemical_formula_sum   'Ba36 La36 In36 Ir36 O216'
_cell_volume   5070.64842468
_cell_formula_units_Z   36
loop_
 _symmetry_equiv_pos_site_id
 _symmetry_equiv_pos_as_xyz
  1  'x, y, z'
loop_
 _atom_site_type_symbol
 _atom_site_label
 _atom_site_symmetry_multiplicity
 _atom_site_fract_x
 _atom_site_fract_y
 _atom_site_fract_z
 _atom_site_occupancy
  Ba  Ba0  1  0.49890208  0.00633774  0.12533512  1
  Ba  Ba1  1  0.16720426  0.32819468  0.37715164  1
  Ba  Ba2  1  0.17205795  0.98589308  0.37732495  1
  Ba  Ba3  1  1.00067091  0.50845285  0.62190393  1
  Ba  Ba4  1  0.00240155  0.82469655  0.37214388  1
  Ba  Ba5  1  0.16711131  0.68091175  0.12532447  1
  Ba  Ba6  1  0.50675145  0.32217032  0.37690727  1
  Ba  Ba7  1  0.16679498  0.65979734  0.37054707  1
  Ba  Ba8  1  0.83730273  0.32883673  0.37778529  1
  Ba  Ba9  1  0.33631310  0.51316765  0.62661742  1
  Ba  Ba10  1  0.83250124  0.00516586  0.62169127  1
  Ba  Ba11  1  0.82980189  0.67650783  0.62484489  1
  Ba  Ba12  1  0.67138308  0.17013839  0.12607703  1
  Ba  Ba13  1  0.16249210  0.00330240  0.12476630  1
  Ba  Ba14  1  0.49647057  0.67537984  0.62515876  1
  Ba  Ba15  1  0.66565174  0.49092239  0.87276275  1
  Ba  Ba16  1  0.83823655  0.65738893  0.37535451  1
  Ba  Ba17  1  0.33951166  0.17294786  0.12505708  1
  Ba  Ba18  1  0.16448733  0.66123506  0.87749438  1
  Ba  Ba19  1  0.33651829  0.15841108  0.87207548  1
  Ba  Ba20  1  0.33329493  0.15596708  0.37463383  1
  Ba  Ba21  1  0.16007823  0.00812523  0.62498227  1
  Ba  Ba22  1  0.83416585  0.00843397  0.12647535  1
  Ba  Ba23  1  0.49811487  0.67220027  0.12571228  1
  Ba  Ba24  1  0.66306730  0.51695080  0.62472416  1
  Ba  Ba25  1  0.49754275  0.34697595  0.62274974  1
  Ba  Ba26  1  0.83330438  0.32138589  0.87475625  1
  Ba  Ba27  1  0.50728421  0.32311393  0.86962964  1
  Ba  Ba28  1  0.16780766  0.34337709  0.62634035  1
  Ba  Ba29  1  0.66347310  0.82681104  0.87397522  1
  Ba  Ba30  1  0.99859122  0.17406692  0.62381175  1
  Ba  Ba31  1  0.50079997  0.00481210  0.62774015  1
  Ba  Ba32  1  0.00014663  0.49466094  0.37474688  1
  Ba  Ba33  1  0.99901564  0.84019154  0.12894363  1
  Ba  Ba34  1  0.49714950  0.98808580  0.37581351  1
  Ba  Ba35  1  0.66710212  0.49189040  0.37728860  1
  La  La36  1  0.50298535  0.34780361  0.12582634  1
  La  La37  1  0.83522797  0.98434965  0.87189478  1
  La  La38  1  0.16267709  0.35014987  0.12406835  1
  La  La39  1  0.82891156  0.35557434  0.62547945  1
  La  La40  1  0.66109413  0.14988438  0.87159966  1
  La  La41  1  0.83596661  0.98559082  0.37166533  1
  La  La42  1  0.16587666  0.67136674  0.62371483  1
  La  La43  1  0.66725454  0.51532604  0.12287259  1
  La  La44  1  0.67693097  0.18511222  0.62488791  1
  La  La45  1  0.49872703  0.65285268  0.87370920  1
  La  La46  1  0.83246344  0.34921040  0.12657344  1
  La  La47  1  0.66253274  0.81798139  0.37625498  1
  La  La48  1  1.00439457  0.17686194  0.12592874  1
  La  La49  1  -0.01187984  0.48510590  0.86832739  1
  La  La50  1  0.33208940  0.84281205  0.62527243  1
  La  La51  1  0.33862326  0.18156794  0.61968381  1
  La  La52  1  0.33450358  0.84985720  0.12661429  1
  La  La53  1  0.67346839  0.85328442  0.12526140  1
  La  La54  1  0.16744304  0.97865614  0.87441902  1
  La  La55  1  0.50480569  0.99121683  0.87946025  1
  La  La56  1  0.82722815  0.68269945  0.12899691  1
  La  La57  1  0.17090303  0.31866357  0.87373144  1
  La  La58  1  0.32881948  0.48714977  0.37819328  1
  La  La59  1  0.32908646  0.50739244  0.13493165  1
  La  La60  1  0.99996065  0.83706473  0.61896333  1
  La  La61  1  0.66819407  0.84152967  0.62301194  1
  La  La62  1  0.65937175  0.14585741  0.37782346  1
  La  La63  1  0.83861121  0.65357581  0.87316245  1
  La  La64  1  0.00264889  0.15223052  0.37750077  1
  La  La65  1  -0.00142065  0.14944164  0.87057713  1
  La  La66  1  0.50048847  0.65375478  0.37686124  1
  La  La67  1  0.32897637  0.82370386  0.37423904  1
  La  La68  1  -0.00682585  0.82062086  0.88129680  1
  La  La69  1  0.33872811  0.83147129  0.88226745  1
  La  La70  1  1.00640427  0.51973621  0.12915620  1
  La  La71  1  0.33454328  0.48530768  0.87698705  1
  In  In72  1  0.83551469  0.50322237  0.00180024  1
  In  In73  1  0.00035660  0.32976612  0.74962607  1
  In  In74  1  0.66717650  0.33009417  0.00150203  1
  In  In75  1  0.00018316  0.33222188  -0.00005608  1
  In  In76  1  0.33420831  0.33311507  0.75165093  1
  In  In77  1  0.16140482  0.50116827  -0.00398267  1
  In  In78  1  0.16366279  0.50420417  0.75368148  1
  In  In79  1  0.49979412  0.50308766  0.74790358  1
  In  In80  1  -0.00172830  0.00037181  -0.00109204  1
  In  In81  1  0.50451771  0.16505467  0.50396378  1
  In  In82  1  0.83441885  0.16752383  0.25284384  1
  In  In83  1  -0.00086066  -0.00323153  0.49915395  1
  In  In84  1  0.33285402  0.66685135  -0.00027925  1
  In  In85  1  0.16782461  0.16656029  0.50136462  1
  In  In86  1  0.33469881  0.32979084  0.24877473  1
  In  In87  1  0.66750548  0.67004082  -0.00265447  1
  In  In88  1  -0.00146451  0.67085872  0.74833121  1
  In  In89  1  0.50051545  0.83088962  0.25141112  1
  In  In90  1  0.50383450  0.16961922  0.00168132  1
  In  In91  1  0.33294445  -0.00125491  0.50328847  1
  In  In92  1  0.00070440  -0.00049653  0.25022305  1
  In  In93  1  0.33204531  0.33393237  0.00365947  1
  In  In94  1  0.50031848  0.83148732  0.00403773  1
  In  In95  1  0.83341919  0.16319663  0.75095808  1
  In  In96  1  -0.00014964  0.33028560  0.24873559  1
  In  In97  1  0.00038919  0.33175066  0.50094086  1
  In  In98  1  0.83365796  0.50163239  0.24846350  1
  In  In99  1  0.83076873  0.16576659  0.49578120  1
  In  In100  1  0.50082206  0.49924124  0.25263469  1
  In  In101  1  0.33324637  0.00058057  0.74929857  1
  In  In102  1  0.49938101  0.83200672  0.74761158  1
  In  In103  1  0.83077477  0.83053612  0.49867868  1
  In  In104  1  0.16865276  0.50387808  0.50114725  1
  In  In105  1  0.49939683  0.50101497  0.00128195  1
  In  In106  1  0.33136755  0.00417274  -0.00122976  1
  In  In107  1  0.66827825  0.33134670  0.24952350  1
  Ir  Ir108  1  0.83312935  0.83575669  0.75376048  1
  Ir  Ir109  1  0.82903037  0.50475214  0.50313793  1
  Ir  Ir110  1  0.16823818  0.16687085  0.24235670  1
  Ir  Ir111  1  0.66964518  0.33382372  0.74588068  1
  Ir  Ir112  1  0.67199660  0.00051219  -0.00301538  1
  Ir  Ir113  1  0.16441248  0.83000200  0.75075258  1
  Ir  Ir114  1  -0.00113692  0.66838843  0.49883827  1
  Ir  Ir115  1  0.17151656  0.82965396  0.24953842  1
  Ir  Ir116  1  0.16936697  0.50357138  0.24939903  1
  Ir  Ir117  1  -0.00114973  0.66872501  0.24826477  1
  Ir  Ir118  1  0.66953270  0.33662235  0.50397428  1
  Ir  Ir119  1  0.82747151  0.83109999  0.24755766  1
  Ir  Ir120  1  0.66735264  -0.00088429  0.74903477  1
  Ir  Ir121  1  0.16402738  0.83181822  -0.00343026  1
  Ir  Ir122  1  0.16985730  0.82456962  0.50191687  1
  Ir  Ir123  1  0.66845164  -0.00322789  0.25324855  1
  Ir  Ir124  1  0.49754024  0.50438285  0.49753808  1
  Ir  Ir125  1  0.82830871  0.50377763  0.75000226  1
  Ir  Ir126  1  0.33170042  -0.00105865  0.25033557  1
  Ir  Ir127  1  0.66214305  0.66886060  0.49930720  1
  Ir  Ir128  1  0.32963590  0.67252873  0.75033038  1
  Ir  Ir129  1  0.33384259  0.66800530  0.25132805  1
  Ir  Ir130  1  0.50582325  0.16403107  0.74628174  1
  Ir  Ir131  1  0.83030836  0.83309453  -0.00097545  1
  Ir  Ir132  1  0.66907325  0.67192719  0.75019672  1
  Ir  Ir133  1  0.33809498  0.33538477  0.49957259  1
  Ir  Ir134  1  0.50513043  0.16143896  0.25275308  1
  Ir  Ir135  1  0.49958800  0.82983967  0.49914970  1
  Ir  Ir136  1  0.66496250  -0.00454194  0.50113260  1
  Ir  Ir137  1  0.00455654  -0.00643210  0.75470820  1
  Ir  Ir138  1  0.16375710  0.16616657  -0.00012660  1
  Ir  Ir139  1  0.66578719  0.66847928  0.25335161  1
  Ir  Ir140  1  -0.00312191  0.67089422  0.00036543  1
  Ir  Ir141  1  0.33584204  0.67026663  0.49868094  1
  Ir  Ir142  1  0.83532294  0.16304888  -0.00407818  1
  Ir  Ir143  1  0.16627765  0.16228913  0.75571764  1
  O  O144  1  0.29675197  0.33238070  0.12656575  1
  O  O145  1  0.31963145  0.32242105  0.62204088  1
  O  O146  1  0.31597133  0.64651283  0.13172911  1
  O  O147  1  0.30416020  0.66373930  0.62325707  1
  O  O148  1  0.31217577  0.99305079  0.12948162  1
  O  O149  1  0.30597574  0.97897087  0.62710480  1
  O  O150  1  0.63162077  0.31929238  0.12608592  1
  O  O151  1  0.64659151  0.32458631  0.62476780  1
  O  O152  1  0.64798813  0.65839589  0.13370965  1
  O  O153  1  0.64414601  0.67651486  0.62538163  1
  O  O154  1  0.64771306  0.98881063  0.12484167  1
  O  O155  1  0.64630647  0.97763972  0.62488792  1
  O  O156  1  0.96561527  0.31143643  0.12174284  1
  O  O157  1  0.96232785  0.32620536  0.62678847  1
  O  O158  1  0.96664219  0.66376160  0.12359377  1
  O  O159  1  0.97982152  0.67545428  0.61887884  1
  O  O160  1  0.98583515  0.99937868  0.12423453  1
  O  O161  1  0.98569047  0.97703727  0.63394678  1
  O  O162  1  0.19173214  0.15519735  0.11921709  1
  O  O163  1  0.20176126  0.15882884  0.63812643  1
  O  O164  1  0.19466483  0.49865989  0.12932976  1
  O  O165  1  0.18768018  0.51893508  0.62674725  1
  O  O166  1  0.19764536  0.83627284  0.12230254  1
  O  O167  1  0.19488543  0.82064616  0.62647455  1
  O  O168  1  0.52153547  0.15867266  0.13384264  1
  O  O169  1  0.53918509  0.16359816  0.63010403  1
  O  O170  1  0.53146580  0.50006166  0.12831796  1
  O  O171  1  0.51177969  0.51192295  0.61873056  1
  O  O172  1  0.53818904  0.82887404  0.12840306  1
  O  O173  1  0.53290512  0.82854473  0.61821278  1
  O  O174  1  0.86704411  0.15714516  0.11469497  1
  O  O175  1  0.84474998  0.16014800  0.62421367  1
  O  O176  1  0.87116434  0.49486748  0.12317609  1
  O  O177  1  0.84880746  0.50025950  0.62808275  1
  O  O178  1  0.85152103  0.82058174  0.12248745  1
  O  O179  1  0.86077062  0.83329719  0.63282174  1
  O  O180  1  0.13983944  0.17178742  0.36190863  1
  O  O181  1  0.13246583  0.17832908  0.87864571  1
  O  O182  1  0.15341377  0.50280822  0.36904380  1
  O  O183  1  0.11949292  0.51182805  0.87625061  1
  O  O184  1  0.15074506  0.82428552  0.37637882  1
  O  O185  1  0.13155837  0.83286933  0.87328885  1
  O  O186  1  0.48885584  0.16111199  0.37279392  1
  O  O187  1  0.48889129  0.16152679  0.86501074  1
  O  O188  1  0.46886412  0.50741454  0.37834775  1
  O  O189  1  0.47360115  0.50867007  0.87310154  1
  O  O190  1  0.46787326  0.82950292  0.37964241  1
  O  O191  1  0.47507768  0.85031338  0.87510273  1
  O  O192  1  0.78935154  0.17660526  0.37526568  1
  O  O193  1  0.79917709  0.16605217  0.87797085  1
  O  O194  1  0.81730904  0.50150264  0.38115460  1
  O  O195  1  0.81415739  0.51372844  0.87072726  1
  O  O196  1  0.79915792  0.83925073  0.36839033  1
  O  O197  1  0.80922983  0.84680152  0.87655390  1
  O  O198  1  0.02499004  0.00869825  0.37299755  1
  O  O199  1  0.03106922  0.00898488  0.87352561  1
  O  O200  1  0.01685533  0.34118915  0.37309374  1
  O  O201  1  0.03363084  0.34503477  0.87653446  1
  O  O202  1  0.01908903  0.66645003  0.37333509  1
  O  O203  1  0.01479480  0.68386254  0.87951547  1
  O  O204  1  0.34613969  -0.00738877  0.37135145  1
  O  O205  1  0.36684929  -0.00450549  0.87267921  1
  O  O206  1  0.35448449  0.34684099  0.37715025  1
  O  O207  1  0.35602143  0.34215359  0.87810879  1
  O  O208  1  0.36346740  0.68686069  0.37563456  1
  O  O209  1  0.35799066  0.69386905  0.86798609  1
  O  O210  1  0.69693001  0.00611768  0.37771494  1
  O  O211  1  0.69919633  0.01013885  0.87248328  1
  O  O212  1  0.68562321  0.33902397  0.38490967  1
  O  O213  1  0.68466576  0.33641865  0.86593803  1
  O  O214  1  0.68939691  0.67891419  0.37709581  1
  O  O215  1  0.70261112  0.67302442  0.86812997  1
  O  O216  1  0.06555372  0.10601133  0.01371770  1
  O  O217  1  0.07001323  0.09233120  0.51312154  1
  O  O218  1  0.07044437  0.42875669  0.04070311  1
  O  O219  1  0.07826038  0.42630407  0.51526317  1
  O  O220  1  0.06660809  0.76425109  0.01643537  1
  O  O221  1  0.07251227  0.75782135  0.52649397  1
  O  O222  1  0.41209796  0.09295523  0.01026328  1
  O  O223  1  0.40598167  0.09595014  0.52722142  1
  O  O224  1  0.39164845  0.44253766  0.02525179  1
  O  O225  1  0.40608556  0.43246842  0.51433586  1
  O  O226  1  0.39408594  0.76977078  0.02467214  1
  O  O227  1  0.40104799  0.76731709  0.52444177  1
  O  O228  1  0.74292176  0.09191180  0.01425348  1
  O  O229  1  0.72443428  0.09307869  0.52183664  1
  O  O230  1  0.73842678  0.42937970  0.02911428  1
  O  O231  1  0.73840084  0.43180265  0.52598757  1
  O  O232  1  0.73707870  0.76796111  0.02763796  1
  O  O233  1  0.72860814  0.76402096  0.51735316  1
  O  O234  1  0.10246960  0.26135156  0.02619201  1
  O  O235  1  0.09663509  0.25848232  0.52026669  1
  O  O236  1  0.08317231  0.59897460  0.02665830  1
  O  O237  1  0.09233206  0.60323412  0.51512735  1
  O  O238  1  0.09468716  0.92273992  0.00475782  1
  O  O239  1  0.09312412  0.90914127  0.51914079  1
  O  O240  1  0.43597035  0.26927206  0.02652736  1
  O  O241  1  0.42409099  0.25909983  0.51612907  1
  O  O242  1  0.43730687  0.60755212  -0.00265024  1
  O  O243  1  0.43224900  0.60498192  0.50367632  1
  O  O244  1  0.41845936  0.92137181  0.02204824  1
  O  O245  1  0.42866674  0.91696208  0.52044146  1
  O  O246  1  0.77561322  0.25999804  0.02302587  1
  O  O247  1  0.76125973  0.27164703  0.52890988  1
  O  O248  1  0.76985020  0.60433370  0.02374555  1
  O  O249  1  0.75502094  0.59858352  0.51583189  1
  O  O250  1  0.76237730  0.92621737  0.01932767  1
  O  O251  1  0.75249734  0.92407484  0.51539859  1
  O  O252  1  0.23770078  0.07205810  0.26629234  1
  O  O253  1  0.23055491  0.06848012  0.78070598  1
  O  O254  1  0.24268105  0.41771456  0.26648651  1
  O  O255  1  0.23718812  0.40770356  0.78079298  1
  O  O256  1  0.24712430  0.74244070  0.26911192  1
  O  O257  1  0.22624401  0.73060928  0.75295116  1
  O  O258  1  0.57631262  0.06708825  0.27434565  1
  O  O259  1  0.57236144  0.06656996  0.77525712  1
  O  O260  1  0.57068192  0.40203091  0.26391599  1
  O  O261  1  0.58023156  0.40699354  0.75740807  1
  O  O262  1  0.57448200  0.73629002  0.28272955  1
  O  O263  1  0.57396286  0.73602920  0.77226737  1
  O  O264  1  0.90044559  0.06743336  0.28028910  1
  O  O265  1  0.90834799  0.05973069  0.77355542  1
  O  O266  1  0.90073111  0.40014351  0.25320159  1
  O  O267  1  0.90022720  0.41463074  0.76678956  1
  O  O268  1  0.90023813  0.73742219  0.26050216  1
  O  O269  1  0.89883261  0.74302657  0.77843049  1
  O  O270  1  0.25689314  0.23559056  0.26551096  1
  O  O271  1  0.25263763  0.23778173  0.77265964  1
  O  O272  1  0.26876676  0.56968730  0.27417512  1
  O  O273  1  0.27203024  0.57597758  0.78087223  1
  O  O274  1  0.26805736  0.89752387  0.26743103  1
  O  O275  1  0.25815016  0.89255827  0.78015762  1
  O  O276  1  0.59969556  0.22443165  0.27504190  1
  O  O277  1  0.60641854  0.23077508  0.76509137  1
  O  O278  1  0.59399883  0.58165907  0.27408109  1
  O  O279  1  0.59449905  0.58454259  0.77147801  1
  O  O280  1  0.60172170  0.90244095  0.27526066  1
  O  O281  1  0.59424401  0.91292059  0.76679287  1
  O  O282  1  0.94452349  0.22073580  0.26689087  1
  O  O283  1  0.93133337  0.23118878  0.77886763  1
  O  O284  1  0.93079854  0.57801077  0.25985847  1
  O  O285  1  0.92157649  0.57478724  0.77245503  1
  O  O286  1  0.91432683  0.90501241  0.26906994  1
  O  O287  1  0.93303460  0.90024675  0.78071240  1
  O  O288  1  0.26902347  0.24510180  0.48884215  1
  O  O289  1  0.25373269  0.23296416  0.97873701  1
  O  O290  1  0.27249338  0.57567640  0.47306108  1
  O  O291  1  0.26512772  0.56701669  0.97620198  1
  O  O292  1  0.26544577  0.88894572  0.48365606  1
  O  O293  1  0.25441779  0.90315274  0.97200150  1
  O  O294  1  0.60750556  0.23722958  0.48730676  1
  O  O295  1  0.60646437  0.22721796  0.97347165  1
  O  O296  1  0.58616804  0.57967839  0.47242890  1
  O  O297  1  0.60303682  0.56936689  0.98927051  1
  O  O298  1  0.59890575  0.89406696  0.47652174  1
  O  O299  1  0.59531161  0.91566841  0.98179747  1
  O  O300  1  0.93195352  0.23063826  0.47062890  1
  O  O301  1  0.93047542  0.22466278  0.97233650  1
  O  O302  1  0.92494653  0.57583302  0.48319694  1
  O  O303  1  0.93301608  0.57985845  0.97037585  1
  O  O304  1  0.91993012  0.90722433  0.47941796  1
  O  O305  1  0.92281961  0.90318344  0.97311904  1
  O  O306  1  0.24181319  0.07472120  0.48540382  1
  O  O307  1  0.22535882  0.06900930  0.97392701  1
  O  O308  1  0.25344083  0.41213551  0.48476204  1
  O  O309  1  0.22669319  0.39870612  0.97556974  1
  O  O310  1  0.24051790  0.73356216  0.48535874  1
  O  O311  1  0.23783943  0.74689890  0.98261851  1
  O  O312  1  0.57689995  0.06570458  0.48247005  1
  O  O313  1  0.58065207  0.06815120  0.97213534  1
  O  O314  1  0.56998408  0.41107633  0.48680206  1
  O  O315  1  0.56408021  0.39763063  0.99410204  1
  O  O316  1  0.56901135  0.73809878  0.47133399  1
  O  O317  1  0.56671417  0.73438753  0.97092976  1
  O  O318  1  0.89744359  0.06541433  0.47102782  1
  O  O319  1  0.89995226  0.06985146  0.96452688  1
  O  O320  1  0.89713361  0.41378556  0.49892266  1
  O  O321  1  0.91114835  0.41177152  0.97229338  1
  O  O322  1  0.91124141  0.74049457  0.48434185  1
  O  O323  1  0.89832755  0.73864566  0.97523948  1
  O  O324  1  0.10322085  0.25963208  0.21495062  1
  O  O325  1  0.09888890  0.25125391  0.73576667  1
  O  O326  1  0.09000230  0.59328842  0.22545423  1
  O  O327  1  0.09769489  0.60837692  0.72915589  1
  O  O328  1  0.09617665  0.91533373  0.23922431  1
  O  O329  1  0.10484607  0.93104548  0.74638112  1
  O  O330  1  0.43976714  0.25734437  0.23207862  1
  O  O331  1  0.43058207  0.25025457  0.72763636  1
  O  O332  1  0.42308151  0.59792164  0.24327050  1
  O  O333  1  0.42562606  0.61000785  0.74711383  1
  O  O334  1  0.41895403  0.92364941  0.23164934  1
  O  O335  1  0.42067575  0.91899716  0.72531647  1
  O  O336  1  0.77200316  0.26888423  0.22198623  1
  O  O337  1  0.76162856  0.26578253  0.72447220  1
  O  O338  1  0.75862465  0.60074160  0.22616807  1
  O  O339  1  0.76083799  0.60113736  0.73563437  1
  O  O340  1  0.75738165  0.92254358  0.22704144  1
  O  O341  1  0.76423419  0.93020628  0.73496098  1
  O  O342  1  0.07381639  0.10225842  0.22508440  1
  O  O343  1  0.06885347  0.09244324  0.73734178  1
  O  O344  1  0.07900956  0.43212263  0.22225838  1
  O  O345  1  0.06807577  0.42881876  0.73427328  1
  O  O346  1  0.07491526  0.75823762  0.23276526  1
  O  O347  1  0.06379359  0.77641330  0.72846966  1
  O  O348  1  0.40497795  0.09039730  0.23594810  1
  O  O349  1  0.40869695  0.10087828  0.72267012  1
  O  O350  1  0.40509643  0.42721616  0.22131820  1
  O  O351  1  0.40475501  0.43022147  0.73898585  1
  O  O352  1  0.39785126  0.76238419  0.22549299  1
  O  O353  1  0.39170909  0.76600181  0.72716532  1
  O  O354  1  0.73737876  0.08655946  0.23866195  1
  O  O355  1  0.72896988  0.09511406  0.73007467  1
  O  O356  1  0.73501264  0.43407463  0.21869793  1
  O  O357  1  0.73919416  0.42662797  0.72385205  1
  O  O358  1  0.73216952  0.76246627  0.22428381  1
  O  O359  1  0.73603882  0.77034395  0.72676540  1
