# generated using pymatgen
data_BaLaInIrO6
_symmetry_space_group_name_H-M   'P 1'
_cell_length_a   17.54402719
_cell_length_b   17.58762556
_cell_length_c   16.50700985
_cell_angle_alpha   90.03813733
_cell_angle_beta   90.02243953
_cell_angle_gamma   89.98880355
_symmetry_Int_Tables_number   1
_chemical_formula_structural   BaLaInIrO6
_chemical_formula_sum   'Ba36 La36 In36 Ir36 O216'
_cell_volume   5093.36471653
_cell_formula_units_Z   36
loop_
 _symmetry_equiv_pos_site_id
 _symmetry_equiv_pos_as_xyz
  1  'x, y, z'
loop_
 _atom_site_type_symbol
 _atom_site_label
 _atom_site_symmetry_multiplicity
 _atom_site_fract_x
 _atom_site_fract_y
 _atom_site_fract_z
 _atom_site_occupancy
  Ba  Ba0  1  0.16637304  0.67379564  0.62647552  1
  Ba  Ba1  1  0.33454896  0.84214922  0.62693150  1
  Ba  Ba2  1  0.16460168  0.65474843  0.37572641  1
  Ba  Ba3  1  0.83397045  0.65744494  0.87538459  1
  Ba  Ba4  1  0.50193462  0.32368428  0.87344805  1
  Ba  Ba5  1  0.66572308  0.82847467  0.87461689  1
  Ba  Ba6  1  0.33114681  0.49294198  0.87604668  1
  Ba  Ba7  1  0.33034103  0.84155611  0.12290798  1
  Ba  Ba8  1  0.16464269  0.00507583  0.62407573  1
  Ba  Ba9  1  0.66929807  0.15545606  0.87711598  1
  Ba  Ba10  1  0.32983547  0.49089267  0.37392174  1
  Ba  Ba11  1  0.66351911  0.49447636  0.37484141  1
  Ba  Ba12  1  0.16439849  0.34790129  0.12681426  1
  Ba  Ba13  1  0.83111982  0.65632479  0.37754123  1
  Ba  Ba14  1  0.17062009  0.65811157  0.87532563  1
  Ba  Ba15  1  0.33249374  0.17079105  0.62467017  1
  Ba  Ba16  1  0.83176973  0.34497691  0.12481331  1
  Ba  Ba17  1  0.66626107  0.15412322  0.37121445  1
  Ba  Ba18  1  0.66000294  0.82656820  0.37832931  1
  Ba  Ba19  1  0.16542627  0.67556825  0.12680054  1
  Ba  Ba20  1  0.66641877  0.17121542  0.62480806  1
  Ba  Ba21  1  0.66801778  0.84234006  0.63016242  1
  Ba  Ba22  1  0.82957009  0.68135827  0.62567786  1
  Ba  Ba23  1  0.66982221  0.17580119  0.12444044  1
  Ba  Ba24  1  0.49917033  0.99479221  0.37675933  1
  Ba  Ba25  1  0.33349089  0.17138356  0.12378912  1
  Ba  Ba26  1  0.33114799  0.15836382  0.37802694  1
  Ba  Ba27  1  0.66876160  0.51071412  0.62586729  1
  Ba  Ba28  1  0.16461044  0.32309055  0.37253489  1
  Ba  Ba29  1  0.33427792  0.82584357  0.87604361  1
  Ba  Ba30  1  0.83582599  0.68193920  0.12825268  1
  Ba  Ba31  1  1.00164373  0.83810392  0.62183495  1
  Ba  Ba32  1  0.83308186  0.00225086  0.62192746  1
  Ba  Ba33  1  0.50139635  0.33710435  0.62508652  1
  Ba  Ba34  1  0.50557161  0.66225628  0.87418741  1
  Ba  Ba35  1  0.17030275  0.99099561  0.87308142  1
  La  La36  1  0.16747993  0.34531586  0.62145050  1
  La  La37  1  -0.00795789  0.14838042  0.87661049  1
  La  La38  1  0.83158568  0.97865247  0.37180556  1
  La  La39  1  0.33824811  0.51685010  0.62774839  1
  La  La40  1  0.82422492  0.34676992  0.62393058  1
  La  La41  1  0.49811942  0.68238979  0.62069005  1
  La  La42  1  0.82967896  0.01363985  0.12175414  1
  La  La43  1  0.16227209  0.01388054  0.12942901  1
  La  La44  1  0.67187679  0.85066662  0.12475942  1
  La  La45  1  0.17152417  0.98509035  0.37887215  1
  La  La46  1  1.00553251  0.51679354  0.12942058  1
  La  La47  1  0.49727019  0.34645149  0.12747080  1
  La  La48  1  -0.00516701  0.15163345  0.37390816  1
  La  La49  1  0.33437273  0.51715194  0.12919097  1
  La  La50  1  -0.00382895  0.48145077  0.88069768  1
  La  La51  1  0.33234931  0.15467598  0.87264899  1
  La  La52  1  -0.00664594  0.48906666  0.37202666  1
  La  La53  1  1.00754060  0.18582760  0.12226103  1
  La  La54  1  0.50350298  0.99088813  0.87693325  1
  La  La55  1  0.83401610  0.98439136  0.87240660  1
  La  La56  1  1.00764560  0.84681684  0.12387345  1
  La  La57  1  0.83667265  0.31520708  0.87724283  1
  La  La58  1  1.00342193  0.51233585  0.62800326  1
  La  La59  1  0.17165521  0.32104402  0.87677244  1
  La  La60  1  0.50057772  0.01104304  0.12700093  1
  La  La61  1  0.49819353  0.01534958  0.62641171  1
  La  La62  1  0.50311723  0.31274973  0.37351647  1
  La  La63  1  0.67166491  0.51558546  0.12128349  1
  La  La64  1  0.83670166  0.31892327  0.37524782  1
  La  La65  1  1.00968090  0.17936606  0.62505446  1
  La  La66  1  -0.00682852  0.81315444  0.37383159  1
  La  La67  1  0.50600264  0.65505023  0.37706244  1
  La  La68  1  -0.00413707  0.82070331  0.87127570  1
  La  La69  1  0.65964891  0.48783943  0.87731657  1
  La  La70  1  0.33124497  0.82012872  0.37328452  1
  La  La71  1  0.49594595  0.68667168  0.13003617  1
  In  In72  1  0.66936905  0.66620497  0.75126110  1
  In  In73  1  0.16584924  0.83174541  0.49812105  1
  In  In74  1  0.50099629  0.49949301  0.25053741  1
  In  In75  1  0.33210620  0.33319157  0.24844464  1
  In  In76  1  0.49728384  0.49747680  0.50063109  1
  In  In77  1  0.83497266  0.49667252  0.75466016  1
  In  In78  1  0.16628132  0.49523479  0.75196427  1
  In  In79  1  0.33125478  -0.00139810  0.25048097  1
  In  In80  1  0.50079718  0.49994051  0.74949250  1
  In  In81  1  0.33314650  0.33364249  0.00135040  1
  In  In82  1  0.50022994  0.16554888  0.50014958  1
  In  In83  1  0.67004648  0.67108433  0.00177244  1
  In  In84  1  0.33530292  0.66826817  0.75001757  1
  In  In85  1  -0.00229143  0.66170363  0.50034394  1
  In  In86  1  0.16449594  0.16819438  0.74949207  1
  In  In87  1  0.16397599  0.16712355  -0.00337630  1
  In  In88  1  0.16500010  0.83488334  -0.00109313  1
  In  In89  1  0.00057975  0.66334185  0.75225094  1
  In  In90  1  0.33219529  0.33427699  0.50169124  1
  In  In91  1  0.66837290  0.33284446  0.49634506  1
  In  In92  1  0.00000799  -0.00046795  0.49609472  1
  In  In93  1  -0.00063422  0.33501183  0.24974477  1
  In  In94  1  0.66640267  0.67180010  0.24894886  1
  In  In95  1  0.66811319  0.33122676  -0.00016694  1
  In  In96  1  0.33586548  0.66788178  0.00157727  1
  In  In97  1  0.83514042  0.16346401  0.24897002  1
  In  In98  1  -0.00131620  -0.00086060  0.74899608  1
  In  In99  1  0.33374176  -0.00004557  -0.00046064  1
  In  In100  1  -0.00122159  -0.00148842  0.25039429  1
  In  In101  1  0.50205863  0.50152490  0.00225923  1
  In  In102  1  0.33288871  0.66647508  0.49650754  1
  In  In103  1  0.66789568  0.33512831  0.24919825  1
  In  In104  1  0.66765125  -0.00048387  0.50032147  1
  In  In105  1  -0.00236990  0.33351260  0.50393354  1
  In  In106  1  0.83619228  0.16315370  0.74503409  1
  In  In107  1  -0.00122931  0.66738548  0.00059357  1
  Ir  Ir108  1  0.83412685  0.50166369  0.24824963  1
  Ir  Ir109  1  0.83450974  0.49790214  0.00326394  1
  Ir  Ir110  1  0.16338699  0.83349906  0.25068854  1
  Ir  Ir111  1  0.50563550  0.83937974  0.00354210  1
  Ir  Ir112  1  -0.00204621  0.66687385  0.24975600  1
  Ir  Ir113  1  0.16186627  0.49728229  0.00361698  1
  Ir  Ir114  1  0.50206301  0.16431995  0.00037322  1
  Ir  Ir115  1  0.66716376  -0.00421937  0.24351329  1
  Ir  Ir116  1  0.33792836  0.00107504  0.74818179  1
  Ir  Ir117  1  0.16036152  0.16360652  0.25058763  1
  Ir  Ir118  1  0.33379499  -0.00197210  0.50094415  1
  Ir  Ir119  1  0.50142103  0.83973193  0.74897444  1
  Ir  Ir120  1  0.66600784  0.66918376  0.49988731  1
  Ir  Ir121  1  0.83730060  0.83979281  0.00304553  1
  Ir  Ir122  1  0.16446466  0.49563555  0.50166351  1
  Ir  Ir123  1  0.83136142  0.83253717  0.49499831  1
  Ir  Ir124  1  0.16529280  0.83567751  0.75039517  1
  Ir  Ir125  1  0.50341897  0.16322992  0.24379687  1
  Ir  Ir126  1  0.83301236  0.83698255  0.75293189  1
  Ir  Ir127  1  0.49917419  0.83624114  0.24990520  1
  Ir  Ir128  1  -0.00058352  0.33449680  -0.00323444  1
  Ir  Ir129  1  0.66437377  0.00102514  0.75467633  1
  Ir  Ir130  1  0.67220780  0.32981724  0.74977974  1
  Ir  Ir131  1  -0.00425167  0.00007628  0.00291642  1
  Ir  Ir132  1  0.83937280  0.16346433  -0.00146089  1
  Ir  Ir133  1  0.83620034  0.83443792  0.24663274  1
  Ir  Ir134  1  0.49691444  0.83675971  0.49987777  1
  Ir  Ir135  1  -0.00049012  0.33121304  0.75134259  1
  Ir  Ir136  1  0.83392539  0.49695563  0.49641816  1
  Ir  Ir137  1  0.83961016  0.16468305  0.49779113  1
  Ir  Ir138  1  0.33426340  0.67232779  0.24965304  1
  Ir  Ir139  1  0.66898511  0.00150940  0.00037675  1
  Ir  Ir140  1  0.16387685  0.50433352  0.25101944  1
  Ir  Ir141  1  0.16191132  0.16666662  0.49847573  1
  Ir  Ir142  1  0.32968670  0.32910575  0.75163941  1
  Ir  Ir143  1  0.49895949  0.16590171  0.75570520  1
  O  O144  1  0.31006181  0.32060364  0.12555605  1
  O  O145  1  0.29988637  0.32175975  0.63309476  1
  O  O146  1  0.31361892  0.66902571  0.13185306  1
  O  O147  1  0.31472112  0.66391553  0.62281592  1
  O  O148  1  0.29846969  1.00209809  0.12666139  1
  O  O149  1  0.31331511  0.99950956  0.62453722  1
  O  O150  1  0.63554115  0.33036573  0.12416427  1
  O  O151  1  0.65603016  0.32673118  0.62958668  1
  O  O152  1  0.63445540  0.65983137  0.12452803  1
  O  O153  1  0.63855889  0.67016525  0.62042755  1
  O  O154  1  0.63742986  0.98987630  0.12113654  1
  O  O155  1  0.63735723  0.99997750  0.63407037  1
  O  O156  1  0.97904422  0.32374273  0.11895999  1
  O  O157  1  0.96297887  0.31953919  0.63271673  1
  O  O158  1  0.98276209  0.65599649  0.12853980  1
  O  O159  1  0.97734473  0.65128509  0.62602826  1
  O  O160  1  0.96559762  0.98711197  0.12208884  1
  O  O161  1  0.98274930  0.99519004  0.62208195  1
  O  O162  1  0.18085760  0.15331007  0.12815203  1
  O  O163  1  0.17976543  0.16199381  0.61906788  1
  O  O164  1  0.19393155  0.50183437  0.12769765  1
  O  O165  1  0.19677787  0.48480935  0.62026842  1
  O  O166  1  0.18009234  0.83322215  0.13231084  1
  O  O167  1  0.18304628  0.83560093  0.62930379  1
  O  O168  1  0.52553217  0.14726880  0.12074410  1
  O  O169  1  0.51683384  0.15695215  0.63457495  1
  O  O170  1  0.53987235  0.48150191  0.12694157  1
  O  O171  1  0.52169279  0.48948547  0.62521567  1
  O  O172  1  0.53350002  0.82649148  0.12654959  1
  O  O173  1  0.51977881  0.82204463  0.62272561  1
  O  O174  1  0.87074175  0.15253524  0.11923306  1
  O  O175  1  0.87286587  0.15700161  0.61745857  1
  O  O176  1  0.86902865  0.49827083  0.12697551  1
  O  O177  1  0.86588436  0.48535586  0.61825527  1
  O  O178  1  0.87036927  0.83851656  0.12467863  1
  O  O179  1  0.85289259  0.83939548  0.62576928  1
  O  O180  1  0.13051864  0.16886046  0.37392353  1
  O  O181  1  0.12650218  0.18072725  0.87333782  1
  O  O182  1  0.13053511  0.50116069  0.37719535  1
  O  O183  1  0.13380510  0.49663996  0.88294948  1
  O  O184  1  0.13144741  0.84295905  0.36656923  1
  O  O185  1  0.13420516  0.83626764  0.87110676  1
  O  O186  1  0.48385742  0.16993659  0.36480788  1
  O  O187  1  0.46943691  0.16714072  0.87923681  1
  O  O188  1  0.47712538  0.52168738  0.37499200  1
  O  O189  1  0.47885487  0.50372758  0.87512917  1
  O  O190  1  0.46799876  0.84326976  0.37426633  1
  O  O191  1  0.48147574  0.85474858  0.87603406  1
  O  O192  1  0.81522616  0.18012776  0.38039399  1
  O  O193  1  0.82084874  0.17580387  0.87826593  1
  O  O194  1  0.81062654  0.50330852  0.37164789  1
  O  O195  1  0.80138603  0.49655798  0.88569157  1
  O  O196  1  0.80788736  0.83839005  0.37028553  1
  O  O197  1  0.81230505  0.84728130  0.87841899  1
  O  O198  1  0.03615965  0.01674391  0.37132759  1
  O  O199  1  0.02053322  0.00981319  0.88451568  1
  O  O200  1  0.01582763  0.35085114  0.37717160  1
  O  O201  1  0.03341364  0.34450042  0.87316306  1
  O  O202  1  0.01301950  0.67192064  0.37001492  1
  O  O203  1  0.01921556  0.68269424  0.87695795  1
  O  O204  1  0.34872979  0.00155475  0.37949194  1
  O  O205  1  0.36601784  0.00882456  0.86838062  1
  O  O206  1  0.36372169  0.33393538  0.37190927  1
  O  O207  1  0.35141792  0.33853169  0.86951758  1
  O  O208  1  0.36548928  0.67577485  0.36768388  1
  O  O209  1  0.35307509  0.66279931  0.87618602  1
  O  O210  1  0.69405201  -0.00315041  0.36517173  1
  O  O211  1  0.69806285  0.00165008  0.87841812  1
  O  O212  1  0.70545418  0.33671941  0.37328764  1
  O  O213  1  0.70118829  0.33651547  0.87007962  1
  O  O214  1  0.68207812  0.67271647  0.37906001  1
  O  O215  1  0.68700402  0.67734763  0.87784364  1
  O  O216  1  0.06075376  0.09479087  0.02585155  1
  O  O217  1  0.06398183  0.10852746  0.51481834  1
  O  O218  1  0.06000210  0.43392449  0.02169473  1
  O  O219  1  0.07173312  0.42781244  0.53289995  1
  O  O220  1  0.06310749  0.77072201  0.02112646  1
  O  O221  1  0.07210149  0.75572314  0.50493954  1
  O  O222  1  0.41515057  0.09255692  0.01596570  1
  O  O223  1  0.40790182  0.08361167  0.51839667  1
  O  O224  1  0.40422018  0.42846321  0.03194961  1
  O  O225  1  0.39137349  0.43663064  0.52619772  1
  O  O226  1  0.42059913  0.76415957  0.02256437  1
  O  O227  1  0.40867788  0.76801448  0.50890614  1
  O  O228  1  0.74791275  0.08823392  0.02493953  1
  O  O229  1  0.74868768  0.09615963  0.51418348  1
  O  O230  1  0.74124454  0.43460380  0.02612722  1
  O  O231  1  0.74610551  0.42690461  0.52117270  1
  O  O232  1  0.74344406  0.77430582  0.02856604  1
  O  O233  1  0.73860034  0.76148801  0.51758046  1
  O  O234  1  0.08844530  0.26363263  0.01959712  1
  O  O235  1  0.09605391  0.26064526  0.52685809  1
  O  O236  1  0.09214133  0.58643278  0.02130340  1
  O  O237  1  0.09225531  0.58123613  0.52132900  1
  O  O238  1  0.08928434  0.93673635  0.03158640  1
  O  O239  1  0.09991143  0.93212352  0.50218516  1
  O  O240  1  0.43843363  0.25832080  0.02369806  1
  O  O241  1  0.42405870  0.25688437  0.51099289  1
  O  O242  1  0.42964216  0.59702491  0.03887282  1
  O  O243  1  0.43348749  0.60368980  0.52115705  1
  O  O244  1  0.43718896  0.93133254  0.02255426  1
  O  O245  1  0.43219653  0.93303555  0.52669153  1
  O  O246  1  0.77086504  0.25757881  0.01093301  1
  O  O247  1  0.77864651  0.26199006  0.52065473  1
  O  O248  1  0.76799177  0.58872983  0.02689334  1
  O  O249  1  0.76106700  0.59720482  0.51702380  1
  O  O250  1  0.76614279  0.93362125  0.02633989  1
  O  O251  1  0.76262363  0.92461100  0.50441580  1
  O  O252  1  0.22264808  0.06642126  0.26878731  1
  O  O253  1  0.25086476  0.07730972  0.76998305  1
  O  O254  1  0.23399258  0.41559689  0.26700033  1
  O  O255  1  0.22942318  0.38871484  0.76754231  1
  O  O256  1  0.24015911  0.74498695  0.27680980  1
  O  O257  1  0.23853393  0.75028536  0.76520510  1
  O  O258  1  0.57012187  0.06235467  0.25708239  1
  O  O259  1  0.56637700  0.06893721  0.77583405  1
  O  O260  1  0.56273218  0.39394682  0.27712113  1
  O  O261  1  0.58757379  0.40332863  0.77038927  1
  O  O262  1  0.55954349  0.73993935  0.27001971  1
  O  O263  1  0.57174870  0.75008505  0.75969608  1
  O  O264  1  0.89906664  0.06343749  0.27730776  1
  O  O265  1  0.90271342  0.06902349  0.78181977  1
  O  O266  1  0.89919252  0.40807602  0.27345599  1
  O  O267  1  0.90649302  0.39415001  0.78057105  1
  O  O268  1  0.90718042  0.74217721  0.27338550  1
  O  O269  1  0.90805124  0.74974936  0.76921404  1
  O  O270  1  0.25136448  0.23126163  0.26700827  1
  O  O271  1  0.26308642  0.23693799  0.78034283  1
  O  O272  1  0.26578910  0.57470534  0.26149023  1
  O  O273  1  0.26211942  0.56742609  0.75600975  1
  O  O274  1  0.25573927  0.90086323  0.27828717  1
  O  O275  1  0.26405412  0.91155489  0.76793458  1
  O  O276  1  0.59026514  0.23317779  0.26424047  1
  O  O277  1  0.59363750  0.23660890  0.77096836  1
  O  O278  1  0.58980991  0.58055738  0.26719223  1
  O  O279  1  0.60106398  0.56836732  0.77681970  1
  O  O280  1  0.59870898  0.89978446  0.25676042  1
  O  O281  1  0.58829172  0.91692790  0.77472122  1
  O  O282  1  0.93400014  0.23404496  0.27138441  1
  O  O283  1  0.93950871  0.23583780  0.77641512  1
  O  O284  1  0.93547379  0.56478875  0.26752269  1
  O  O285  1  0.93545444  0.55926919  0.77779963  1
  O  O286  1  0.92974141  0.89827343  0.27577059  1
  O  O287  1  0.92389120  0.90544653  0.77896459  1
  O  O288  1  0.25069019  0.23580219  0.48473452  1
  O  O289  1  0.25880178  0.24155369  0.96664235  1
  O  O290  1  0.25377908  0.56743598  0.48581696  1
  O  O291  1  0.25598733  0.56260853  0.99609433  1
  O  O292  1  0.26514945  0.90830520  0.47423635  1
  O  O293  1  0.25679463  0.91068353  0.98173018  1
  O  O294  1  0.59325392  0.24047911  0.47918227  1
  O  O295  1  0.59139026  0.23219792  0.98444527  1
  O  O296  1  0.59439920  0.58379687  0.48287013  1
  O  O297  1  0.60654216  0.56697512  0.98355884  1
  O  O298  1  0.58694580  0.90516487  0.48975949  1
  O  O299  1  0.59530738  0.91398092  0.98054538  1
  O  O300  1  0.93354565  0.22991428  0.47580506  1
  O  O301  1  0.93409009  0.23521844  0.97297764  1
  O  O302  1  0.92984859  0.56015499  0.47709363  1
  O  O303  1  0.92933199  0.56193966  0.98066912  1
  O  O304  1  0.92249298  0.90272874  0.46522290  1
  O  O305  1  0.93295263  0.90470769  0.97446433  1
  O  O306  1  0.23100217  0.06800490  0.47637272  1
  O  O307  1  0.24854873  0.08380883  0.97249347  1
  O  O308  1  0.22794141  0.40278120  0.48564689  1
  O  O309  1  0.22525256  0.40351335  0.97990391  1
  O  O310  1  0.24795874  0.74785240  0.46883170  1
  O  O311  1  0.24100685  0.74103649  0.98915025  1
  O  O312  1  0.57414494  0.07144748  0.49338281  1
  O  O313  1  0.56991239  0.06591713  0.97849388  1
  O  O314  1  0.56620517  0.39910258  0.47154170  1
  O  O315  1  0.58207987  0.40932850  0.97124511  1
  O  O316  1  0.56338200  0.73678170  0.48032853  1
  O  O317  1  0.57332232  0.75030486  0.98931495  1
  O  O318  1  0.90076318  0.07006855  0.46356393  1
  O  O319  1  0.90085444  0.06475682  0.97505246  1
  O  O320  1  0.89669284  0.40227096  0.47620196  1
  O  O321  1  0.90324714  0.40180485  0.97136430  1
  O  O322  1  0.90604198  0.74606865  0.48202312  1
  O  O323  1  0.90406339  0.74947018  0.98122713  1
  O  O324  1  0.09228966  0.25433459  0.22873910  1
  O  O325  1  0.09416441  0.27031124  0.72100770  1
  O  O326  1  0.08938942  0.59344833  0.23011788  1
  O  O327  1  0.08997358  0.58402831  0.72735700  1
  O  O328  1  0.09757392  0.92762474  0.22369328  1
  O  O329  1  0.09460420  0.92353819  0.73913169  1
  O  O330  1  0.44035611  0.25954286  0.22758272  1
  O  O331  1  0.42451476  0.25918499  0.73437120  1
  O  O332  1  0.42515057  0.60449206  0.22276992  1
  O  O333  1  0.43154170  0.59723452  0.71589544  1
  O  O334  1  0.43326376  0.92891633  0.22417257  1
  O  O335  1  0.43472527  0.93524898  0.72717973  1
  O  O336  1  0.76403632  0.25862375  0.23478180  1
  O  O337  1  0.76915961  0.26326539  0.73115250  1
  O  O338  1  0.76340172  0.59142645  0.22922983  1
  O  O339  1  0.76494392  0.59117937  0.73335221  1
  O  O340  1  0.76665971  0.92912797  0.21980526  1
  O  O341  1  0.76187793  0.93302918  0.74096865  1
  O  O342  1  0.06608712  0.09928153  0.22122252  1
  O  O343  1  0.06284437  0.10306526  0.73444086  1
  O  O344  1  0.06769668  0.43854004  0.23162549  1
  O  O345  1  0.06090343  0.42505815  0.72547760  1
  O  O346  1  0.06130897  0.76895733  0.23171503  1
  O  O347  1  0.07697778  0.76375401  0.73652007  1
  O  O348  1  0.41444487  0.09051483  0.23042851  1
  O  O349  1  0.40967795  0.09175877  0.73037527  1
  O  O350  1  0.40249784  0.43232974  0.21801530  1
  O  O351  1  0.39136448  0.42442394  0.72635897  1
  O  O352  1  0.40193248  0.76926849  0.23465844  1
  O  O353  1  0.41698786  0.76445184  0.73419752  1
  O  O354  1  0.74095081  0.08207845  0.22513797  1
  O  O355  1  0.73744822  0.08751169  0.73573167  1
  O  O356  1  0.73848419  0.43941630  0.22365113  1
  O  O357  1  0.74581851  0.41520736  0.72807517  1
  O  O358  1  0.73792215  0.77202068  0.22326431  1
  O  O359  1  0.74626539  0.76492753  0.73766328  1
