# generated using pymatgen
data_BaLaInIrO6
_symmetry_space_group_name_H-M   'P 1'
_cell_length_a   17.50572776
_cell_length_b   17.54417448
_cell_length_c   16.47959754
_cell_angle_alpha   89.96778904
_cell_angle_beta   90.01345575
_cell_angle_gamma   90.02523616
_symmetry_Int_Tables_number   1
_chemical_formula_structural   BaLaInIrO6
_chemical_formula_sum   'Ba36 La36 In36 Ir36 O216'
_cell_volume   5061.27094049
_cell_formula_units_Z   36
loop_
 _symmetry_equiv_pos_site_id
 _symmetry_equiv_pos_as_xyz
  1  'x, y, z'
loop_
 _atom_site_type_symbol
 _atom_site_label
 _atom_site_symmetry_multiplicity
 _atom_site_fract_x
 _atom_site_fract_y
 _atom_site_fract_z
 _atom_site_occupancy
  Ba  Ba0  1  0.16863114  0.00698012  0.12314707  1
  Ba  Ba1  1  0.83818347  0.32584633  0.37261889  1
  Ba  Ba2  1  0.33460032  0.49378201  0.37565418  1
  Ba  Ba3  1  0.33460230  0.50649596  0.62737518  1
  Ba  Ba4  1  0.49575025  0.34052623  0.12163520  1
  Ba  Ba5  1  0.49715677  0.67430236  0.12726799  1
  Ba  Ba6  1  0.16964035  0.31990094  0.87417413  1
  Ba  Ba7  1  0.67333011  0.18410601  0.62470934  1
  Ba  Ba8  1  0.99958499  0.17257141  0.62222934  1
  Ba  Ba9  1  0.83191576  0.01385716  0.61709006  1
  Ba  Ba10  1  0.00307664  0.15295133  0.87000791  1
  Ba  Ba11  1  0.33757618  0.17486528  0.12101812  1
  Ba  Ba12  1  0.66673224  0.17557437  0.12315988  1
  Ba  Ba13  1  0.50259995  0.34449280  0.62688477  1
  Ba  Ba14  1  0.16465168  0.34196422  0.62626401  1
  Ba  Ba15  1  -0.00184298  0.49444344  0.37155760  1
  Ba  Ba16  1  0.16882360  0.32434061  0.37451099  1
  Ba  Ba17  1  0.83301865  0.65687337  0.37751626  1
  Ba  Ba18  1  0.16406585  0.67507957  0.12859962  1
  Ba  Ba19  1  0.99856279  0.83735403  0.12741261  1
  Ba  Ba20  1  0.83115297  0.34472877  0.12365016  1
  Ba  Ba21  1  0.33167658  0.82924536  0.37505125  1
  Ba  Ba22  1  -0.00260881  0.82728250  0.38019229  1
  Ba  Ba23  1  0.66601172  0.83607972  0.12321178  1
  Ba  Ba24  1  0.66726585  0.51063580  0.12274545  1
  Ba  Ba25  1  0.83119040  0.99359863  0.37528735  1
  Ba  Ba26  1  0.16514085  0.65537493  0.87963450  1
  Ba  Ba27  1  0.49935612  0.67258630  0.62518697  1
  Ba  Ba28  1  0.83909161  0.66052785  0.87738818  1
  Ba  Ba29  1  0.49766949  0.99215184  0.87436410  1
  Ba  Ba30  1  0.16616535  0.34504551  0.11953120  1
  Ba  Ba31  1  0.17099242  0.98767895  0.87587394  1
  Ba  Ba32  1  0.83234771  0.67244977  0.12786287  1
  Ba  Ba33  1  0.49401367  0.00786012  0.12380848  1
  Ba  Ba34  1  0.49890149  0.32506383  0.87083400  1
  Ba  Ba35  1  0.33519241  0.50848922  0.12592664  1
  La  La36  1  0.49823686  0.65358957  0.87534173  1
  La  La37  1  1.00903677  0.17995532  0.12337124  1
  La  La38  1  0.32965678  0.48615865  0.87826541  1
  La  La39  1  1.00414636  0.51658843  0.12531033  1
  La  La40  1  0.33930158  0.18149077  0.62805722  1
  La  La41  1  0.82643012  0.34894639  0.62160069  1
  La  La42  1  0.50346003  0.32066817  0.37021806  1
  La  La43  1  0.66296546  0.48292409  0.37231408  1
  La  La44  1  0.32502409  0.15142997  0.88030859  1
  La  La45  1  0.83911860  0.31860431  0.87454101  1
  La  La46  1  0.32736868  0.81919145  0.87910253  1
  La  La47  1  0.67175219  0.85359669  0.62597646  1
  La  La48  1  0.33570640  0.15641765  0.37083466  1
  La  La49  1  0.33741603  0.84610142  0.12285524  1
  La  La50  1  0.84119623  0.98195410  0.87058045  1
  La  La51  1  0.66602538  0.15133740  0.37717854  1
  La  La52  1  0.66391122  0.81552246  0.87243648  1
  La  La53  1  0.15825442  0.01229534  0.62751937  1
  La  La54  1  -0.00591043  0.15632929  0.37336592  1
  La  La55  1  1.00144897  0.51171879  0.62411142  1
  La  La56  1  0.67065150  0.51291441  0.62511601  1
  La  La57  1  0.17122261  0.65375523  0.37308367  1
  La  La58  1  -0.00209564  0.48352835  0.87705613  1
  La  La59  1  0.66699772  0.48292149  0.87661961  1
  La  La60  1  0.16470084  0.67625527  0.62393088  1
  La  La61  1  0.49820451  0.01628053  0.62602868  1
  La  La62  1  0.00356420  0.82441496  0.87990536  1
  La  La63  1  0.99785052  0.84838796  0.63002647  1
  La  La64  1  0.50312837  0.64806120  0.37656828  1
  La  La65  1  0.33218720  0.84551733  0.62839176  1
  La  La66  1  0.82452794  0.01004139  0.12253162  1
  La  La67  1  0.82316631  0.68585312  0.62656508  1
  La  La68  1  0.65853206  0.81212500  0.37487262  1
  La  La69  1  0.50842434  0.98088999  0.37493821  1
  La  La70  1  0.66417484  0.15350911  0.87193152  1
  La  La71  1  0.16757199  0.99084349  0.37355063  1
  In  In72  1  0.50088474  0.83096636  0.50618457  1
  In  In73  1  0.33343058  0.33286330  0.25069540  1
  In  In74  1  0.50193884  0.16798324  0.50211130  1
  In  In75  1  0.83351671  0.83109035  0.00051012  1
  In  In76  1  0.50055993  0.83280255  0.74850211  1
  In  In77  1  0.16648317  0.50016905  0.50241570  1
  In  In78  1  0.83462192  0.50257014  0.75194750  1
  In  In79  1  0.83602290  0.16599248  0.24783598  1
  In  In80  1  0.16624583  0.50031134  0.24802087  1
  In  In81  1  0.17049066  0.16729856  0.49691941  1
  In  In82  1  0.83417017  0.50151771  -0.00001089  1
  In  In83  1  0.00086472  0.33563681  0.24795722  1
  In  In84  1  -0.00130438  0.33421262  0.50102619  1
  In  In85  1  -0.00127030  0.67024201  0.25626884  1
  In  In86  1  -0.00137632  0.33173613  0.74861667  1
  In  In87  1  0.83574088  0.16345167  -0.00292654  1
  In  In88  1  0.33321413  -0.00202609  0.74787613  1
  In  In89  1  0.50259943  0.50210451  0.74968094  1
  In  In90  1  0.50097384  0.16735279  -0.00638967  1
  In  In91  1  0.33242153  0.33267601  0.74921984  1
  In  In92  1  -0.00129081  0.66747715  0.74931833  1
  In  In93  1  0.50190852  0.49897875  0.24849626  1
  In  In94  1  0.66781627  -0.00342824  -0.00381417  1
  In  In95  1  0.83012056  0.83492990  0.49834874  1
  In  In96  1  0.66432164  -0.00450649  0.24803539  1
  In  In97  1  0.33462944  0.00090617  0.25296515  1
  In  In98  1  0.16266100  0.83240320  0.50147273  1
  In  In99  1  0.49911907  0.83046560  -0.00286288  1
  In  In100  1  0.83324310  0.16426471  0.74941945  1
  In  In101  1  0.50086465  0.16628175  0.24992104  1
  In  In102  1  0.33088030  0.66713469  0.75115796  1
  In  In103  1  0.50035397  0.49996871  -0.00173400  1
  In  In104  1  -0.00249135  -0.00221571  0.24857549  1
  In  In105  1  0.33350032  0.00222739  0.50245540  1
  In  In106  1  0.33178341  0.66905713  0.50001242  1
  In  In107  1  -0.00077013  -0.00244977  -0.00019784  1
  Ir  Ir108  1  0.66648240  0.66599743  0.25378659  1
  Ir  Ir109  1  0.00139751  0.33344253  -0.00315907  1
  Ir  Ir110  1  0.66557830  0.66199811  0.50284402  1
  Ir  Ir111  1  0.50571186  0.49725120  0.49894124  1
  Ir  Ir112  1  0.34005917  0.33371277  0.50057685  1
  Ir  Ir113  1  0.16420380  0.16468747  0.24822516  1
  Ir  Ir114  1  0.66943722  -0.00027379  0.74884886  1
  Ir  Ir115  1  0.82880030  0.50221828  0.25220075  1
  Ir  Ir116  1  0.16893723  0.83035133  0.00195866  1
  Ir  Ir117  1  0.66976657  0.33319868  0.25157291  1
  Ir  Ir118  1  0.83103087  0.16822464  0.49735547  1
  Ir  Ir119  1  0.00412656  0.66590532  -0.00160184  1
  Ir  Ir120  1  0.33519497  0.67353651  0.25104710  1
  Ir  Ir121  1  0.67076545  0.33347570  -0.00267382  1
  Ir  Ir122  1  0.66839913  0.66643998  0.75060954  1
  Ir  Ir123  1  0.00281865  -0.00643941  0.74887225  1
  Ir  Ir124  1  -0.00609710  0.66626259  0.50842760  1
  Ir  Ir125  1  0.33149060  0.66963560  0.00350471  1
  Ir  Ir126  1  0.17064964  0.16206221  0.75126159  1
  Ir  Ir127  1  0.16533960  0.50294535  0.75191429  1
  Ir  Ir128  1  0.16834060  0.83495688  0.25002283  1
  Ir  Ir129  1  0.82881415  0.83207413  0.25206864  1
  Ir  Ir130  1  0.83140748  0.50298766  0.50144901  1
  Ir  Ir131  1  0.66649324  0.66589370  -0.00528089  1
  Ir  Ir132  1  0.49902579  0.82887509  0.25298684  1
  Ir  Ir133  1  0.67104196  0.33652480  0.74874006  1
  Ir  Ir134  1  0.67022982  0.33640145  0.49742875  1
  Ir  Ir135  1  0.33010629  0.33411153  -0.00281651  1
  Ir  Ir136  1  0.16721135  0.16688147  0.00136329  1
  Ir  Ir137  1  0.16680320  0.83055168  0.75181217  1
  Ir  Ir138  1  0.66314929  -0.00044086  0.50013969  1
  Ir  Ir139  1  0.83001282  0.83483392  0.74775416  1
  Ir  Ir140  1  0.50308052  0.16543231  0.74909421  1
  Ir  Ir141  1  0.33160439  -0.00212295  -0.00079778  1
  Ir  Ir142  1  0.00154588  0.00077935  0.50452030  1
  Ir  Ir143  1  0.16512285  0.50153293  -0.00393504  1
  O  O144  1  0.31811823  0.33064782  0.11656115  1
  O  O145  1  0.31492576  0.32200151  0.62132010  1
  O  O146  1  0.31201317  0.66431944  0.12691934  1
  O  O147  1  0.29945948  0.66090282  0.62684430  1
  O  O148  1  0.32024106  0.98831696  0.12195190  1
  O  O149  1  0.29340918  0.98580123  0.62659300  1
  O  O150  1  0.64463682  0.33108057  0.12317744  1
  O  O151  1  0.64955199  0.33838974  0.62217124  1
  O  O152  1  0.64526023  0.66509117  0.12178676  1
  O  O153  1  0.64519500  0.64845748  0.62698934  1
  O  O154  1  0.64112802  0.99082271  0.12311241  1
  O  O155  1  0.63377283  0.99021955  0.62504986  1
  O  O156  1  0.98111562  0.32044755  0.11550990  1
  O  O157  1  0.96249085  0.33136737  0.62494076  1
  O  O158  1  0.98693020  0.65756965  0.11995521  1
  O  O159  1  0.95921098  0.65302845  0.62517916  1
  O  O160  1  0.96246667  0.99290853  0.12376004  1
  O  O161  1  0.97844286  0.99045719  0.62783838  1
  O  O162  1  0.18933702  0.16629603  0.12382924  1
  O  O163  1  0.20058513  0.15420473  0.63002495  1
  O  O164  1  0.18555738  0.50503062  0.11526421  1
  O  O165  1  0.18623277  0.50663919  0.63387972  1
  O  O166  1  0.20026447  0.83020584  0.12537073  1
  O  O167  1  0.19684148  0.82000119  0.63210671  1
  O  O168  1  0.51471414  0.16576167  0.12088929  1
  O  O169  1  0.52782823  0.15932013  0.63010840  1
  O  O170  1  0.51639000  0.50525184  0.12227846  1
  O  O171  1  0.53239582  0.50063498  0.61990293  1
  O  O172  1  0.51350571  0.83140786  0.13062781  1
  O  O173  1  0.54198704  0.82221984  0.62724282  1
  O  O174  1  0.87201150  0.15159959  0.12168735  1
  O  O175  1  0.84851855  0.16896533  0.61825122  1
  O  O176  1  0.85944922  0.50269682  0.12949128  1
  O  O177  1  0.86112053  0.49213265  0.62167475  1
  O  O178  1  0.84725061  0.82818341  0.13194092  1
  O  O179  1  0.85821780  0.82790114  0.62691598  1
  O  O180  1  0.13242135  0.16503438  0.36593231  1
  O  O181  1  0.14967344  0.16308507  0.87682558  1
  O  O182  1  0.14751372  0.51421321  0.37607762  1
  O  O183  1  0.13405132  0.49968341  0.87304256  1
  O  O184  1  0.14577982  0.84722754  0.37000663  1
  O  O185  1  0.13819881  0.83367312  0.87564987  1
  O  O186  1  0.47234653  0.18018520  0.37970642  1
  O  O187  1  0.46679546  0.16636773  0.86551470  1
  O  O188  1  0.48908407  0.50459163  0.37952145  1
  O  O189  1  0.47048582  0.51307255  0.87605496  1
  O  O190  1  0.48447091  0.83640519  0.37451029  1
  O  O191  1  0.46423197  0.83075728  0.87258361  1
  O  O192  1  0.80061282  0.16906160  0.37909631  1
  O  O193  1  0.79859928  0.17987860  0.87264606  1
  O  O194  1  0.79871333  0.50436673  0.37766310  1
  O  O195  1  0.80021132  0.50720271  0.87539693  1
  O  O196  1  0.79847292  0.83356617  0.37297221  1
  O  O197  1  0.80051554  0.84105398  0.86733903  1
  O  O198  1  0.03157220  0.00603632  0.38375558  1
  O  O199  1  0.02315811  -0.01027390  0.86697309  1
  O  O200  1  0.01774330  0.33992758  0.37517572  1
  O  O201  1  0.02364489  0.34609349  0.87840174  1
  O  O202  1  0.02952650  0.67094220  0.38938983  1
  O  O203  1  0.01564164  0.68399224  0.87703205  1
  O  O204  1  0.37301993  0.00865593  0.37855687  1
  O  O205  1  0.34587960  0.00601689  0.87689933  1
  O  O206  1  0.36646707  0.33543913  0.38287311  1
  O  O207  1  0.34397405  0.34166085  0.87769780  1
  O  O208  1  0.36502193  0.67843591  0.37035022  1
  O  O209  1  0.35881124  0.68192061  0.88303589  1
  O  O210  1  0.68148447  0.00858728  0.38050827  1
  O  O211  1  0.70383164  0.00901451  0.86567054  1
  O  O212  1  0.69249624  0.34655664  0.37438366  1
  O  O213  1  0.70192641  0.34301325  0.87261774  1
  O  O214  1  0.68736479  0.67706283  0.37842775  1
  O  O215  1  0.69289736  0.67907850  0.87233880  1
  O  O216  1  0.07299505  0.09751864  0.02218350  1
  O  O217  1  0.08159651  0.08125087  0.52342756  1
  O  O218  1  0.06549593  0.43528177  0.01814975  1
  O  O219  1  0.06810413  0.43369052  0.52827426  1
  O  O220  1  0.07186641  0.76242837  0.01393592  1
  O  O221  1  0.06027418  0.75901157  0.53743231  1
  O  O222  1  0.40211494  0.08872830  0.00540843  1
  O  O223  1  0.40430355  0.09824023  0.53679186  1
  O  O224  1  0.39938546  0.42617894  0.00600764  1
  O  O225  1  0.41021818  0.42946207  0.51997777  1
  O  O226  1  0.39447005  0.76455508  0.02339811  1
  O  O227  1  0.39691293  0.76889136  0.52763634  1
  O  O228  1  0.74487337  0.08913044  0.02452964  1
  O  O229  1  0.72970504  0.09857137  0.51108810  1
  O  O230  1  0.73835486  0.42494367  0.01304922  1
  O  O231  1  0.73515541  0.43603528  0.52356851  1
  O  O232  1  0.73336697  0.75920720  0.00481941  1
  O  O233  1  0.73010885  0.75845206  0.52799421  1
  O  O234  1  0.09067026  0.25631070  0.02110402  1
  O  O235  1  0.09394037  0.25610136  0.51756011  1
  O  O236  1  0.09138490  0.58945849  0.01976806  1
  O  O237  1  0.08506806  0.59995663  0.53495281  1
  O  O238  1  0.09644834  0.91854151  0.01669330  1
  O  O239  1  0.08619795  0.92419518  0.53369298  1
  O  O240  1  0.41945528  0.26259492  0.00548879  1
  O  O241  1  0.42891672  0.26506729  0.52083676  1
  O  O242  1  0.42335471  0.60361950  0.00909143  1
  O  O243  1  0.43670423  0.59159801  0.50717095  1
  O  O244  1  0.41848241  0.92411225  0.01526344  1
  O  O245  1  0.43391742  0.93217382  0.52983115  1
  O  O246  1  0.76022427  0.26450792  0.01226289  1
  O  O247  1  0.76773894  0.26934871  0.52028705  1
  O  O248  1  0.75673620  0.59787946  0.01421605  1
  O  O249  1  0.76308317  0.59603459  0.53030757  1
  O  O250  1  0.77271434  0.93357941  0.01489498  1
  O  O251  1  0.75089480  0.92674822  0.52151243  1
  O  O252  1  0.22998973  0.07082913  0.27421397  1
  O  O253  1  0.24217733  0.07571938  0.76900693  1
  O  O254  1  0.24022546  0.40739551  0.26356348  1
  O  O255  1  0.23596299  0.41262787  0.76700829  1
  O  O256  1  0.23680825  0.74027439  0.27441227  1
  O  O257  1  0.23332826  0.74146412  0.77422449  1
  O  O258  1  0.56991151  0.06952244  0.28177317  1
  O  O259  1  0.57746498  0.07356791  0.77205268  1
  O  O260  1  0.57771817  0.40117654  0.27537295  1
  O  O261  1  0.58349580  0.40936731  0.77201360  1
  O  O262  1  0.56934076  0.73321681  0.27837608  1
  O  O263  1  0.57389578  0.73161435  0.77992756  1
  O  O264  1  0.91619453  0.07892256  0.28384503  1
  O  O265  1  0.90686523  0.06112163  0.76858641  1
  O  O266  1  0.90000675  0.41541519  0.26217410  1
  O  O267  1  0.90165976  0.40379937  0.77934568  1
  O  O268  1  0.90279442  0.74432737  0.26945257  1
  O  O269  1  0.89898986  0.74360532  0.76048830  1
  O  O270  1  0.26076316  0.22868672  0.27481473  1
  O  O271  1  0.26535999  0.22930572  0.76958891  1
  O  O272  1  0.25998345  0.58839802  0.27068186  1
  O  O273  1  0.26082176  0.56559739  0.77932364  1
  O  O274  1  0.25521811  0.90830413  0.26512342  1
  O  O275  1  0.26358031  0.89359713  0.77238391  1
  O  O276  1  0.60418588  0.23985589  0.27925349  1
  O  O277  1  0.60023748  0.23658230  0.77456487  1
  O  O278  1  0.59823543  0.57412772  0.27900490  1
  O  O279  1  0.60746931  0.57036699  0.77485731  1
  O  O280  1  0.59307081  0.89567633  0.27937274  1
  O  O281  1  0.60628530  0.90339424  0.77033451  1
  O  O282  1  0.93454178  0.23599210  0.26697877  1
  O  O283  1  0.92261581  0.24083386  0.77542565  1
  O  O284  1  0.91783486  0.57427651  0.26296926  1
  O  O285  1  0.93858474  0.56444676  0.77310036  1
  O  O286  1  0.91843119  0.90160794  0.27024696  1
  O  O287  1  0.93131228  0.89767358  0.77252946  1
  O  O288  1  0.27636149  0.23737178  0.48109440  1
  O  O289  1  0.26315363  0.23589308  0.97663216  1
  O  O290  1  0.25433028  0.57959488  0.47863372  1
  O  O291  1  0.26528707  0.56978052  0.97531806  1
  O  O292  1  0.25161307  0.91267337  0.48089001  1
  O  O293  1  0.26618713  0.89670882  0.98310323  1
  O  O294  1  0.60415068  0.24120310  0.47177968  1
  O  O295  1  0.60210192  0.24280186  0.97090961  1
  O  O296  1  0.60322189  0.56327833  0.47717824  1
  O  O297  1  0.59854758  0.57525374  0.96644272  1
  O  O298  1  0.60025885  0.90338503  0.47731848  1
  O  O299  1  0.59862988  0.89670921  0.96893889  1
  O  O300  1  0.92495254  0.23171856  0.47519171  1
  O  O301  1  0.92981054  0.24530402  0.97414487  1
  O  O302  1  0.92813649  0.56975347  0.48540051  1
  O  O303  1  0.93881032  0.56988482  0.97978405  1
  O  O304  1  0.92574317  0.91384112  0.49102198  1
  O  O305  1  0.92929592  0.89977463  0.96691136  1
  O  O306  1  0.24365568  0.07797708  0.45973000  1
  O  O307  1  0.24293976  0.07752375  0.97896151  1
  O  O308  1  0.24869463  0.40292040  0.48857889  1
  O  O309  1  0.23996249  0.41361518  0.97400955  1
  O  O310  1  0.22273212  0.73135829  0.47965221  1
  O  O311  1  0.24156390  0.74093318  0.98153714  1
  O  O312  1  0.56787940  0.06413988  0.47995744  1
  O  O313  1  0.58245572  0.08047346  0.96705558  1
  O  O314  1  0.57356716  0.40211596  0.47235199  1
  O  O315  1  0.58299715  0.40761092  0.97560430  1
  O  O316  1  0.57175613  0.72844647  0.47442627  1
  O  O317  1  0.57114642  0.73121387  0.97330762  1
  O  O318  1  0.91236244  0.08007631  0.47535314  1
  O  O319  1  0.90264574  0.06446619  0.96357653  1
  O  O320  1  0.89566453  0.41113730  0.48702051  1
  O  O321  1  0.91044081  0.40369869  0.97288025  1
  O  O322  1  0.90327141  0.73554294  0.49204445  1
  O  O323  1  0.91562286  0.73933391  0.98753585  1
  O  O324  1  0.09767665  0.25459826  0.22698325  1
  O  O325  1  0.09628196  0.25027602  0.73493607  1
  O  O326  1  0.08543770  0.59095509  0.23590864  1
  O  O327  1  0.10031997  0.59842945  0.72793035  1
  O  O328  1  0.09798211  0.92646983  0.23544242  1
  O  O329  1  0.09855326  0.92360568  0.72181067  1
  O  O330  1  0.43507936  0.26808170  0.24566855  1
  O  O331  1  0.42809773  0.25068291  0.72763438  1
  O  O332  1  0.42689437  0.60346959  0.24626915  1
  O  O333  1  0.43379268  0.60262896  0.74486426  1
  O  O334  1  0.43098122  0.92104337  0.24003092  1
  O  O335  1  0.43231001  0.93200167  0.71787365  1
  O  O336  1  0.75858931  0.26328297  0.23270973  1
  O  O337  1  0.76584512  0.27369951  0.72939878  1
  O  O338  1  0.75751848  0.59431326  0.23523336  1
  O  O339  1  0.76357468  0.60184864  0.72245882  1
  O  O340  1  0.76491308  0.92435557  0.22877894  1
  O  O341  1  0.76013394  0.92864853  0.72335271  1
  O  O342  1  0.07103161  0.09982998  0.22417255  1
  O  O343  1  0.07871242  0.08494136  0.72401559  1
  O  O344  1  0.06638388  0.43228044  0.21891602  1
  O  O345  1  0.06778747  0.43861351  0.73031486  1
  O  O346  1  0.08043945  0.76339753  0.23958904  1
  O  O347  1  0.07032810  0.76746270  0.72597181  1
  O  O348  1  0.39813860  0.10056577  0.24210972  1
  O  O349  1  0.41120907  0.09549468  0.72262240  1
  O  O350  1  0.40823227  0.42828904  0.23820132  1
  O  O351  1  0.40920487  0.42491769  0.74146603  1
  O  O352  1  0.40035308  0.76719849  0.22632474  1
  O  O353  1  0.39521355  0.77060176  0.72550062  1
  O  O354  1  0.74578340  0.08610815  0.23189552  1
  O  O355  1  0.73470693  0.09216559  0.73150158  1
  O  O356  1  0.73401510  0.43329824  0.23841246  1
  O  O357  1  0.73555159  0.43092235  0.72332897  1
  O  O358  1  0.73175758  0.76372022  0.24170804  1
  O  O359  1  0.73287054  0.76674423  0.72273060  1
