# generated using pymatgen
data_BaLaInIrO6
_symmetry_space_group_name_H-M   'P 1'
_cell_length_a   17.52840115
_cell_length_b   17.55165050
_cell_length_c   16.50209793
_cell_angle_alpha   90.04706043
_cell_angle_beta   90.00412394
_cell_angle_gamma   90.02997579
_symmetry_Int_Tables_number   1
_chemical_formula_structural   BaLaInIrO6
_chemical_formula_sum   'Ba36 La36 In36 Ir36 O216'
_cell_volume   5076.90713085
_cell_formula_units_Z   36
loop_
 _symmetry_equiv_pos_site_id
 _symmetry_equiv_pos_as_xyz
  1  'x, y, z'
loop_
 _atom_site_type_symbol
 _atom_site_label
 _atom_site_symmetry_multiplicity
 _atom_site_fract_x
 _atom_site_fract_y
 _atom_site_fract_z
 _atom_site_occupancy
  Ba  Ba0  1  0.49897789  0.98816255  0.87407613  1
  Ba  Ba1  1  -0.00430228  0.15585305  0.37045790  1
  Ba  Ba2  1  0.33465898  0.83110906  0.87697989  1
  Ba  Ba3  1  0.16367734  0.34769417  0.12916324  1
  Ba  Ba4  1  0.16519153  0.00869060  0.12220420  1
  Ba  Ba5  1  0.66271586  0.82364024  0.87217125  1
  Ba  Ba6  1  0.00053291  0.48941630  0.87203781  1
  Ba  Ba7  1  0.49994406  0.00445798  0.12206463  1
  Ba  Ba8  1  0.66242422  0.17580544  0.62693342  1
  Ba  Ba9  1  0.50079244  0.67082539  0.12740706  1
  Ba  Ba10  1  0.33613610  0.50563210  0.12180049  1
  Ba  Ba11  1  0.50203902  0.34390757  0.62404007  1
  Ba  Ba12  1  0.33111297  0.48912028  0.37056902  1
  Ba  Ba13  1  0.33139342  0.84033623  0.62708261  1
  Ba  Ba14  1  0.66835802  0.50620429  0.12714339  1
  Ba  Ba15  1  0.83406852  0.32146893  0.37042881  1
  Ba  Ba16  1  0.83506491  0.34157160  0.12377512  1
  Ba  Ba17  1  0.17000019  0.66037189  0.87012845  1
  Ba  Ba18  1  0.83787305  0.99378094  0.37450103  1
  Ba  Ba19  1  0.66997908  0.49401997  0.37680662  1
  Ba  Ba20  1  0.66872808  0.50461905  0.62114239  1
  Ba  Ba21  1  0.83430358  0.67705386  0.62300075  1
  Ba  Ba22  1  0.33049928  0.83634598  0.12753927  1
  Ba  Ba23  1  0.32782621  0.49703255  0.87347961  1
  Ba  Ba24  1  0.49934009  0.65717703  0.37478247  1
  Ba  Ba25  1  0.33273081  0.51006404  0.62115172  1
  Ba  Ba26  1  1.00041240  0.84739436  0.62665429  1
  Ba  Ba27  1  0.66843304  0.16433473  0.37448921  1
  Ba  Ba28  1  0.16763259  0.32950046  0.88184313  1
  Ba  Ba29  1  0.16555915  0.99126768  0.87676125  1
  Ba  Ba30  1  0.82964803  0.67480290  0.12623367  1
  Ba  Ba31  1  1.00504886  0.51150439  0.12538506  1
  Ba  Ba32  1  0.49663416  0.01085617  0.63379351  1
  Ba  Ba33  1  0.49841799  0.65912725  0.87301154  1
  Ba  Ba34  1  0.50018706  0.33029315  0.38067834  1
  Ba  Ba35  1  0.33888314  0.17835638  0.63091999  1
  La  La36  1  0.83886624  0.64649507  0.86942680  1
  La  La37  1  -0.00094591  0.15713616  0.87873241  1
  La  La38  1  1.00312402  0.17897726  0.62187264  1
  La  La39  1  -0.00491703  0.47900610  0.37292211  1
  La  La40  1  0.17410345  0.66534361  0.11662084  1
  La  La41  1  1.00848186  0.84211130  0.12824025  1
  La  La42  1  0.49854856  0.32667699  0.87020445  1
  La  La43  1  0.66294139  0.82060286  0.37516645  1
  La  La44  1  0.50463823  0.98801535  0.37833805  1
  La  La45  1  0.33354026  0.81521306  0.37689475  1
  La  La46  1  0.32878794  0.15146776  0.87366498  1
  La  La47  1  0.33642059  0.17887455  0.12286573  1
  La  La48  1  0.82742906  0.34940296  0.62577042  1
  La  La49  1  0.33297920  0.15242833  0.37808439  1
  La  La50  1  0.50442362  0.66979223  0.62651627  1
  La  La51  1  0.82739952  0.01836507  0.62560019  1
  La  La52  1  0.66001317  0.14993857  0.87760348  1
  La  La53  1  0.16963944  0.98079186  0.37757003  1
  La  La54  1  0.66467685  0.48979891  0.87366338  1
  La  La55  1  1.00910861  0.51897401  0.62648464  1
  La  La56  1  0.16498037  0.35070189  0.62930924  1
  La  La57  1  0.67483580  0.85250876  0.62496736  1
  La  La58  1  0.16371527  0.01456840  0.62778003  1
  La  La59  1  1.00406625  0.18296230  0.12846149  1
  La  La60  1  0.82709700  0.01531514  0.12425965  1
  La  La61  1  0.17055716  0.65019593  0.37244842  1
  La  La62  1  0.66860530  0.18238160  0.12690802  1
  La  La63  1  0.15871313  0.68660857  0.62512122  1
  La  La64  1  0.84056998  0.31437477  0.87247043  1
  La  La65  1  0.17534801  0.31658211  0.37308946  1
  La  La66  1  -0.00739979  0.81524440  0.87423287  1
  La  La67  1  0.66706938  0.84517765  0.12220455  1
  La  La68  1  0.83572555  0.98419644  0.87551438  1
  La  La69  1  -0.00521940  0.81491371  0.37597037  1
  La  La70  1  0.49503901  0.34708005  0.13227540  1
  La  La71  1  0.83806761  0.64673626  0.37699950  1
  In  In72  1  0.83215482  0.83207405  0.74929810  1
  In  In73  1  0.50239808  0.49809263  -0.00379158  1
  In  In74  1  0.83371118  0.83267531  0.00105324  1
  In  In75  1  0.66823467  0.33187295  -0.00495527  1
  In  In76  1  0.16613784  0.16055229  0.24928554  1
  In  In77  1  0.16670173  0.17221043  0.75147996  1
  In  In78  1  0.66988803  0.33272467  0.50060907  1
  In  In79  1  0.16222290  0.49865509  0.49706433  1
  In  In80  1  0.33321873  -0.00047369  0.00426521  1
  In  In81  1  0.33617106  0.66861520  -0.00233674  1
  In  In82  1  0.50368795  0.83227834  0.74667480  1
  In  In83  1  0.83827982  0.49901892  0.24585736  1
  In  In84  1  0.66921394  0.66892351  0.50175883  1
  In  In85  1  0.49765273  0.16347616  0.24920043  1
  In  In86  1  0.16558223  0.16483438  0.50023590  1
  In  In87  1  0.49568192  0.16742274  0.49981042  1
  In  In88  1  0.50014711  0.83291875  0.50172897  1
  In  In89  1  -0.00311307  0.00016414  0.00139877  1
  In  In90  1  0.67057280  0.33099655  0.75333112  1
  In  In91  1  0.00134059  -0.00140847  0.49949084  1
  In  In92  1  0.67013224  0.66786567  0.25121207  1
  In  In93  1  0.66941579  0.66685509  -0.00215571  1
  In  In94  1  0.49852506  0.83277222  0.25150386  1
  In  In95  1  0.33141110  -0.00306476  0.50162310  1
  In  In96  1  0.33479707  0.33169486  0.00011016  1
  In  In97  1  0.66861264  0.00424490  0.49737056  1
  In  In98  1  0.33127834  0.33316977  0.50238569  1
  In  In99  1  0.66795417  0.00055748  0.25118224  1
  In  In100  1  0.16193011  0.83162747  -0.00103385  1
  In  In101  1  0.83418119  0.83552992  0.49769459  1
  In  In102  1  -0.00035951  0.33415457  -0.00045065  1
  In  In103  1  -0.00227779  0.33319407  0.74688547  1
  In  In104  1  -0.00471957  0.66545660  0.00117859  1
  In  In105  1  0.33192991  0.66903149  0.74270639  1
  In  In106  1  0.16530529  0.82922425  0.25420953  1
  In  In107  1  0.66572310  0.33374375  0.24863874  1
  Ir  Ir108  1  0.16404191  0.83172012  0.49892493  1
  Ir  Ir109  1  0.83777492  0.83453121  0.24849259  1
  Ir  Ir110  1  0.83278905  0.49915917  -0.00660964  1
  Ir  Ir111  1  -0.00455601  0.00435159  0.75120927  1
  Ir  Ir112  1  0.66958476  0.66208578  0.74833924  1
  Ir  Ir113  1  0.84084154  0.16872667  0.50343220  1
  Ir  Ir114  1  0.49675522  0.49860346  0.25341469  1
  Ir  Ir115  1  0.16648256  0.49957515  0.74838967  1
  Ir  Ir116  1  0.33463877  0.33669549  0.75350738  1
  Ir  Ir117  1  0.00423823  0.66577808  0.49832298  1
  Ir  Ir118  1  0.84599557  0.49863173  0.50236803  1
  Ir  Ir119  1  0.16099617  0.50345864  0.25008592  1
  Ir  Ir120  1  0.32960656  0.66174437  0.25598069  1
  Ir  Ir121  1  0.50222135  0.16546295  0.00036027  1
  Ir  Ir122  1  0.32733673  0.00030597  0.75293823  1
  Ir  Ir123  1  0.00478433  0.33260888  0.25248695  1
  Ir  Ir124  1  0.16652365  0.50221315  0.00055267  1
  Ir  Ir125  1  0.83866926  0.16418206  0.24258702  1
  Ir  Ir126  1  0.82964899  0.16268893  -0.00218995  1
  Ir  Ir127  1  0.33150778  0.33081644  0.24948838  1
  Ir  Ir128  1  -0.00143758  0.33346955  0.50361964  1
  Ir  Ir129  1  0.83485025  0.16311213  0.75299950  1
  Ir  Ir130  1  0.16623669  0.16812428  0.00110755  1
  Ir  Ir131  1  -0.00256243  -0.00310009  0.24708776  1
  Ir  Ir132  1  0.16015118  0.83847753  0.74558041  1
  Ir  Ir133  1  0.49859544  0.50494465  0.50062502  1
  Ir  Ir134  1  0.50050305  0.49888146  0.74696141  1
  Ir  Ir135  1  0.50422958  0.83392189  0.00028871  1
  Ir  Ir136  1  0.32649340  0.66645329  0.49753337  1
  Ir  Ir137  1  0.83527341  0.50063804  0.74833403  1
  Ir  Ir138  1  0.66761970  0.00294619  0.00060834  1
  Ir  Ir139  1  0.33280622  -0.00015876  0.25307144  1
  Ir  Ir140  1  0.49688894  0.16897797  0.76119744  1
  Ir  Ir141  1  0.00073110  0.66934175  0.25536410  1
  Ir  Ir142  1  0.00180861  0.66578994  0.74686064  1
  Ir  Ir143  1  0.66929583  0.00632174  0.75197212  1
  O  O144  1  0.31160835  0.32081008  0.12979708  1
  O  O145  1  0.30138264  0.33369585  0.63408029  1
  O  O146  1  0.30732314  0.66394913  0.13552197  1
  O  O147  1  0.29487188  0.66669647  0.61562451  1
  O  O148  1  0.31251618  0.99677761  0.13440596  1
  O  O149  1  0.29952925  0.99851468  0.63252403  1
  O  O150  1  0.63646607  0.32556456  0.11893281  1
  O  O151  1  0.65942475  0.33378863  0.62850361  1
  O  O152  1  0.65421256  0.65985827  0.12526106  1
  O  O153  1  0.64111018  0.65558273  0.62944288  1
  O  O154  1  0.65036033  0.98830106  0.12109915  1
  O  O155  1  0.64906674  1.00032211  0.63124869  1
  O  O156  1  0.98443609  0.32560409  0.12904556  1
  O  O157  1  0.96251811  0.32241897  0.62117439  1
  O  O158  1  0.98015765  0.67069264  0.13524170  1
  O  O159  1  0.98087677  0.65553390  0.62159048  1
  O  O160  1  0.96325966  0.98352084  0.12930530  1
  O  O161  1  0.96549524  0.99837334  0.63292821  1
  O  O162  1  0.19828033  0.16476883  0.12153670  1
  O  O163  1  0.18876156  0.15145159  0.62713882  1
  O  O164  1  0.18481821  0.50880203  0.12580669  1
  O  O165  1  0.17988488  0.48989963  0.62754151  1
  O  O166  1  0.17421643  0.80732404  0.13079387  1
  O  O167  1  0.18352908  0.82582342  0.62086144  1
  O  O168  1  0.53390941  0.15721834  0.11706779  1
  O  O169  1  0.51189762  0.16445498  0.64098840  1
  O  O170  1  0.51612149  0.49289097  0.13262867  1
  O  O171  1  0.51995875  0.51167375  0.62280476  1
  O  O172  1  0.52867821  0.83454940  0.12224495  1
  O  O173  1  0.54027612  0.82301608  0.62476268  1
  O  O174  1  0.86788607  0.15397087  0.11896769  1
  O  O175  1  0.86797533  0.15624685  0.62991233  1
  O  O176  1  0.85532443  0.49977174  0.11392110  1
  O  O177  1  0.87264209  0.48925737  0.62683403  1
  O  O178  1  0.87331967  0.82892050  0.13030563  1
  O  O179  1  0.85294445  0.83281569  0.62605909  1
  O  O180  1  0.14281899  0.18002658  0.37389484  1
  O  O181  1  0.13455144  0.17197126  0.88004640  1
  O  O182  1  0.13089208  0.51076783  0.37069561  1
  O  O183  1  0.14838695  0.50064588  0.87631718  1
  O  O184  1  0.13248026  0.84150754  0.38029324  1
  O  O185  1  0.12989358  0.83697955  0.86451388  1
  O  O186  1  0.46355657  0.17622236  0.37140311  1
  O  O187  1  0.46607389  0.17972695  0.88259019  1
  O  O188  1  0.47781436  0.49764567  0.37747020  1
  O  O189  1  0.47785734  0.49604145  0.86349859  1
  O  O190  1  0.46497929  0.84879414  0.37544290  1
  O  O191  1  0.48836095  0.83069985  0.87687040  1
  O  O192  1  0.81925720  0.16993042  0.37840192  1
  O  O193  1  0.79947515  0.17515625  0.87525479  1
  O  O194  1  0.82884412  0.50462716  0.38187971  1
  O  O195  1  0.80340417  0.50834590  0.86987105  1
  O  O196  1  0.80318467  0.83847195  0.36616209  1
  O  O197  1  0.80905509  0.84952599  0.87186659  1
  O  O198  1  0.03165725  0.00463649  0.36727084  1
  O  O199  1  0.01743488  0.02052419  0.87029268  1
  O  O200  1  0.03500483  0.34150204  0.37950596  1
  O  O201  1  0.01409060  0.32430815  0.87319797  1
  O  O202  1  0.03415365  0.67495869  0.37715014  1
  O  O203  1  0.01959996  0.67185028  0.86696042  1
  O  O204  1  0.36374931  0.00947323  0.36953373  1
  O  O205  1  0.34786678  0.00825152  0.87389502  1
  O  O206  1  0.34571658  0.33514614  0.36786602  1
  O  O207  1  0.36327957  0.34182758  0.87245292  1
  O  O208  1  0.35067321  0.67147193  0.37713592  1
  O  O209  1  0.34403629  0.67254449  0.86889662  1
  O  O210  1  0.69419810  0.01234821  0.37304494  1
  O  O211  1  0.69874310  0.01328773  0.87709165  1
  O  O212  1  0.68348398  0.33431535  0.37535042  1
  O  O213  1  0.70840317  0.34318612  0.87297215  1
  O  O214  1  0.70440997  0.67944534  0.37714622  1
  O  O215  1  0.70106850  0.66951454  0.86686694  1
  O  O216  1  0.06716118  0.10335145  0.02088026  1
  O  O217  1  0.06929534  0.09359245  0.53247859  1
  O  O218  1  0.07769902  0.42916702  0.01142608  1
  O  O219  1  0.05946462  0.43049739  0.52501641  1
  O  O220  1  0.05464462  0.76966832  0.01010931  1
  O  O221  1  0.06953195  0.76146486  0.51998821  1
  O  O222  1  0.40508561  0.10152883  0.02074857  1
  O  O223  1  0.39259072  0.10054176  0.50738559  1
  O  O224  1  0.42092863  0.41151891  0.02438417  1
  O  O225  1  0.40985754  0.43285706  0.51190027  1
  O  O226  1  0.41438336  0.76459961  0.01793929  1
  O  O227  1  0.39504652  0.75755216  0.50880624  1
  O  O228  1  0.73208556  0.09887214  0.02458661  1
  O  O229  1  0.75013827  0.10057529  0.52403510  1
  O  O230  1  0.74182882  0.43318956  0.01064820  1
  O  O231  1  0.75788201  0.42589781  0.51977285  1
  O  O232  1  0.73321842  0.77100184  0.02505804  1
  O  O233  1  0.73234543  0.77214515  0.52253042  1
  O  O234  1  0.09272440  0.25303983  0.02323571  1
  O  O235  1  0.09201405  0.26920496  0.53006570  1
  O  O236  1  0.09662293  0.59645003  0.01711468  1
  O  O237  1  0.09728341  0.60015979  0.52484432  1
  O  O238  1  0.08547374  0.92375848  0.02526712  1
  O  O239  1  0.10741866  0.93287046  0.52089778  1
  O  O240  1  0.43554748  0.25418480  0.02987736  1
  O  O241  1  0.42477837  0.26422499  0.52189918  1
  O  O242  1  0.42442644  0.58869577  0.01254051  1
  O  O243  1  0.42574037  0.60270458  0.52280439  1
  O  O244  1  0.43094328  0.92161014  0.00957795  1
  O  O245  1  0.42684783  0.92752859  0.52267819  1
  O  O246  1  0.76125809  0.25218164  0.01971060  1
  O  O247  1  0.77685542  0.26189455  0.52383998  1
  O  O248  1  0.77160401  0.59451871  0.00283904  1
  O  O249  1  0.77490560  0.59020272  0.50922011  1
  O  O250  1  0.76403896  0.93902368  0.02031945  1
  O  O251  1  0.76535725  0.93489172  0.52921903  1
  O  O252  1  0.23769959  0.06360536  0.28052257  1
  O  O253  1  0.24147564  0.07606006  0.77224323  1
  O  O254  1  0.23002722  0.40131768  0.27282880  1
  O  O255  1  0.23227194  0.40076633  0.76313237  1
  O  O256  1  0.24055540  0.73407360  0.28207572  1
  O  O257  1  0.23069057  0.74788867  0.75330152  1
  O  O258  1  0.56178840  0.06243779  0.27228584  1
  O  O259  1  0.57648504  0.08074880  0.78096936  1
  O  O260  1  0.56495591  0.40768309  0.26018917  1
  O  O261  1  0.57149029  0.40723104  0.77279466  1
  O  O262  1  0.58067612  0.74564315  0.27572494  1
  O  O263  1  0.57791083  0.72664119  0.76150070  1
  O  O264  1  0.90557373  0.06788585  0.25837337  1
  O  O265  1  0.89579726  0.06417580  0.77495087  1
  O  O266  1  0.91806255  0.40748219  0.26915357  1
  O  O267  1  0.89533864  0.40066250  0.76914148  1
  O  O268  1  0.90333069  0.73533063  0.28254944  1
  O  O269  1  0.90923526  0.73530254  0.77374877  1
  O  O270  1  0.26399594  0.23861209  0.27110982  1
  O  O271  1  0.26896347  0.24282431  0.77971090  1
  O  O272  1  0.25106358  0.57454957  0.27443231  1
  O  O273  1  0.25470445  0.57166164  0.75832359  1
  O  O274  1  0.26429000  0.90494934  0.28065103  1
  O  O275  1  0.25372784  0.90808109  0.76853379  1
  O  O276  1  0.59655211  0.23369996  0.25167979  1
  O  O277  1  0.58964925  0.23853054  0.78515662  1
  O  O278  1  0.58620788  0.57002909  0.26764584  1
  O  O279  1  0.60162765  0.56358317  0.77060365  1
  O  O280  1  0.59941688  0.90205463  0.27488155  1
  O  O281  1  0.59914478  0.91476391  0.76097441  1
  O  O282  1  0.93497622  0.23533630  0.25639391  1
  O  O283  1  0.92921738  0.22603746  0.77472210  1
  O  O284  1  0.93931114  0.57347304  0.27698367  1
  O  O285  1  0.93024707  0.57273193  0.76523695  1
  O  O286  1  0.93554809  0.89780115  0.27517036  1
  O  O287  1  0.93449516  0.90911952  0.77822978  1
  O  O288  1  0.26054662  0.23565030  0.47175794  1
  O  O289  1  0.26393839  0.23282396  0.97894710  1
  O  O290  1  0.25610956  0.57641775  0.47637507  1
  O  O291  1  0.25158924  0.57494131  0.99245297  1
  O  O292  1  0.25847811  0.89456736  0.46992900  1
  O  O293  1  0.25409549  0.91020231  0.99080834  1
  O  O294  1  0.59284640  0.24029083  0.49140604  1
  O  O295  1  0.59449173  0.23127293  0.97308731  1
  O  O296  1  0.58775777  0.57535227  0.48488227  1
  O  O297  1  0.60166141  0.56702823  0.97350131  1
  O  O298  1  0.59987518  0.90380168  0.47132568  1
  O  O299  1  0.60092800  0.90541133  0.98664286  1
  O  O300  1  0.93838511  0.23471160  0.48794524  1
  O  O301  1  0.92376285  0.22993346  0.97774985  1
  O  O302  1  0.94274440  0.56632854  0.47830269  1
  O  O303  1  0.92321176  0.56863559  0.97533852  1
  O  O304  1  0.93656928  0.89938486  0.47373178  1
  O  O305  1  0.92730563  0.90522905  0.96603853  1
  O  O306  1  0.22789111  0.05877640  0.47522955  1
  O  O307  1  0.24019818  0.08365113  0.98053941  1
  O  O308  1  0.22538174  0.39625969  0.48430099  1
  O  O309  1  0.24150563  0.41363744  0.99126754  1
  O  O310  1  0.22827851  0.73242648  0.47382407  1
  O  O311  1  0.23503209  0.73568561  0.99454962  1
  O  O312  1  0.56411800  0.06686986  0.48156515  1
  O  O313  1  0.57476683  0.07530077  0.97343356  1
  O  O314  1  0.57534761  0.41966893  0.49111331  1
  O  O315  1  0.57721693  0.40445068  0.96070081  1
  O  O316  1  0.57439757  0.74090515  0.47688916  1
  O  O317  1  0.57203155  0.74445396  0.98703936  1
  O  O318  1  0.90486479  0.07490721  0.49119664  1
  O  O319  1  0.89446855  0.06969478  0.97574587  1
  O  O320  1  0.91063311  0.40370552  0.47845723  1
  O  O321  1  0.89612776  0.40129145  0.97432000  1
  O  O322  1  0.90882643  0.73148882  0.47151979  1
  O  O323  1  0.89826168  0.73355577  0.96602957  1
  O  O324  1  0.09060945  0.25801557  0.23280183  1
  O  O325  1  0.09354946  0.26361509  0.71558358  1
  O  O326  1  0.10141397  0.60821236  0.23186184  1
  O  O327  1  0.09681376  0.59531106  0.72027282  1
  O  O328  1  0.08788620  0.92801862  0.23049691  1
  O  O329  1  0.09411175  0.94106226  0.72670290  1
  O  O330  1  0.42182067  0.26234554  0.21898502  1
  O  O331  1  0.43333986  0.26998229  0.74482951  1
  O  O332  1  0.42045699  0.58832383  0.23536542  1
  O  O333  1  0.43396067  0.59190932  0.72561173  1
  O  O334  1  0.42287923  0.93200074  0.23430738  1
  O  O335  1  0.41532697  0.92478964  0.73958723  1
  O  O336  1  0.76299237  0.24901715  0.22497961  1
  O  O337  1  0.77758759  0.26221664  0.73305715  1
  O  O338  1  0.77033867  0.59709724  0.25055131  1
  O  O339  1  0.76898604  0.59795284  0.73449873  1
  O  O340  1  0.77368737  0.92695819  0.21967485  1
  O  O341  1  0.76124143  0.93812140  0.72842019  1
  O  O342  1  0.06271231  0.09166855  0.21913679  1
  O  O343  1  0.05943746  0.09977223  0.72990553  1
  O  O344  1  0.06880526  0.43220812  0.23990096  1
  O  O345  1  0.07149674  0.43112044  0.72465457  1
  O  O346  1  0.05643007  0.76826497  0.24361705  1
  O  O347  1  0.07176380  0.76020851  0.72557166  1
  O  O348  1  0.38922478  0.09981941  0.22899125  1
  O  O349  1  0.39885871  0.09635013  0.74705181  1
  O  O350  1  0.40662730  0.42040890  0.22811485  1
  O  O351  1  0.40593759  0.43011422  0.72769233  1
  O  O352  1  0.40036436  0.75305203  0.24330159  1
  O  O353  1  0.41902856  0.74945293  0.71612900  1
  O  O354  1  0.74472156  0.09635182  0.21566425  1
  O  O355  1  0.74050920  0.09769857  0.73337268  1
  O  O356  1  0.74645825  0.42241549  0.23530640  1
  O  O357  1  0.74705679  0.43141934  0.73092199  1
  O  O358  1  0.74256308  0.77532545  0.22440807  1
  O  O359  1  0.72928799  0.76028332  0.72344325  1
