# generated using pymatgen
data_BaLaInIrO6
_symmetry_space_group_name_H-M   'P 1'
_cell_length_a   17.51783866
_cell_length_b   17.53761262
_cell_length_c   16.48068693
_cell_angle_alpha   90.00914411
_cell_angle_beta   90.00767304
_cell_angle_gamma   90.02690755
_symmetry_Int_Tables_number   1
_chemical_formula_structural   BaLaInIrO6
_chemical_formula_sum   'Ba36 La36 In36 Ir36 O216'
_cell_volume   5063.21357763
_cell_formula_units_Z   36
loop_
 _symmetry_equiv_pos_site_id
 _symmetry_equiv_pos_as_xyz
  1  'x, y, z'
loop_
 _atom_site_type_symbol
 _atom_site_label
 _atom_site_symmetry_multiplicity
 _atom_site_fract_x
 _atom_site_fract_y
 _atom_site_fract_z
 _atom_site_occupancy
  Ba  Ba0  1  0.66394096  0.81758615  0.87619407  1
  Ba  Ba1  1  0.16242149  0.00809390  0.12497061  1
  Ba  Ba2  1  0.83803819  0.64977912  0.87397044  1
  Ba  Ba3  1  0.83611997  0.67557351  0.12747434  1
  Ba  Ba4  1  0.33785494  0.82687394  0.37210000  1
  Ba  Ba5  1  0.33710469  0.51165368  0.62726134  1
  Ba  Ba6  1  0.66863699  0.17927340  0.62431299  1
  Ba  Ba7  1  0.50132037  0.66120134  0.37276395  1
  Ba  Ba8  1  0.83062071  0.34135490  0.62409305  1
  Ba  Ba9  1  1.00085550  0.83973413  0.12251074  1
  Ba  Ba10  1  0.16258193  0.34235386  0.62536259  1
  Ba  Ba11  1  0.83172126  0.32536735  0.37505599  1
  Ba  Ba12  1  0.33246199  0.50655378  0.12469018  1
  Ba  Ba13  1  0.17125755  0.65981807  0.37543233  1
  Ba  Ba14  1  0.83412999  0.99423556  0.37441073  1
  Ba  Ba15  1  0.33195412  0.16216899  0.37326732  1
  Ba  Ba16  1  0.33540836  0.49247651  0.87656391  1
  Ba  Ba17  1  0.50414589  0.99222410  0.37323989  1
  Ba  Ba18  1  0.83070111  0.67459407  0.62600222  1
  Ba  Ba19  1  0.99597554  0.17844193  0.62658593  1
  Ba  Ba20  1  0.50042242  0.34041971  0.12719562  1
  Ba  Ba21  1  1.00039523  0.50967371  0.12879872  1
  Ba  Ba22  1  0.16603033  0.66039159  0.87754191  1
  Ba  Ba23  1  0.83480477  0.00888864  0.11984579  1
  Ba  Ba24  1  0.99647146  0.83884508  0.62482308  1
  Ba  Ba25  1  -0.00611947  0.16187840  0.37783736  1
  Ba  Ba26  1  0.66794199  0.49050679  0.87508528  1
  Ba  Ba27  1  0.83593582  0.65830703  0.37520543  1
  Ba  Ba28  1  0.66482076  0.16026337  0.37156212  1
  Ba  Ba29  1  0.49592672  0.32701641  0.37743958  1
  Ba  Ba30  1  0.32982482  0.83815923  0.12393476  1
  Ba  Ba31  1  0.49788670  0.34470705  0.62422455  1
  Ba  Ba32  1  0.33140233  0.17339395  0.12380074  1
  Ba  Ba33  1  0.67195183  0.50803388  0.62598528  1
  Ba  Ba34  1  0.83206044  0.34389110  0.12696731  1
  Ba  Ba35  1  0.33322111  0.49454350  0.37403048  1
  La  La36  1  0.49389882  0.01121240  0.12343245  1
  La  La37  1  0.17082102  0.98330337  0.37695042  1
  La  La38  1  -0.00746331  0.15522240  0.87301137  1
  La  La39  1  0.67467896  0.84942241  0.62595951  1
  La  La40  1  0.33889501  0.18415578  0.62060481  1
  La  La41  1  -0.00395089  0.82131193  0.37349446  1
  La  La42  1  0.16404541  0.01650810  0.62224801  1
  La  La43  1  0.67894786  0.51342716  0.12438796  1
  La  La44  1  -0.00620251  0.48654837  0.37405969  1
  La  La45  1  -0.00858257  0.48047157  0.87647027  1
  La  La46  1  0.16564399  0.98581761  0.87380818  1
  La  La47  1  0.15795785  0.68307525  0.13256985  1
  La  La48  1  0.50251635  0.67923987  0.12283083  1
  La  La49  1  0.83648932  0.98410216  0.87261544  1
  La  La50  1  0.33530737  0.84207628  0.62584980  1
  La  La51  1  0.82591686  0.01807941  0.62369147  1
  La  La52  1  1.00307339  0.18421146  0.12456166  1
  La  La53  1  0.66145813  0.82047005  0.37924025  1
  La  La54  1  0.67913289  0.84658258  0.13100708  1
  La  La55  1  0.16478462  0.67557603  0.62402056  1
  La  La56  1  0.16512994  0.32060818  0.87534310  1
  La  La57  1  0.50680406  0.65188196  0.87880637  1
  La  La58  1  0.33232321  0.81816585  0.87240206  1
  La  La59  1  -0.01003930  0.81524604  0.87689042  1
  La  La60  1  0.49875608  0.01601459  0.62635191  1
  La  La61  1  0.32938834  0.15827928  0.87472395  1
  La  La62  1  0.16469380  0.34548057  0.12779513  1
  La  La63  1  0.66371773  0.15171236  0.86773872  1
  La  La64  1  0.67104867  0.18125668  0.12506144  1
  La  La65  1  1.00183944  0.50979585  0.62859636  1
  La  La66  1  0.50507232  0.98200682  0.87097159  1
  La  La67  1  0.83465907  0.32095195  0.87352640  1
  La  La68  1  0.50155638  0.67465877  0.63061773  1
  La  La69  1  0.16952061  0.32279500  0.36762500  1
  La  La70  1  0.50410042  0.31786699  0.87616452  1
  La  La71  1  0.66169817  0.48395189  0.37673461  1
  In  In72  1  0.66687970  0.33235620  0.75165772  1
  In  In73  1  0.83504522  0.16414261  0.24527586  1
  In  In74  1  0.33237464  0.33411279  0.24777988  1
  In  In75  1  0.33402972  0.33288447  -0.00158248  1
  In  In76  1  0.33211172  -0.00127814  0.24917235  1
  In  In77  1  0.50292153  0.83357677  0.00169622  1
  In  In78  1  0.50127919  0.16535738  0.24837619  1
  In  In79  1  0.83318005  0.50240520  0.49878585  1
  In  In80  1  0.33348600  0.00023214  0.75064153  1
  In  In81  1  0.16612213  0.83463304  -0.00513477  1
  In  In82  1  0.33349636  0.66390943  0.00134719  1
  In  In83  1  0.66718305  0.33450463  0.24675834  1
  In  In84  1  0.83047606  0.83039773  0.00071508  1
  In  In85  1  0.83215415  0.83192492  0.74936328  1
  In  In86  1  0.50344340  0.83575057  0.50623287  1
  In  In87  1  0.66561138  0.00283157  -0.00101091  1
  In  In88  1  0.16490835  0.16659158  0.50031891  1
  In  In89  1  0.00153879  0.65967465  0.00035867  1
  In  In90  1  0.66974232  0.66584053  0.25146270  1
  In  In91  1  0.32789394  0.33835539  0.50137737  1
  In  In92  1  0.16169884  0.16273876  0.24986861  1
  In  In93  1  0.33551099  0.66629641  0.24703801  1
  In  In94  1  0.00042857  -0.00086166  0.74794719  1
  In  In95  1  0.33337859  -0.00014993  0.50163634  1
  In  In96  1  0.33433049  0.00089883  -0.00440725  1
  In  In97  1  0.50134292  0.49901792  0.75291098  1
  In  In98  1  0.00055471  0.00350679  -0.00177270  1
  In  In99  1  0.16537029  0.50069756  0.75447504  1
  In  In100  1  -0.00076459  0.33578413  0.50076669  1
  In  In101  1  0.50247091  0.50530336  0.50138216  1
  In  In102  1  0.33146177  0.33416987  0.75434517  1
  In  In103  1  0.83282208  0.83426898  0.49735246  1
  In  In104  1  0.16384619  0.50282067  0.25276266  1
  In  In105  1  0.33380818  0.66946764  0.50285386  1
  In  In106  1  -0.00143611  -0.00134349  0.50113602  1
  In  In107  1  0.16576097  0.83409492  0.74737611  1
  Ir  Ir108  1  0.83722304  0.49843624  0.75382525  1
  Ir  Ir109  1  0.16170036  0.49663248  -0.00091419  1
  Ir  Ir110  1  0.82752287  0.16632604  0.50105102  1
  Ir  Ir111  1  0.83292491  0.83704344  0.25227865  1
  Ir  Ir112  1  0.00187823  0.66247430  0.74506252  1
  Ir  Ir113  1  0.66460853  0.66619596  0.75227060  1
  Ir  Ir114  1  0.16047023  0.83424424  0.25474524  1
  Ir  Ir115  1  0.66860319  0.33114074  -0.00368318  1
  Ir  Ir116  1  -0.00061395  0.33627097  0.24459077  1
  Ir  Ir117  1  0.66572857  0.00090608  0.50061341  1
  Ir  Ir118  1  0.15985151  0.17020413  -0.00575774  1
  Ir  Ir119  1  0.00066295  0.33189712  -0.00243399  1
  Ir  Ir120  1  0.50297465  0.16536825  0.50574538  1
  Ir  Ir121  1  0.50775249  0.49878991  0.00517305  1
  Ir  Ir122  1  0.83418600  0.50151353  0.24855102  1
  Ir  Ir123  1  0.50347149  0.83257492  0.74837101  1
  Ir  Ir124  1  0.00463490  0.66548760  0.49994392  1
  Ir  Ir125  1  0.16094747  0.50266049  0.50143285  1
  Ir  Ir126  1  0.16623319  0.83056491  0.50195890  1
  Ir  Ir127  1  0.50709810  0.50124391  0.24709388  1
  Ir  Ir128  1  0.83237449  0.49420569  -0.00018214  1
  Ir  Ir129  1  -0.00032331  0.66971215  0.25540036  1
  Ir  Ir130  1  0.83128801  0.16988602  -0.00510609  1
  Ir  Ir131  1  0.66515200  -0.00362336  0.24933047  1
  Ir  Ir132  1  -0.00147325  0.33296433  0.75480705  1
  Ir  Ir133  1  0.66616064  0.66784720  0.50273794  1
  Ir  Ir134  1  0.66566691  0.33185645  0.49929205  1
  Ir  Ir135  1  0.82919269  0.16579458  0.75472504  1
  Ir  Ir136  1  0.33631836  0.67147964  0.75128869  1
  Ir  Ir137  1  0.00049779  -0.00059134  0.25073315  1
  Ir  Ir138  1  0.50986634  0.83296239  0.24738171  1
  Ir  Ir139  1  0.66560901  0.66030280  0.00057329  1
  Ir  Ir140  1  0.16433493  0.16703617  0.75656173  1
  Ir  Ir141  1  0.66566761  0.00143497  0.74830709  1
  Ir  Ir142  1  0.49699017  0.16341100  0.75073648  1
  Ir  Ir143  1  0.50429379  0.16580015  -0.00820837  1
  O  O144  1  0.30291278  0.33569321  0.11948993  1
  O  O145  1  0.31453176  0.32201956  0.62929695  1
  O  O146  1  0.29617036  0.66740903  0.12400180  1
  O  O147  1  0.30292915  0.67176030  0.63305410  1
  O  O148  1  0.31208548  0.99747507  0.12141213  1
  O  O149  1  0.29887303  0.98405301  0.62791696  1
  O  O150  1  0.64912300  0.32330356  0.11455123  1
  O  O151  1  0.65093267  0.33499695  0.62104970  1
  O  O152  1  0.63923465  0.65370818  0.12189904  1
  O  O153  1  0.63677518  0.66125538  0.62726029  1
  O  O154  1  0.63504447  0.98469026  0.12934899  1
  O  O155  1  0.63560470  0.98812142  0.62463782  1
  O  O156  1  0.97697686  0.32285509  0.11945215  1
  O  O157  1  0.98009066  0.33790233  0.63480714  1
  O  O158  1  0.98479341  0.66836899  0.13428642  1
  O  O159  1  0.97910546  0.64761438  0.62169305  1
  O  O160  1  0.98348078  0.99361635  0.12920312  1
  O  O161  1  0.96008556  0.99347108  0.62688439  1
  O  O162  1  0.17913211  0.16532203  0.11302597  1
  O  O163  1  0.20075052  0.15530881  0.63877979  1
  O  O164  1  0.18198261  0.48269680  0.11794358  1
  O  O165  1  0.18375711  0.49882405  0.62188265  1
  O  O166  1  0.17655636  0.82764422  0.13152287  1
  O  O167  1  0.19814098  0.82017632  0.62146215  1
  O  O168  1  0.53862826  0.15050944  0.10882604  1
  O  O169  1  0.52465129  0.15401694  0.63028116  1
  O  O170  1  0.54118520  0.49355614  0.12596117  1
  O  O171  1  0.52313442  0.50981655  0.62835662  1
  O  O172  1  0.54271127  0.82469144  0.12796534  1
  O  O173  1  0.54038518  0.81903703  0.63274635  1
  O  O174  1  0.86550005  0.16448440  0.11323724  1
  O  O175  1  0.84779315  0.15477130  0.63040407  1
  O  O176  1  0.85270327  0.50178711  0.12180305  1
  O  O177  1  0.86259445  0.50109736  0.63170870  1
  O  O178  1  0.84973015  0.83688950  0.13193341  1
  O  O179  1  0.84418129  0.83514747  0.62392622  1
  O  O180  1  0.14201665  0.18699736  0.37443042  1
  O  O181  1  0.12759069  0.18148084  0.87549624  1
  O  O182  1  0.12926829  0.50578236  0.38162259  1
  O  O183  1  0.12818165  0.50640355  0.88152884  1
  O  O184  1  0.13345250  0.84268423  0.37977101  1
  O  O185  1  0.12347189  0.84126146  0.86815101  1
  O  O186  1  0.48717328  0.16299225  0.38474934  1
  O  O187  1  0.46678547  0.17739745  0.87143851  1
  O  O188  1  0.48591616  0.50644360  0.36713477  1
  O  O189  1  0.48516101  0.51448223  0.88496496  1
  O  O190  1  0.49133175  0.83413827  0.37080765  1
  O  O191  1  0.46978500  0.84192683  0.86817552  1
  O  O192  1  0.81744740  0.16567363  0.37852829  1
  O  O193  1  0.79866456  0.17965936  0.87554076  1
  O  O194  1  0.80339176  0.50154791  0.36785868  1
  O  O195  1  0.81588167  0.48788500  0.87791493  1
  O  O196  1  0.79966062  0.83508312  0.37112123  1
  O  O197  1  0.81058232  0.84263454  0.87357705  1
  O  O198  1  0.02969030  0.00791310  0.37074905  1
  O  O199  1  0.03153619  0.02096260  0.87174641  1
  O  O200  1  0.02837629  0.34286339  0.36537642  1
  O  O201  1  0.02865679  0.34070762  0.87667253  1
  O  O202  1  0.02348951  0.68265378  0.37860821  1
  O  O203  1  0.01693452  0.67445310  0.86641849  1
  O  O204  1  0.35487903  -0.00447919  0.37582478  1
  O  O205  1  0.37111565  0.02063941  0.87174999  1
  O  O206  1  0.34069581  0.33385801  0.37559360  1
  O  O207  1  0.36765041  0.32806613  0.87744890  1
  O  O208  1  0.34955238  0.67191891  0.37407677  1
  O  O209  1  0.37006989  0.67504583  0.87170456  1
  O  O210  1  0.68711418  0.00608307  0.37582634  1
  O  O211  1  0.69994901  0.01300513  0.86805472  1
  O  O212  1  0.68096109  0.33760400  0.37773533  1
  O  O213  1  0.69872860  0.33307164  0.87923236  1
  O  O214  1  0.68574663  0.68278574  0.38185963  1
  O  O215  1  0.69085745  0.66449215  0.87662532  1
  O  O216  1  0.05861831  0.11430361  0.01355957  1
  O  O217  1  0.07606478  0.08689858  0.53048274  1
  O  O218  1  0.06799895  0.42561669  0.01891492  1
  O  O219  1  0.06476766  0.44245692  0.52057342  1
  O  O220  1  0.08204237  0.74981609  0.01568909  1
  O  O221  1  0.07606135  0.75695133  0.52504942  1
  O  O222  1  0.41534429  0.09766894  0.01621482  1
  O  O223  1  0.41080509  0.09662861  0.53122352  1
  O  O224  1  0.41713533  0.43008152  0.01479903  1
  O  O225  1  0.40977563  0.42692288  0.51330345  1
  O  O226  1  0.41699229  0.75276058  0.02504342  1
  O  O227  1  0.40473974  0.76813361  0.53086648  1
  O  O228  1  0.73458885  0.10562755  0.01845110  1
  O  O229  1  0.73728800  0.09067697  0.52180477  1
  O  O230  1  0.73322059  0.42747773  0.02335310  1
  O  O231  1  0.73911392  0.42134924  0.50803600  1
  O  O232  1  0.72936813  0.75494426  0.02536000  1
  O  O233  1  0.72751917  0.76638158  0.52120899  1
  O  O234  1  0.09939909  0.26942049  0.02050148  1
  O  O235  1  0.09019551  0.26242894  0.51507589  1
  O  O236  1  0.10144939  0.59153623  0.02774686  1
  O  O237  1  0.09819281  0.59903665  0.52698115  1
  O  O238  1  0.10080693  0.93675775  0.00365007  1
  O  O239  1  0.10271394  0.92529639  0.52341277  1
  O  O240  1  0.43573589  0.25423101  0.01451103  1
  O  O241  1  0.43066190  0.25119370  0.52150149  1
  O  O242  1  0.44168636  0.59316892  0.02552379  1
  O  O243  1  0.43384313  0.60472531  0.52511445  1
  O  O244  1  0.43413441  0.93252585  0.01911103  1
  O  O245  1  0.43037786  0.92920821  0.53618490  1
  O  O246  1  0.76154247  0.26166481  0.02028854  1
  O  O247  1  0.75633136  0.25748945  0.51342996  1
  O  O248  1  0.75993138  0.58788277  0.02375151  1
  O  O249  1  0.75845491  0.59933602  0.51392474  1
  O  O250  1  0.75356614  0.92341491  0.01787006  1
  O  O251  1  0.75909773  0.93540501  0.52379332  1
  O  O252  1  0.23134183  0.06631670  0.27613481  1
  O  O253  1  0.23212881  0.07555669  0.78320829  1
  O  O254  1  0.22793475  0.40148196  0.26418740  1
  O  O255  1  0.22983248  0.40161056  0.77861998  1
  O  O256  1  0.23177523  0.74594078  0.26001713  1
  O  O257  1  0.25045340  0.74391808  0.77488293  1
  O  O258  1  0.57636745  0.06426741  0.25717931  1
  O  O259  1  0.56640357  0.06711489  0.77286810  1
  O  O260  1  0.57600776  0.41240964  0.27163943  1
  O  O261  1  0.56896517  0.39788527  0.77745655  1
  O  O262  1  0.57878273  0.74439654  0.26621594  1
  O  O263  1  0.56509379  0.73141020  0.77336935  1
  O  O264  1  0.90905741  0.06723322  0.26137346  1
  O  O265  1  0.89654958  0.07270743  0.77684967  1
  O  O266  1  0.91061298  0.41330115  0.27197594  1
  O  O267  1  0.90429242  0.40098105  0.78015336  1
  O  O268  1  0.90866246  0.74839546  0.27821533  1
  O  O269  1  0.91571168  0.73867290  0.76402835  1
  O  O270  1  0.24858037  0.24415486  0.26095432  1
  O  O271  1  0.25594338  0.23432468  0.78280562  1
  O  O272  1  0.25944519  0.57305492  0.26225836  1
  O  O273  1  0.26376842  0.58178258  0.77001419  1
  O  O274  1  0.24956305  0.90406462  0.27086693  1
  O  O275  1  0.26649686  0.90232052  0.77931432  1
  O  O276  1  0.59614579  0.23659419  0.24822497  1
  O  O277  1  0.58990327  0.23184318  0.77802839  1
  O  O278  1  0.60221692  0.56466158  0.26888353  1
  O  O279  1  0.59213612  0.58096595  0.77485238  1
  O  O280  1  0.60593719  0.89786096  0.27283543  1
  O  O281  1  0.59576522  0.90686291  0.77151462  1
  O  O282  1  0.92954971  0.24579136  0.25785581  1
  O  O283  1  0.92537564  0.23681752  0.77936351  1
  O  O284  1  0.93201395  0.57190599  0.27588994  1
  O  O285  1  0.93578089  0.56430196  0.77257390  1
  O  O286  1  0.93276294  0.90336489  0.27555012  1
  O  O287  1  0.93058315  0.90398966  0.78309851  1
  O  O288  1  0.26605007  0.23245855  0.49855769  1
  O  O289  1  0.25606761  0.23364464  0.96984171  1
  O  O290  1  0.25357058  0.56917569  0.48852904  1
  O  O291  1  0.25329650  0.56616366  0.98279484  1
  O  O292  1  0.25504662  0.89887683  0.48176445  1
  O  O293  1  0.26158374  0.90911184  0.95997783  1
  O  O294  1  0.59248950  0.24010834  0.48293785  1
  O  O295  1  0.60044828  0.23597413  0.96662694  1
  O  O296  1  0.60671806  0.57229525  0.47458314  1
  O  O297  1  0.59990293  0.56613916  0.98745362  1
  O  O298  1  0.60608165  0.90236240  0.48425658  1
  O  O299  1  0.58799857  0.91391405  0.96898192  1
  O  O300  1  0.91443345  0.24212671  0.49100032  1
  O  O301  1  0.92939216  0.23782895  0.96928632  1
  O  O302  1  0.93866122  0.57269213  0.47726415  1
  O  O303  1  0.92925302  0.56031348  0.97839104  1
  O  O304  1  0.93200387  0.90132426  0.47092104  1
  O  O305  1  0.92569312  0.91010868  0.97161197  1
  O  O306  1  0.23020319  0.06233779  0.48198904  1
  O  O307  1  0.22860327  0.07814503  0.96652905  1
  O  O308  1  0.22057950  0.40617361  0.47593843  1
  O  O309  1  0.22711665  0.40198126  0.97425180  1
  O  O310  1  0.23332929  0.74011131  0.48905567  1
  O  O311  1  0.25266414  0.75061229  0.97138496  1
  O  O312  1  0.56878041  0.06624256  0.49481221  1
  O  O313  1  0.57132538  0.07669941  0.95893948  1
  O  O314  1  0.58268820  0.40924281  0.48111131  1
  O  O315  1  0.57154262  0.39713667  0.97509730  1
  O  O316  1  0.57463950  0.73447317  0.49021710  1
  O  O317  1  0.57123246  0.72600209  0.98053571  1
  O  O318  1  0.89842072  0.07720563  0.49316983  1
  O  O319  1  0.89630728  0.07643398  0.96609236  1
  O  O320  1  0.91214377  0.41459957  0.47435429  1
  O  O321  1  0.90318509  0.39825223  0.97330412  1
  O  O322  1  0.91499651  0.73846933  0.48480543  1
  O  O323  1  0.91286420  0.74248010  0.98322962  1
  O  O324  1  0.08744349  0.26525070  0.21881035  1
  O  O325  1  0.09551371  0.26428684  0.73877861  1
  O  O326  1  0.09265087  0.60260924  0.23096170  1
  O  O327  1  0.09156108  0.59304406  0.72135090  1
  O  O328  1  0.09436971  0.93111201  0.24358413  1
  O  O329  1  0.10438536  0.93740718  0.72278835  1
  O  O330  1  0.42264693  0.25463243  0.23346832  1
  O  O331  1  0.42770040  0.25131139  0.73099468  1
  O  O332  1  0.44136843  0.59496582  0.22050742  1
  O  O333  1  0.42891721  0.60597504  0.73300102  1
  O  O334  1  0.43998317  0.92159871  0.22389102  1
  O  O335  1  0.43781444  0.92732734  0.72431734  1
  O  O336  1  0.75627802  0.25305671  0.22960730  1
  O  O337  1  0.76318756  0.25860892  0.73917102  1
  O  O338  1  0.76261857  0.58948563  0.22905726  1
  O  O339  1  0.76453988  0.59379137  0.73571363  1
  O  O340  1  0.75760398  0.92667571  0.22745770  1
  O  O341  1  0.76021996  0.93696504  0.72592889  1
  O  O342  1  0.05960765  0.09714863  0.22513677  1
  O  O343  1  0.07663960  0.09938211  0.73007593  1
  O  O344  1  0.07036184  0.42315409  0.23131955  1
  O  O345  1  0.05902953  0.43171072  0.73830537  1
  O  O346  1  0.06896129  0.76310784  0.23654778  1
  O  O347  1  0.07774523  0.74785715  0.72111715  1
  O  O348  1  0.41694391  0.08369504  0.22226863  1
  O  O349  1  0.40440115  0.09768592  0.72052118  1
  O  O350  1  0.41556285  0.43264291  0.23299161  1
  O  O351  1  0.40517234  0.42872298  0.73982225  1
  O  O352  1  0.42193868  0.75909913  0.22402589  1
  O  O353  1  0.40643748  0.76695296  0.72286005  1
  O  O354  1  0.73141444  0.09024560  0.22123072  1
  O  O355  1  0.73479710  0.09565544  0.73131035  1
  O  O356  1  0.73935579  0.43428367  0.22890691  1
  O  O357  1  0.74737304  0.42762103  0.73723060  1
  O  O358  1  0.74025260  0.76713592  0.23094946  1
  O  O359  1  0.72854457  0.76155344  0.72843425  1
