# generated using pymatgen
data_BaLaInIrO6
_symmetry_space_group_name_H-M   'P 1'
_cell_length_a   17.51359321
_cell_length_b   17.54339740
_cell_length_c   16.48109432
_cell_angle_alpha   89.99037650
_cell_angle_beta   90.01669541
_cell_angle_gamma   90.03432082
_symmetry_Int_Tables_number   1
_chemical_formula_structural   BaLaInIrO6
_chemical_formula_sum   'Ba36 La36 In36 Ir36 O216'
_cell_volume   5063.78084522
_cell_formula_units_Z   36
loop_
 _symmetry_equiv_pos_site_id
 _symmetry_equiv_pos_as_xyz
  1  'x, y, z'
loop_
 _atom_site_type_symbol
 _atom_site_label
 _atom_site_symmetry_multiplicity
 _atom_site_fract_x
 _atom_site_fract_y
 _atom_site_fract_z
 _atom_site_occupancy
  Ba  Ba0  1  0.83135320  0.32373068  0.37373158  1
  Ba  Ba1  1  0.66279190  0.49727038  0.87282711  1
  Ba  Ba2  1  0.83650276  0.65623190  0.87749332  1
  Ba  Ba3  1  0.16325883  0.01094598  0.61844320  1
  Ba  Ba4  1  0.83449085  0.00633117  0.62468632  1
  Ba  Ba5  1  0.66248969  0.83697921  0.62621856  1
  Ba  Ba6  1  0.33206421  0.50728016  0.12276548  1
  Ba  Ba7  1  0.66881948  0.82035163  0.37797615  1
  Ba  Ba8  1  0.32777549  0.49128193  0.37523700  1
  Ba  Ba9  1  0.83417531  0.99040811  0.38096748  1
  Ba  Ba10  1  0.66961463  0.50709084  0.62301724  1
  Ba  Ba11  1  0.33102063  0.49053874  0.87687981  1
  Ba  Ba12  1  0.33605621  0.17780754  0.62548335  1
  Ba  Ba13  1  0.00103596  0.82026333  0.87560471  1
  Ba  Ba14  1  0.49696173  0.34196627  0.12547257  1
  Ba  Ba15  1  0.50301244  0.32981520  0.87810831  1
  Ba  Ba16  1  0.50300900  0.66329423  0.87489074  1
  Ba  Ba17  1  0.17216038  0.32020801  0.88081113  1
  Ba  Ba18  1  0.16733772  0.65756237  0.87917308  1
  Ba  Ba19  1  0.67396614  0.17274317  0.62872522  1
  Ba  Ba20  1  -0.00350116  0.49304061  0.37509871  1
  Ba  Ba21  1  0.16427518  0.98868772  0.37295808  1
  Ba  Ba22  1  0.33282573  0.15734041  0.87859538  1
  Ba  Ba23  1  0.83959119  0.66144976  0.37680454  1
  Ba  Ba24  1  0.16530972  0.65978008  0.37506593  1
  Ba  Ba25  1  0.83434979  0.34317590  0.62665113  1
  Ba  Ba26  1  0.16338413  0.00678946  0.12352910  1
  Ba  Ba27  1  0.50224627  0.32720975  0.37351874  1
  Ba  Ba28  1  0.00229146  0.15611959  0.87618470  1
  Ba  Ba29  1  0.66501785  0.82732378  0.87463485  1
  Ba  Ba30  1  0.16444690  0.34203969  0.12842832  1
  Ba  Ba31  1  1.00177161  0.17256421  0.62145215  1
  Ba  Ba32  1  0.33240651  0.15955134  0.37113095  1
  Ba  Ba33  1  0.17034197  0.67155258  0.12651949  1
  Ba  Ba34  1  0.66559914  0.84101328  0.12649150  1
  Ba  Ba35  1  0.49844449  0.99521255  0.87314961  1
  La  La36  1  0.50572673  0.98627734  0.37445469  1
  La  La37  1  1.00573127  0.84857270  0.62222352  1
  La  La38  1  -0.00285453  0.15171163  0.37639444  1
  La  La39  1  0.33790346  0.84767021  0.62036145  1
  La  La40  1  0.16271829  0.68661707  0.62843872  1
  La  La41  1  0.66086657  0.14837783  0.37469291  1
  La  La42  1  0.33268761  0.51767212  0.62841030  1
  La  La43  1  0.49319141  0.68394216  0.12339568  1
  La  La44  1  0.50684782  0.65078263  0.37381760  1
  La  La45  1  0.83685801  0.98363700  0.86676106  1
  La  La46  1  0.33361958  0.18146493  0.12217372  1
  La  La47  1  0.83298612  0.68018308  0.12685279  1
  La  La48  1  1.00419173  0.18146301  0.12402870  1
  La  La49  1  0.66615338  0.51566753  0.12273975  1
  La  La50  1  1.00046440  0.51211177  0.62656296  1
  La  La51  1  0.32553605  0.82178096  0.87563890  1
  La  La52  1  0.49207341  0.01340663  0.12280120  1
  La  La53  1  0.66769724  0.48799507  0.37550231  1
  La  La54  1  0.49908498  0.35399562  0.62667666  1
  La  La55  1  -0.00304516  0.48726532  0.87738271  1
  La  La56  1  0.67019345  0.18538244  0.12400039  1
  La  La57  1  1.00698091  0.51454806  0.12900499  1
  La  La58  1  0.16023165  0.34400138  0.62475392  1
  La  La59  1  0.17374984  0.31658780  0.37832341  1
  La  La60  1  0.83189041  0.67805832  0.62428957  1
  La  La61  1  0.17578555  0.98705588  0.86904763  1
  La  La62  1  0.82470381  0.01555062  0.12535885  1
  La  La63  1  0.83588379  0.32261925  0.87156535  1
  La  La64  1  0.32975562  0.82368005  0.37536856  1
  La  La65  1  0.49354399  0.01601502  0.62078099  1
  La  La66  1  0.51337717  0.66806932  0.63143111  1
  La  La67  1  0.66312191  0.15193991  0.87426945  1
  La  La68  1  1.00287869  0.84002195  0.13001367  1
  La  La69  1  0.33500732  0.84314886  0.12592778  1
  La  La70  1  0.83199650  0.35114864  0.12431767  1
  La  La71  1  -0.00633210  0.82090456  0.37562967  1
  In  In72  1  0.50161442  0.50128991  0.24915314  1
  In  In73  1  0.66722585  0.33262028  0.50149089  1
  In  In74  1  0.50198929  0.17285510  0.74977546  1
  In  In75  1  0.49571563  0.83300544  0.74988319  1
  In  In76  1  0.33147073  0.00084118  0.24982422  1
  In  In77  1  0.33412321  0.66890820  0.50122551  1
  In  In78  1  0.00172753  0.33372991  0.75034675  1
  In  In79  1  0.83245553  0.83585052  0.25011343  1
  In  In80  1  0.83580432  0.16514423  0.75346568  1
  In  In81  1  0.66556747  -0.00288065  0.75081263  1
  In  In82  1  0.50093654  0.50192001  0.00200246  1
  In  In83  1  0.33426037  0.33769320  0.50489727  1
  In  In84  1  0.16803182  0.16592699  0.74931847  1
  In  In85  1  0.50336356  0.16873221  0.00005357  1
  In  In86  1  0.49598671  0.50334707  0.75151835  1
  In  In87  1  0.16528408  0.50286828  0.74953345  1
  In  In88  1  0.83293278  0.16746572  0.49828990  1
  In  In89  1  0.49733560  0.82769755  0.49591586  1
  In  In90  1  0.00144878  0.33373359  0.49626117  1
  In  In91  1  0.83405539  0.83465096  0.00016373  1
  In  In92  1  0.66722323  0.66994670  0.00366583  1
  In  In93  1  -0.00424818  -0.00139484  -0.00182936  1
  In  In94  1  0.83193204  0.16678769  -0.00039300  1
  In  In95  1  0.33123567  0.33538264  0.25032011  1
  In  In96  1  -0.00438810  -0.00172342  0.24730696  1
  In  In97  1  0.33343399  -0.00076976  0.74668657  1
  In  In98  1  0.50146834  0.17039206  0.49830202  1
  In  In99  1  0.50069565  0.16680170  0.24705125  1
  In  In100  1  0.67250970  0.66675483  0.75038279  1
  In  In101  1  0.16379697  0.83138092  0.00465085  1
  In  In102  1  0.83191807  0.50326765  0.24875776  1
  In  In103  1  0.33606297  0.66790990  0.25094828  1
  In  In104  1  0.16444725  0.49907595  0.00165186  1
  In  In105  1  0.00395329  0.66528767  0.50325695  1
  In  In106  1  -0.00201358  0.33283647  0.25212271  1
  In  In107  1  0.66429451  -0.00466942  0.50016679  1
  Ir  Ir108  1  0.84065376  0.83053524  0.74644177  1
  Ir  Ir109  1  0.00556328  -0.00578676  0.75023856  1
  Ir  Ir110  1  0.82983557  0.16506980  0.24652697  1
  Ir  Ir111  1  0.16169472  0.16566341  0.24703227  1
  Ir  Ir112  1  0.83326972  0.50260309  0.50170099  1
  Ir  Ir113  1  -0.00153735  0.66555054  0.74974361  1
  Ir  Ir114  1  0.33042906  0.33585545  0.74883381  1
  Ir  Ir115  1  0.00077871  0.66692244  0.24740036  1
  Ir  Ir116  1  0.66428201  -0.00017937  0.00666109  1
  Ir  Ir117  1  0.67491230  0.33669636  0.00201815  1
  Ir  Ir118  1  0.67067656  0.66232239  0.49479407  1
  Ir  Ir119  1  0.49573739  0.83841956  0.00339581  1
  Ir  Ir120  1  0.83780435  0.49779200  0.00038120  1
  Ir  Ir121  1  0.50038398  0.83641085  0.24708938  1
  Ir  Ir122  1  0.50077512  0.50547730  0.50219273  1
  Ir  Ir123  1  0.33306236  -0.00048379  0.49672399  1
  Ir  Ir124  1  -0.00336017  0.33344532  0.00126986  1
  Ir  Ir125  1  0.32972449  -0.00284948  0.00165756  1
  Ir  Ir126  1  0.16802885  0.16521186  0.49555860  1
  Ir  Ir127  1  0.16855108  0.49987194  0.50286044  1
  Ir  Ir128  1  0.33131736  0.33083310  -0.00069994  1
  Ir  Ir129  1  0.16656891  0.83432527  0.49867850  1
  Ir  Ir130  1  0.66477476  0.66623778  0.25244501  1
  Ir  Ir131  1  0.66957464  0.33809031  0.75502781  1
  Ir  Ir132  1  0.00317827  -0.00243995  0.49872409  1
  Ir  Ir133  1  0.16635793  0.83130775  0.74678666  1
  Ir  Ir134  1  0.66280827  -0.00002330  0.24500964  1
  Ir  Ir135  1  0.16482912  0.16412238  0.00488222  1
  Ir  Ir136  1  0.16199700  0.50182310  0.25482848  1
  Ir  Ir137  1  0.83678583  0.49994030  0.75304628  1
  Ir  Ir138  1  0.67096663  0.33423863  0.24494253  1
  Ir  Ir139  1  0.83739417  0.83001132  0.50350153  1
  Ir  Ir140  1  0.32651201  0.67197680  0.74872415  1
  Ir  Ir141  1  -0.00291590  0.66148284  0.00129756  1
  Ir  Ir142  1  0.16665282  0.83098868  0.25384753  1
  Ir  Ir143  1  0.33518444  0.67232547  -0.00083605  1
  O  O144  1  0.31221946  0.32651954  0.11961150  1
  O  O145  1  0.29844385  0.33547949  0.63028855  1
  O  O146  1  0.32145183  0.67407778  0.12039412  1
  O  O147  1  0.30019620  0.66288726  0.62852346  1
  O  O148  1  0.31076644  0.98176902  0.12080528  1
  O  O149  1  0.30913586  0.98726550  0.61508523  1
  O  O150  1  0.64728434  0.32216367  0.12284736  1
  O  O151  1  0.63811593  0.33120772  0.63400949  1
  O  O152  1  0.63149320  0.66189812  0.13517904  1
  O  O153  1  0.64790994  0.66549428  0.61483553  1
  O  O154  1  0.62923341  0.99638300  0.12603373  1
  O  O155  1  0.63173467  0.99708719  0.62483183  1
  O  O156  1  0.96744047  0.32036014  0.12149731  1
  O  O157  1  0.98640643  0.33050468  0.62198907  1
  O  O158  1  0.96951730  0.65351157  0.12346562  1
  O  O159  1  0.97024791  0.65606637  0.63095612  1
  O  O160  1  0.95975918  0.98242698  0.12455739  1
  O  O161  1  0.98260053  0.98619815  0.62492124  1
  O  O162  1  0.19488752  0.16285091  0.12708192  1
  O  O163  1  0.18558374  0.16362707  0.61577009  1
  O  O164  1  0.17896115  0.50133267  0.13326228  1
  O  O165  1  0.19832984  0.48655365  0.62087184  1
  O  O166  1  0.19824187  0.82851978  0.13330442  1
  O  O167  1  0.19916740  0.82664556  0.62222507  1
  O  O168  1  0.53560980  0.15660862  0.12298538  1
  O  O169  1  0.52313904  0.15253522  0.62390271  1
  O  O170  1  0.53102275  0.49751339  0.12571532  1
  O  O171  1  0.51687905  0.49905216  0.62159837  1
  O  O172  1  0.52027583  0.82303879  0.12590390  1
  O  O173  1  0.50847755  0.80363920  0.62105089  1
  O  O174  1  0.86363244  0.15631802  0.12748177  1
  O  O175  1  0.85099700  0.16363004  0.62668434  1
  O  O176  1  0.86965915  0.48953600  0.11781098  1
  O  O177  1  0.86529857  0.49829031  0.62854925  1
  O  O178  1  0.86652822  0.82521363  0.12603705  1
  O  O179  1  0.87014452  0.82391344  0.62522641  1
  O  O180  1  0.13389662  0.17548061  0.37074266  1
  O  O181  1  0.15106277  0.16328314  0.88388724  1
  O  O182  1  0.14350094  0.50832753  0.38120153  1
  O  O183  1  0.13556430  0.50239298  0.87601987  1
  O  O184  1  0.13109446  0.83206651  0.37680765  1
  O  O185  1  0.15043451  0.84128368  0.87010857  1
  O  O186  1  0.48102316  0.17123172  0.37147297  1
  O  O187  1  0.48309873  0.17446448  0.87711447  1
  O  O188  1  0.48158982  0.51186407  0.38190232  1
  O  O189  1  0.48224062  0.50442020  0.87685826  1
  O  O190  1  0.46785556  0.84529040  0.36559370  1
  O  O191  1  0.46331321  0.83934892  0.88365103  1
  O  O192  1  0.79689072  0.16763923  0.36256007  1
  O  O193  1  0.79751834  0.18336696  0.87870017  1
  O  O194  1  0.80535278  0.50844027  0.37874456  1
  O  O195  1  0.81094843  0.50205128  0.87658038  1
  O  O196  1  0.82073756  0.82827434  0.38147581  1
  O  O197  1  0.81563051  0.83385962  0.86662003  1
  O  O198  1  0.01559548  0.01038852  0.37641077  1
  O  O199  1  0.03877993  -0.00323724  0.86935165  1
  O  O200  1  0.03822080  0.33909046  0.37332656  1
  O  O201  1  0.02303909  0.34838159  0.88267678  1
  O  O202  1  0.01569297  0.67889447  0.37111874  1
  O  O203  1  0.02025516  0.66407558  0.87708827  1
  O  O204  1  0.36506499  0.00020287  0.37711823  1
  O  O205  1  0.34527206  -0.00337526  0.88117039  1
  O  O206  1  0.34556666  0.33281116  0.37833061  1
  O  O207  1  0.35342335  0.33403241  0.87323241  1
  O  O208  1  0.36732018  0.67781742  0.37582024  1
  O  O209  1  0.35233874  0.68315687  0.87278350  1
  O  O210  1  0.68521309  0.00591439  0.36345966  1
  O  O211  1  0.69931172  0.00412831  0.88873671  1
  O  O212  1  0.68507925  0.35087254  0.36517292  1
  O  O213  1  0.70246627  0.34650627  0.87966355  1
  O  O214  1  0.69210894  0.66127075  0.37336656  1
  O  O215  1  0.68538446  0.66923817  0.87709468  1
  O  O216  1  0.06808384  0.09883451  0.02692382  1
  O  O217  1  0.07114526  0.09635103  0.50592946  1
  O  O218  1  0.06060471  0.42766752  0.02553573  1
  O  O219  1  0.07501006  0.43632645  0.52772092  1
  O  O220  1  0.06529207  0.75387373  0.02652710  1
  O  O221  1  0.07686973  0.76293773  0.52935182  1
  O  O222  1  0.40123634  0.08861980  0.02751714  1
  O  O223  1  0.40355590  0.08706617  0.51948632  1
  O  O224  1  0.40542895  0.41929683  0.01346709  1
  O  O225  1  0.40399348  0.44207321  0.52779733  1
  O  O226  1  0.40178197  0.77060472  0.02421137  1
  O  O227  1  0.38747518  0.77721810  0.50894072  1
  O  O228  1  0.73148205  0.09305904  0.03232339  1
  O  O229  1  0.73829622  0.09032989  0.50201383  1
  O  O230  1  0.74212259  0.43238233  0.03232552  1
  O  O231  1  0.73899472  0.43619165  0.50549637  1
  O  O232  1  0.74933614  0.75309769  0.02941343  1
  O  O233  1  0.74705678  0.75429748  0.52452788  1
  O  O234  1  0.08698722  0.25737957  0.02802555  1
  O  O235  1  0.10728299  0.26275201  0.51440030  1
  O  O236  1  0.08474842  0.59103255  0.02180065  1
  O  O237  1  0.10329277  0.59515226  0.53153039  1
  O  O238  1  0.08028555  0.91439492  0.02803966  1
  O  O239  1  0.09098524  0.92016285  0.51919640  1
  O  O240  1  0.41696365  0.25473707  0.02217069  1
  O  O241  1  0.43543971  0.27290986  0.52887940  1
  O  O242  1  0.42826412  0.60539823  0.02186415  1
  O  O243  1  0.43866450  0.60340303  0.52360200  1
  O  O244  1  0.42551976  0.93019987  0.02941621  1
  O  O245  1  0.42538582  0.93346084  0.52061040  1
  O  O246  1  0.76665999  0.27039595  0.02662984  1
  O  O247  1  0.76448483  0.26572797  0.51364952  1
  O  O248  1  0.77165960  0.58922050  0.03213566  1
  O  O249  1  0.76824126  0.59886495  0.52328491  1
  O  O250  1  0.75730831  0.93363054  0.02868982  1
  O  O251  1  0.76078800  0.91475722  0.51746001  1
  O  O252  1  0.23486259  0.07826044  0.26472141  1
  O  O253  1  0.23420297  0.06574491  0.76773560  1
  O  O254  1  0.22648159  0.40731258  0.27464342  1
  O  O255  1  0.23837815  0.40207069  0.76577853  1
  O  O256  1  0.24455706  0.74889883  0.27668907  1
  O  O257  1  0.22925635  0.73533856  0.76425668  1
  O  O258  1  0.56938696  0.06391274  0.27071627  1
  O  O259  1  0.58500913  0.08504461  0.77831226  1
  O  O260  1  0.58278924  0.40649575  0.26593379  1
  O  O261  1  0.57566787  0.40516647  0.76019120  1
  O  O262  1  0.56701765  0.73531369  0.27525452  1
  O  O263  1  0.57324659  0.74040559  0.75745627  1
  O  O264  1  0.89461407  0.07233667  0.26452707  1
  O  O265  1  0.91288498  0.06094167  0.77585367  1
  O  O266  1  0.90028456  0.40354166  0.25734674  1
  O  O267  1  0.90369194  0.40987253  0.77929901  1
  O  O268  1  0.91265094  0.73719500  0.25854448  1
  O  O269  1  0.90656849  0.73485616  0.76424075  1
  O  O270  1  0.24575734  0.24228048  0.26554980  1
  O  O271  1  0.26771001  0.24134882  0.76518031  1
  O  O272  1  0.25433633  0.57397001  0.26467017  1
  O  O273  1  0.26526900  0.57441011  0.76005739  1
  O  O274  1  0.26189782  0.89986437  0.27295046  1
  O  O275  1  0.26077610  0.89778493  0.77086457  1
  O  O276  1  0.60970839  0.23574672  0.26365052  1
  O  O277  1  0.60672327  0.24537389  0.77907383  1
  O  O278  1  0.60125924  0.57257190  0.27722226  1
  O  O279  1  0.58705018  0.58106514  0.75121602  1
  O  O280  1  0.59392384  0.90698396  0.27260294  1
  O  O281  1  0.58876687  0.90764991  0.76967159  1
  O  O282  1  0.92628376  0.22688791  0.27134845  1
  O  O283  1  0.92256765  0.24627049  0.77856222  1
  O  O284  1  0.92983603  0.57646026  0.26039652  1
  O  O285  1  0.93750704  0.56330047  0.77054794  1
  O  O286  1  0.93346774  0.89760213  0.27697409  1
  O  O287  1  0.93326608  0.90238148  0.76558120  1
  O  O288  1  0.25564080  0.23683251  0.48069655  1
  O  O289  1  0.26212149  0.23275616  0.99194585  1
  O  O290  1  0.26374776  0.56704524  0.49332158  1
  O  O291  1  0.26236314  0.58165818  0.98712995  1
  O  O292  1  0.26420388  0.90200460  0.47209866  1
  O  O293  1  0.26024419  0.90635462  0.97826302  1
  O  O294  1  0.60407507  0.23383446  0.47130932  1
  O  O295  1  0.61271450  0.23895767  0.98277926  1
  O  O296  1  0.59988086  0.56928785  0.47144808  1
  O  O297  1  0.60148455  0.57150918  0.99709304  1
  O  O298  1  0.58571523  0.90494952  0.47479343  1
  O  O299  1  0.59078701  0.90856671  0.98383902  1
  O  O300  1  0.93445070  0.23349326  0.46853417  1
  O  O301  1  0.92791443  0.24472180  0.98045966  1
  O  O302  1  0.92741680  0.57006117  0.49315986  1
  O  O303  1  0.93399700  0.56190906  0.97738276  1
  O  O304  1  0.93702702  0.89730390  0.48373513  1
  O  O305  1  0.91618022  0.91256760  0.96338097  1
  O  O306  1  0.23919113  0.07071908  0.47594384  1
  O  O307  1  0.23179073  0.06360086  0.97931209  1
  O  O308  1  0.22653165  0.40190818  0.48176472  1
  O  O309  1  0.24395221  0.40633111  0.98831373  1
  O  O310  1  0.23468394  0.74476896  0.48192566  1
  O  O311  1  0.24686840  0.74475317  0.98046529  1
  O  O312  1  0.56688260  0.06660519  0.47001328  1
  O  O313  1  0.57879302  0.07089273  0.98136790  1
  O  O314  1  0.56807624  0.41111782  0.48950070  1
  O  O315  1  0.58533806  0.40374411  0.98840859  1
  O  O316  1  0.57128392  0.72514024  0.47581327  1
  O  O317  1  0.56567936  0.74713040  0.99099148  1
  O  O318  1  0.91659400  0.07215044  0.48354491  1
  O  O319  1  0.89655583  0.06820241  0.97261197  1
  O  O320  1  0.90303684  0.41282888  0.48205742  1
  O  O321  1  0.90249743  0.40147654  0.97385173  1
  O  O322  1  0.91295932  0.74505007  0.48836223  1
  O  O323  1  0.90881150  0.73162294  0.99215038  1
  O  O324  1  0.08626245  0.25005439  0.22482355  1
  O  O325  1  0.10162706  0.26460847  0.73152999  1
  O  O326  1  0.08958680  0.59389969  0.23175286  1
  O  O327  1  0.09198857  0.60175465  0.72074392  1
  O  O328  1  0.09119425  0.91561898  0.22993164  1
  O  O329  1  0.09666273  0.92218193  0.72512032  1
  O  O330  1  0.41543955  0.25077633  0.22358698  1
  O  O331  1  0.42979013  0.27585951  0.72505750  1
  O  O332  1  0.44045460  0.60728755  0.23356935  1
  O  O333  1  0.42014331  0.60566445  0.72314433  1
  O  O334  1  0.43569403  0.92915683  0.22235872  1
  O  O335  1  0.42597419  0.92617294  0.71215325  1
  O  O336  1  0.76692182  0.26374213  0.21803999  1
  O  O337  1  0.75946439  0.27106343  0.74251761  1
  O  O338  1  0.75519130  0.59643132  0.21761545  1
  O  O339  1  0.77287698  0.59350220  0.72591729  1
  O  O340  1  0.76042452  0.93632043  0.22375956  1
  O  O341  1  0.76927099  0.91973709  0.73761891  1
  O  O342  1  0.06790350  0.09656940  0.22605823  1
  O  O343  1  0.07026426  0.08605017  0.73382390  1
  O  O344  1  0.06815734  0.43509005  0.22954481  1
  O  O345  1  0.06815801  0.43476651  0.72401091  1
  O  O346  1  0.06940004  0.76346546  0.22908856  1
  O  O347  1  0.06810161  0.76135982  0.71961435  1
  O  O348  1  0.40542709  0.09020801  0.21249248  1
  O  O349  1  0.41310253  0.08777838  0.73121648  1
  O  O350  1  0.40692048  0.42862682  0.23702641  1
  O  O351  1  0.39731174  0.43101505  0.72302638  1
  O  O352  1  0.40615992  0.77193581  0.22488736  1
  O  O353  1  0.38368969  0.77069428  0.73662224  1
  O  O354  1  0.73124606  0.09694476  0.21858544  1
  O  O355  1  0.74704151  0.08516930  0.74739707  1
  O  O356  1  0.73519659  0.42942784  0.21975656  1
  O  O357  1  0.74168719  0.43295607  0.73449120  1
  O  O358  1  0.74126066  0.75254663  0.23138890  1
  O  O359  1  0.75464113  0.75712975  0.72224534  1
