# generated using pymatgen
data_BaLaInIrO6
_symmetry_space_group_name_H-M   'P 1'
_cell_length_a   17.51439988
_cell_length_b   17.53627168
_cell_length_c   16.48595676
_cell_angle_alpha   89.95973457
_cell_angle_beta   90.00672597
_cell_angle_gamma   90.01873246
_symmetry_Int_Tables_number   1
_chemical_formula_structural   BaLaInIrO6
_chemical_formula_sum   'Ba36 La36 In36 Ir36 O216'
_cell_volume   5063.45027230
_cell_formula_units_Z   36
loop_
 _symmetry_equiv_pos_site_id
 _symmetry_equiv_pos_as_xyz
  1  'x, y, z'
loop_
 _atom_site_type_symbol
 _atom_site_label
 _atom_site_symmetry_multiplicity
 _atom_site_fract_x
 _atom_site_fract_y
 _atom_site_fract_z
 _atom_site_occupancy
  Ba  Ba0  1  0.66573125  0.15379735  0.37708889  1
  Ba  Ba1  1  0.83240172  0.33962526  0.62621574  1
  Ba  Ba2  1  1.00111343  0.50534529  0.12635957  1
  Ba  Ba3  1  0.33542814  0.49117976  0.87938404  1
  Ba  Ba4  1  0.16528581  0.66857686  0.12502146  1
  Ba  Ba5  1  0.67211793  0.84009450  0.12409095  1
  Ba  Ba6  1  0.16670024  0.65795059  0.37652582  1
  Ba  Ba7  1  0.16643411  0.01230804  0.62428813  1
  Ba  Ba8  1  1.00178731  0.17487190  0.62256586  1
  Ba  Ba9  1  0.16614848  0.32894858  0.37265062  1
  Ba  Ba10  1  1.00296120  0.17493099  0.12405152  1
  Ba  Ba11  1  1.00163764  0.83662899  0.12626052  1
  Ba  Ba12  1  0.33029793  0.82467809  0.87090298  1
  Ba  Ba13  1  -0.00138215  0.82352057  0.38002362  1
  Ba  Ba14  1  0.50365452  0.98446930  0.37236333  1
  Ba  Ba15  1  0.16762861  0.99457200  0.37387612  1
  Ba  Ba16  1  0.83369457  0.32380791  0.87870310  1
  Ba  Ba17  1  0.33202256  0.15836749  0.37172680  1
  Ba  Ba18  1  0.33335136  0.15909383  0.87104549  1
  Ba  Ba19  1  0.82982937  0.66097032  0.37614514  1
  Ba  Ba20  1  0.50074164  0.99255009  0.87595871  1
  Ba  Ba21  1  0.49742307  0.34211322  0.62811387  1
  Ba  Ba22  1  0.83610924  0.32784240  0.37460516  1
  Ba  Ba23  1  0.66417165  0.49231895  0.87761950  1
  Ba  Ba24  1  0.83357417  0.00896187  0.62349824  1
  Ba  Ba25  1  0.82914252  0.66221324  0.87404807  1
  Ba  Ba26  1  0.83115308  0.67292113  0.12501663  1
  Ba  Ba27  1  0.66792704  0.17444781  0.62584596  1
  Ba  Ba28  1  0.17201997  0.99010105  0.87346223  1
  Ba  Ba29  1  0.67003717  0.17340916  0.12627331  1
  Ba  Ba30  1  0.83443572  0.99341372  0.37627473  1
  Ba  Ba31  1  0.33278941  0.17587842  0.12190280  1
  Ba  Ba32  1  0.66375982  0.16164526  0.87329877  1
  Ba  Ba33  1  0.32751643  0.82418409  0.37722032  1
  Ba  Ba34  1  0.66832618  0.84128514  0.62781978  1
  Ba  Ba35  1  0.66665839  0.50938055  0.12377242  1
  La  La36  1  0.33094430  0.48663553  0.37931877  1
  La  La37  1  0.50639110  0.31792671  0.37355670  1
  La  La38  1  0.16667247  0.34453957  0.12410791  1
  La  La39  1  0.17033926  0.31634480  0.87711570  1
  La  La40  1  0.67208066  0.82953590  0.37882735  1
  La  La41  1  0.16577090  0.68209503  0.62595986  1
  La  La42  1  0.82963288  0.68187956  0.62155384  1
  La  La43  1  0.50521448  0.65166717  0.37686499  1
  La  La44  1  0.50928024  0.32069002  0.88229565  1
  La  La45  1  0.83387411  0.35065826  0.12581003  1
  La  La46  1  0.33596954  0.51283666  0.12785562  1
  La  La47  1  0.33661990  0.85197054  0.62375470  1
  La  La48  1  0.66249383  0.48406009  0.37460194  1
  La  La49  1  0.49353329  0.01993902  0.62250173  1
  La  La50  1  0.49542877  0.35200757  0.12299849  1
  La  La51  1  0.50770140  0.65560473  0.87374717  1
  La  La52  1  0.33232648  0.84981939  0.12609758  1
  La  La53  1  0.49931255  0.01778793  0.12259219  1
  La  La54  1  0.49206202  0.68155685  0.12511904  1
  La  La55  1  -0.00267278  0.82026047  0.87599923  1
  La  La56  1  0.66836527  0.51163709  0.62335209  1
  La  La57  1  -0.00956226  0.48607140  0.87640252  1
  La  La58  1  -0.00525376  0.14884068  0.87175398  1
  La  La59  1  0.83379859  0.98946812  0.87177295  1
  La  La60  1  1.00224278  0.84824384  0.62803511  1
  La  La61  1  1.00197446  0.51185954  0.62427503  1
  La  La62  1  -0.01051356  0.14931600  0.37716364  1
  La  La63  1  0.00290203  0.49672077  0.37513389  1
  La  La64  1  0.33906968  0.51089800  0.62271626  1
  La  La65  1  0.49682550  0.68227438  0.62476312  1
  La  La66  1  0.16353329  0.01636751  0.12522891  1
  La  La67  1  0.66462016  0.82239244  0.88003052  1
  La  La68  1  0.33600520  0.18437567  0.61555643  1
  La  La69  1  0.83005838  0.01347132  0.12856040  1
  La  La70  1  0.16540932  0.65152867  0.87428758  1
  La  La71  1  0.16328814  0.34662391  0.62593040  1
  In  In72  1  0.66576626  0.33296420  0.24808411  1
  In  In73  1  0.66542877  -0.00443694  0.24822657  1
  In  In74  1  0.16758323  0.83082920  -0.00321835  1
  In  In75  1  0.33120517  0.33809889  0.75187921  1
  In  In76  1  0.33381010  0.66545758  0.49993841  1
  In  In77  1  0.16964528  0.83046414  0.24748374  1
  In  In78  1  0.16609138  0.49551633  -0.00412131  1
  In  In79  1  0.49543039  0.16844055  0.74996608  1
  In  In80  1  0.00259272  0.33070037  0.75143491  1
  In  In81  1  0.66349323  -0.00308997  0.50244617  1
  In  In82  1  0.83508226  0.16984567  0.24836808  1
  In  In83  1  0.66536018  0.33705623  0.74975302  1
  In  In84  1  0.66295427  0.66632619  0.25091395  1
  In  In85  1  0.33464693  -0.00043978  0.24870498  1
  In  In86  1  0.00108244  0.66651113  0.74869141  1
  In  In87  1  0.83428375  0.83573626  0.00059967  1
  In  In88  1  0.00147879  -0.00127061  0.50232035  1
  In  In89  1  0.33293513  0.66775702  -0.00245657  1
  In  In90  1  0.83328630  0.50463943  0.00060194  1
  In  In91  1  0.33719897  0.33471940  0.24971242  1
  In  In92  1  0.33266170  0.00133021  -0.00267352  1
  In  In93  1  0.33140488  0.66637592  0.74969663  1
  In  In94  1  0.66546278  0.66658143  0.74614094  1
  In  In95  1  0.00239525  0.33384646  0.25048197  1
  In  In96  1  0.83488465  0.50127610  0.74834186  1
  In  In97  1  0.16499780  0.17240760  0.49856988  1
  In  In98  1  0.33396724  0.00192193  0.49714061  1
  In  In99  1  0.83056496  0.17035705  0.50240766  1
  In  In100  1  0.49729842  0.83439766  0.75036626  1
  In  In101  1  -0.00156788  0.66508476  0.25056337  1
  In  In102  1  0.66914457  0.33252305  0.00461538  1
  In  In103  1  0.16465336  0.17054544  0.25039830  1
  In  In104  1  0.66446882  -0.00209618  0.75171136  1
  In  In105  1  0.83374148  0.50184670  0.49996757  1
  In  In106  1  0.00097377  -0.00355037  0.24450061  1
  In  In107  1  0.49912480  0.83655861  0.00357933  1
  Ir  Ir108  1  0.83507011  0.82708288  0.50397025  1
  Ir  Ir109  1  0.50179501  0.16814494  0.24821874  1
  Ir  Ir110  1  0.00232692  0.66749577  -0.00383394  1
  Ir  Ir111  1  0.50104932  0.50144653  0.50090131  1
  Ir  Ir112  1  0.16578631  0.82856185  0.50711827  1
  Ir  Ir113  1  0.16590284  0.50053169  0.74693579  1
  Ir  Ir114  1  0.83260092  0.83208375  0.25168056  1
  Ir  Ir115  1  0.00367077  0.33009822  -0.00030862  1
  Ir  Ir116  1  0.16408559  0.16847483  -0.00484925  1
  Ir  Ir117  1  0.49858784  0.82569715  0.25119813  1
  Ir  Ir118  1  0.49684417  0.50196427  0.00280755  1
  Ir  Ir119  1  0.00054264  -0.00000529  -0.00504028  1
  Ir  Ir120  1  0.00103257  0.66351005  0.50497658  1
  Ir  Ir121  1  0.00263444  -0.00168052  0.75508072  1
  Ir  Ir122  1  0.49924331  0.50221344  0.74760571  1
  Ir  Ir123  1  0.67037623  0.00280899  0.00032507  1
  Ir  Ir124  1  0.00384843  0.34080130  0.50043704  1
  Ir  Ir125  1  0.16325032  0.83368585  0.74743788  1
  Ir  Ir126  1  0.65961540  0.66778816  -0.00034295  1
  Ir  Ir127  1  0.49798201  0.17148218  0.49709195  1
  Ir  Ir128  1  0.83863077  0.16305691  -0.00353882  1
  Ir  Ir129  1  0.16705289  0.16794692  0.75068449  1
  Ir  Ir130  1  0.83598915  0.83538039  0.75164331  1
  Ir  Ir131  1  0.33000442  0.00156706  0.74470378  1
  Ir  Ir132  1  0.17224812  0.50086211  0.25505470  1
  Ir  Ir133  1  0.33479400  0.33303182  -0.00102607  1
  Ir  Ir134  1  0.16986112  0.49965997  0.50324897  1
  Ir  Ir135  1  0.33890080  0.66338845  0.25141768  1
  Ir  Ir136  1  0.49894190  0.82775993  0.49938043  1
  Ir  Ir137  1  0.49723652  0.50204719  0.25323854  1
  Ir  Ir138  1  0.66024986  0.33815681  0.49916226  1
  Ir  Ir139  1  0.33510344  0.33919025  0.49993031  1
  Ir  Ir140  1  0.50093924  0.16895329  0.00447226  1
  Ir  Ir141  1  0.83067768  0.50106539  0.25282995  1
  Ir  Ir142  1  0.83518156  0.16422119  0.75474125  1
  Ir  Ir143  1  0.66193460  0.66562888  0.50035913  1
  O  O144  1  0.30502586  0.33650671  0.11853430  1
  O  O145  1  0.30194170  0.33325405  0.62045033  1
  O  O146  1  0.31630319  0.65071319  0.13266602  1
  O  O147  1  0.30014197  0.64586345  0.62528668  1
  O  O148  1  0.30312318  0.99438422  0.12243571  1
  O  O149  1  0.31688014  0.99213522  0.62529497  1
  O  O150  1  0.63003611  0.33750370  0.12623332  1
  O  O151  1  0.64571914  0.33593182  0.61790761  1
  O  O152  1  0.63418299  0.66591449  0.12181782  1
  O  O153  1  0.63311795  0.65172217  0.61833662  1
  O  O154  1  0.63748207  0.99455503  0.11912086  1
  O  O155  1  0.62925877  0.99247766  0.62517966  1
  O  O156  1  0.96886659  0.32957730  0.11819193  1
  O  O157  1  0.98526242  0.33478734  0.61985767  1
  O  O158  1  0.98223463  0.66193637  0.11712160  1
  O  O159  1  0.96843072  0.65385854  0.62313039  1
  O  O160  1  0.96509140  0.99336089  0.11071205  1
  O  O161  1  0.98184082  0.98797057  0.63499371  1
  O  O162  1  0.18424844  0.16290648  0.11325610  1
  O  O163  1  0.19854186  0.17387999  0.63206926  1
  O  O164  1  0.19855597  0.49082582  0.13264031  1
  O  O165  1  0.20279291  0.48723765  0.62601331  1
  O  O166  1  0.20045162  0.81737982  0.12045619  1
  O  O167  1  0.19715473  0.82072917  0.62844770  1
  O  O168  1  0.52254605  0.15553695  0.12686406  1
  O  O169  1  0.51606142  0.16294428  0.61706046  1
  O  O170  1  0.52017891  0.48801141  0.12739279  1
  O  O171  1  0.53239401  0.49314125  0.62459627  1
  O  O172  1  0.52432673  0.81751514  0.13308547  1
  O  O173  1  0.52033100  0.82164403  0.61825583  1
  O  O174  1  0.85595811  0.15189560  0.11469248  1
  O  O175  1  0.85149873  0.17131928  0.63491055  1
  O  O176  1  0.85070656  0.49952564  0.13095363  1
  O  O177  1  0.86585818  0.49754990  0.62284708  1
  O  O178  1  0.84867069  0.82756953  0.12940714  1
  O  O179  1  0.86551792  0.81879669  0.62847475  1
  O  O180  1  0.12478742  0.17576912  0.37489717  1
  O  O181  1  0.13233512  0.17634077  0.87263912  1
  O  O182  1  0.13910626  0.50421553  0.37988855  1
  O  O183  1  0.12913008  0.50895654  0.86518896  1
  O  O184  1  0.15192275  0.83374093  0.38605217  1
  O  O185  1  0.13183507  0.83837165  0.86624301  1
  O  O186  1  0.47851880  0.18150307  0.37118927  1
  O  O187  1  0.48265043  0.18095258  0.88299358  1
  O  O188  1  0.46708644  0.51383528  0.37687860  1
  O  O189  1  0.47876196  0.52077204  0.87331497  1
  O  O190  1  0.47638704  0.82491491  0.37521940  1
  O  O191  1  0.47994837  0.83019506  0.87715566  1
  O  O192  1  0.81675579  0.17254807  0.37577376  1
  O  O193  1  0.81481575  0.16041982  0.87654658  1
  O  O194  1  0.80232593  0.50067333  0.37403228  1
  O  O195  1  0.81653280  0.50365245  0.87516914  1
  O  O196  1  0.80678682  0.83413209  0.37835843  1
  O  O197  1  0.80312671  0.84585460  0.87220313  1
  O  O198  1  0.01611864  0.00444552  0.37455102  1
  O  O199  1  0.02596380  0.01090544  0.87557140  1
  O  O200  1  0.01939453  0.35888511  0.37994198  1
  O  O201  1  0.03526934  0.34417015  0.87999564  1
  O  O202  1  0.01764533  0.66352189  0.38502089  1
  O  O203  1  0.03034779  0.67862568  0.87478714  1
  O  O204  1  0.35471110  -0.00521279  0.37432178  1
  O  O205  1  0.34871597  0.00139326  0.86510372  1
  O  O206  1  0.37004392  0.34837212  0.37980887  1
  O  O207  1  0.36997477  0.33510536  0.87973773  1
  O  O208  1  0.36775315  0.66663315  0.37255132  1
  O  O209  1  0.37174698  0.66701520  0.87211205  1
  O  O210  1  0.67750976  -0.01400794  0.37557957  1
  O  O211  1  0.69756369  0.00575005  0.88085436  1
  O  O212  1  0.67923360  0.34487691  0.37854578  1
  O  O213  1  0.67820398  0.33582556  0.87842694  1
  O  O214  1  0.67647073  0.68464762  0.38099545  1
  O  O215  1  0.67514881  0.67656055  0.87660998  1
  O  O216  1  0.07377487  0.09280887  0.01755195  1
  O  O217  1  0.07700838  0.09210397  0.51861423  1
  O  O218  1  0.07886343  0.41576170  0.02727801  1
  O  O219  1  0.07212543  0.43711035  0.52667588  1
  O  O220  1  0.06727161  0.75981785  0.00888986  1
  O  O221  1  0.06979998  0.75769329  0.53464333  1
  O  O222  1  0.41394357  0.09474365  0.01657227  1
  O  O223  1  0.40862725  0.10044997  0.52468333  1
  O  O224  1  0.40328017  0.42871945  0.02966288  1
  O  O225  1  0.40222284  0.43755174  0.52289450  1
  O  O226  1  0.40213309  0.76177264  0.03394102  1
  O  O227  1  0.40350122  0.76403134  0.52727849  1
  O  O228  1  0.74495566  0.09211949  0.02298864  1
  O  O229  1  0.74029701  0.08896573  0.51672755  1
  O  O230  1  0.75205960  0.41794530  0.02709102  1
  O  O231  1  0.72504730  0.43516719  0.51523248  1
  O  O232  1  0.73372726  0.75867398  0.00529076  1
  O  O233  1  0.73889567  0.75371282  0.52449560  1
  O  O234  1  0.10011599  0.26527748  0.01818530  1
  O  O235  1  0.10028092  0.27810940  0.52211093  1
  O  O236  1  0.09166163  0.59491871  0.00618774  1
  O  O237  1  0.09833280  0.59476955  0.53231066  1
  O  O238  1  0.09269875  0.93429508  0.02164938  1
  O  O239  1  0.09100493  0.91294525  0.52598534  1
  O  O240  1  0.43523360  0.26817015  0.02428670  1
  O  O241  1  0.42451252  0.26390448  0.51981390  1
  O  O242  1  0.42892045  0.59179333  0.02926053  1
  O  O243  1  0.43491453  0.59409065  0.52806946  1
  O  O244  1  0.43279190  0.93348931  0.02967846  1
  O  O245  1  0.43577019  0.92446334  0.52495419  1
  O  O246  1  0.77331786  0.25722492  0.02390495  1
  O  O247  1  0.75126857  0.26851286  0.51424733  1
  O  O248  1  0.74916983  0.59681128  0.01310196  1
  O  O249  1  0.75732277  0.59946232  0.52614578  1
  O  O250  1  0.76711254  0.93945557  0.01878780  1
  O  O251  1  0.76178175  0.91380789  0.51669251  1
  O  O252  1  0.24016072  0.07524566  0.25859174  1
  O  O253  1  0.23712679  0.07402635  0.76524775  1
  O  O254  1  0.24811369  0.41800121  0.27587725  1
  O  O255  1  0.22856020  0.40561334  0.77521839  1
  O  O256  1  0.24920432  0.72884879  0.26871585  1
  O  O257  1  0.22429020  0.73491997  0.76842358  1
  O  O258  1  0.56822034  0.07390629  0.26070228  1
  O  O259  1  0.56710047  0.07212471  0.75918885  1
  O  O260  1  0.56353262  0.40894445  0.27770733  1
  O  O261  1  0.55820938  0.40867882  0.77731409  1
  O  O262  1  0.55399469  0.72532400  0.26633929  1
  O  O263  1  0.56083600  0.72756119  0.75789274  1
  O  O264  1  0.91009108  0.07438070  0.26044491  1
  O  O265  1  0.90763998  0.06815887  0.77908803  1
  O  O266  1  0.90360289  0.41166761  0.25794922  1
  O  O267  1  0.91450760  0.40761925  0.77387819  1
  O  O268  1  0.90117273  0.74074517  0.26590742  1
  O  O269  1  0.90859438  0.74791866  0.77118442  1
  O  O270  1  0.26134912  0.24573111  0.26434584  1
  O  O271  1  0.24935075  0.24427025  0.77510052  1
  O  O272  1  0.27504964  0.56646196  0.27422328  1
  O  O273  1  0.25152959  0.57198505  0.77670283  1
  O  O274  1  0.27081923  0.89553697  0.25396793  1
  O  O275  1  0.26158244  0.90231911  0.75692323  1
  O  O276  1  0.59052491  0.23872924  0.27026488  1
  O  O277  1  0.58157266  0.25113774  0.76515729  1
  O  O278  1  0.59084980  0.56723818  0.28232449  1
  O  O279  1  0.59259918  0.56664473  0.76188522  1
  O  O280  1  0.59608582  0.88585465  0.27182700  1
  O  O281  1  0.60183197  0.89524919  0.77724738  1
  O  O282  1  0.93807095  0.23584434  0.27587625  1
  O  O283  1  0.93118473  0.23019601  0.77475095  1
  O  O284  1  0.92558512  0.56687615  0.27488297  1
  O  O285  1  0.94062676  0.56587258  0.77104929  1
  O  O286  1  0.92241708  0.89974621  0.26488939  1
  O  O287  1  0.93297852  0.90382800  0.77745526  1
  O  O288  1  0.26786457  0.24729576  0.48394664  1
  O  O289  1  0.25582164  0.24390299  0.97113446  1
  O  O290  1  0.26642033  0.56235619  0.47925344  1
  O  O291  1  0.25901965  0.57015924  0.98828086  1
  O  O292  1  0.25764400  0.89888303  0.49866297  1
  O  O293  1  0.26442845  0.90201064  0.98518495  1
  O  O294  1  0.58723741  0.24762378  0.47297661  1
  O  O295  1  0.58790329  0.24136346  0.98678581  1
  O  O296  1  0.59756458  0.56804760  0.47259308  1
  O  O297  1  0.58528795  0.57821186  0.97757543  1
  O  O298  1  0.59356927  0.88925424  0.47932411  1
  O  O299  1  0.60629262  0.90673947  0.97743244  1
  O  O300  1  0.94054396  0.24619773  0.47859916  1
  O  O301  1  0.93417825  0.23268560  0.97125767  1
  O  O302  1  0.93980684  0.56695274  0.48181112  1
  O  O303  1  0.93478425  0.57486187  0.97603553  1
  O  O304  1  0.92518814  0.89836004  0.49635159  1
  O  O305  1  0.93132638  0.91027711  0.96492019  1
  O  O306  1  0.24465940  0.08148674  0.48510198  1
  O  O307  1  0.23615246  0.08069678  0.98199159  1
  O  O308  1  0.24343706  0.41041124  0.47639946  1
  O  O309  1  0.23937003  0.39686128  0.97351476  1
  O  O310  1  0.23291894  0.73576639  0.49542522  1
  O  O311  1  0.23216994  0.72934493  0.96438700  1
  O  O312  1  0.56335075  0.07756333  0.48542763  1
  O  O313  1  0.57035904  0.07093045  0.98835849  1
  O  O314  1  0.56654048  0.40862203  0.47052875  1
  O  O315  1  0.56190528  0.40739715  0.98312356  1
  O  O316  1  0.55866015  0.72545914  0.48505393  1
  O  O317  1  0.56911383  0.73630790  0.98000613  1
  O  O318  1  0.91373958  0.08189840  0.48684732  1
  O  O319  1  0.90586276  0.06818710  0.96750454  1
  O  O320  1  0.91267588  0.40812514  0.48308947  1
  O  O321  1  0.91965844  0.40782735  0.98316514  1
  O  O322  1  0.90342706  0.72902684  0.49237424  1
  O  O323  1  0.91371939  0.74295482  0.97703113  1
  O  O324  1  0.10147066  0.27137078  0.21814648  1
  O  O325  1  0.10329780  0.26391627  0.73060888  1
  O  O326  1  0.09459319  0.58264654  0.23976650  1
  O  O327  1  0.10183021  0.59432500  0.71870298  1
  O  O328  1  0.10064548  0.92889815  0.22024139  1
  O  O329  1  0.09186095  0.92403102  0.72509182  1
  O  O330  1  0.44021570  0.26732374  0.23031693  1
  O  O331  1  0.40936379  0.25123397  0.72242567  1
  O  O332  1  0.43429663  0.59772590  0.22598157  1
  O  O333  1  0.43233157  0.59350412  0.71744748  1
  O  O334  1  0.43932905  0.92239434  0.22257476  1
  O  O335  1  0.42555268  0.93478988  0.72254544  1
  O  O336  1  0.76824151  0.27048700  0.22137436  1
  O  O337  1  0.76323449  0.25448398  0.74241387  1
  O  O338  1  0.75842930  0.59018975  0.23877714  1
  O  O339  1  0.76296286  0.59963635  0.71861008  1
  O  O340  1  0.76734408  0.92556534  0.22890928  1
  O  O341  1  0.76818527  0.92636751  0.73615673  1
  O  O342  1  0.08035032  0.08688977  0.22130200  1
  O  O343  1  0.07129712  0.09541459  0.73696673  1
  O  O344  1  0.08498840  0.42782314  0.23474502  1
  O  O345  1  0.07757014  0.43226931  0.71793773  1
  O  O346  1  0.07739248  0.75339802  0.24077734  1
  O  O347  1  0.07108015  0.76606889  0.72336183  1
  O  O348  1  0.41544596  0.09445012  0.22775208  1
  O  O349  1  0.39745670  0.09284574  0.71999918  1
  O  O350  1  0.40513822  0.43555854  0.22565284  1
  O  O351  1  0.40175842  0.43828520  0.72730870  1
  O  O352  1  0.40173205  0.76090687  0.22181162  1
  O  O353  1  0.39775075  0.76447467  0.71692725  1
  O  O354  1  0.74517446  0.08601812  0.23004739  1
  O  O355  1  0.74620532  0.09276054  0.73732277  1
  O  O356  1  0.73946672  0.43196714  0.23777416  1
  O  O357  1  0.73235709  0.43479072  0.72375533  1
  O  O358  1  0.73793541  0.76485396  0.24524133  1
  O  O359  1  0.74714633  0.76156216  0.73587340  1
