# generated using pymatgen
data_BaLaInIrO6
_symmetry_space_group_name_H-M   'P 1'
_cell_length_a   17.52886002
_cell_length_b   17.57017895
_cell_length_c   16.50343729
_cell_angle_alpha   89.98486061
_cell_angle_beta   89.98095431
_cell_angle_gamma   89.98054570
_symmetry_Int_Tables_number   1
_chemical_formula_structural   BaLaInIrO6
_chemical_formula_sum   'Ba36 La36 In36 Ir36 O216'
_cell_volume   5082.81380274
_cell_formula_units_Z   36
loop_
 _symmetry_equiv_pos_site_id
 _symmetry_equiv_pos_as_xyz
  1  'x, y, z'
loop_
 _atom_site_type_symbol
 _atom_site_label
 _atom_site_symmetry_multiplicity
 _atom_site_fract_x
 _atom_site_fract_y
 _atom_site_fract_z
 _atom_site_occupancy
  Ba  Ba0  1  1.00226616  0.17476067  0.62912978  1
  Ba  Ba1  1  0.33375121  0.82228551  0.87176949  1
  Ba  Ba2  1  0.16734925  0.67635224  0.61834030  1
  Ba  Ba3  1  0.16407498  0.34398880  0.12891054  1
  Ba  Ba4  1  1.00090117  0.17420635  0.12840159  1
  Ba  Ba5  1  0.83176276  0.67664279  0.62515213  1
  Ba  Ba6  1  0.33811016  0.84380222  0.62554363  1
  Ba  Ba7  1  0.33352135  0.84099117  0.12392916  1
  Ba  Ba8  1  0.66857585  0.83837762  0.12193683  1
  Ba  Ba9  1  0.50111127  0.32534898  0.87554391  1
  Ba  Ba10  1  0.33401668  0.16159597  0.87148434  1
  Ba  Ba11  1  0.66400830  0.83794506  0.62624714  1
  Ba  Ba12  1  0.49759434  0.34191307  0.62664066  1
  Ba  Ba13  1  0.33286220  0.51638470  0.12721473  1
  Ba  Ba14  1  0.49551615  0.67485990  0.62229857  1
  Ba  Ba15  1  -0.00001359  0.49583107  0.87579719  1
  Ba  Ba16  1  0.16468635  0.32271506  0.37678400  1
  Ba  Ba17  1  0.66541098  0.49058347  0.37528993  1
  Ba  Ba18  1  0.00485315  0.16090090  0.87845084  1
  Ba  Ba19  1  0.33580880  0.17540764  0.62561192  1
  Ba  Ba20  1  0.33284893  0.49218960  0.87531067  1
  Ba  Ba21  1  0.83114895  0.66343933  0.87664508  1
  Ba  Ba22  1  0.00276312  0.82511339  0.87100934  1
  Ba  Ba23  1  0.50355036  0.98775399  0.37878851  1
  Ba  Ba24  1  0.83564407  0.32220498  0.37525909  1
  Ba  Ba25  1  0.83388850  0.98692415  0.37192883  1
  Ba  Ba26  1  0.66343200  0.81718563  0.87086045  1
  Ba  Ba27  1  0.16539817  0.67489779  0.11970864  1
  Ba  Ba28  1  0.17056350  0.00643738  0.62716513  1
  Ba  Ba29  1  0.49961833  0.00915374  0.62513693  1
  Ba  Ba30  1  0.66551410  0.51378265  0.12825769  1
  Ba  Ba31  1  0.16699045  0.33936848  0.62846943  1
  Ba  Ba32  1  0.49919402  0.65731516  0.86819680  1
  Ba  Ba33  1  1.00025448  0.83869348  0.11824169  1
  Ba  Ba34  1  0.83260974  0.67677517  0.12497215  1
  Ba  Ba35  1  0.33194928  0.82672546  0.37669594  1
  La  La36  1  0.66504511  0.15278824  0.37801401  1
  La  La37  1  0.17275682  0.98542355  0.87248266  1
  La  La38  1  0.33282807  0.14798314  0.38240607  1
  La  La39  1  0.66765960  0.52250512  0.62598278  1
  La  La40  1  0.17206476  0.98988733  0.37890403  1
  La  La41  1  -0.00397785  0.81952683  0.37102206  1
  La  La42  1  0.83569581  0.32260119  0.87864588  1
  La  La43  1  0.66083324  0.81364111  0.37754006  1
  La  La44  1  0.67576882  0.17990086  0.12497899  1
  La  La45  1  0.82463883  0.35119370  0.62760208  1
  La  La46  1  0.33195317  0.49222220  0.37493935  1
  La  La47  1  1.00615369  0.84929223  0.62493438  1
  La  La48  1  0.83021128  0.01016827  0.62190667  1
  La  La49  1  1.00456323  0.51718781  0.12608186  1
  La  La50  1  0.49267297  0.35205828  0.12671452  1
  La  La51  1  0.15944398  0.00675992  0.12209687  1
  La  La52  1  0.17246302  0.65447556  0.37175725  1
  La  La53  1  -0.00626214  0.14701454  0.38386992  1
  La  La54  1  0.65913633  0.49213029  0.87550175  1
  La  La55  1  0.83907397  0.98297032  0.87037285  1
  La  La56  1  0.66888170  0.17678893  0.62696973  1
  La  La57  1  -0.00568030  0.48686866  0.37802173  1
  La  La58  1  0.65814866  0.14990618  0.87273787  1
  La  La59  1  0.33373406  0.18118366  0.12599067  1
  La  La60  1  0.50229180  0.98156815  0.87154597  1
  La  La61  1  1.00277959  0.51369181  0.62557626  1
  La  La62  1  0.82793285  0.00582176  0.12065582  1
  La  La63  1  0.49041527  0.68350442  0.12064510  1
  La  La64  1  0.83040426  0.34977924  0.12259561  1
  La  La65  1  0.17849919  0.65126917  0.87395713  1
  La  La66  1  0.50838055  0.31371853  0.37504603  1
  La  La67  1  0.83310297  0.65289035  0.37574986  1
  La  La68  1  0.49863488  0.01177171  0.12296322  1
  La  La69  1  0.49738835  0.66319728  0.36962107  1
  La  La70  1  0.17059349  0.32407722  0.87116439  1
  La  La71  1  0.33733198  0.51201339  0.62780749  1
  In  In72  1  -0.00095977  0.33389906  0.00185202  1
  In  In73  1  0.83202955  0.16924213  0.75243903  1
  In  In74  1  0.33263424  0.00211507  0.00082597  1
  In  In75  1  0.83138085  0.16342832  -0.00257750  1
  In  In76  1  0.49961542  0.50091833  0.49929581  1
  In  In77  1  0.16529634  0.49995970  0.50006470  1
  In  In78  1  0.33622808  0.33525637  0.49866362  1
  In  In79  1  0.16460041  0.49756898  0.00135622  1
  In  In80  1  0.33162729  0.00078444  0.24850009  1
  In  In81  1  0.83081190  0.83406058  -0.00078426  1
  In  In82  1  -0.00056757  0.66930544  0.49931673  1
  In  In83  1  0.83462617  0.50153958  0.24966648  1
  In  In84  1  0.00162368  0.66806804  -0.00719913  1
  In  In85  1  0.50490159  0.16740630  0.00233344  1
  In  In86  1  0.16500315  0.83230721  0.24949784  1
  In  In87  1  0.83018329  0.50108909  -0.00217807  1
  In  In88  1  0.49873711  0.50352660  -0.00009517  1
  In  In89  1  0.16756050  0.16479340  0.75023979  1
  In  In90  1  0.66759422  -0.00009476  0.74894827  1
  In  In91  1  0.49866775  0.50292390  0.25260517  1
  In  In92  1  0.16879712  0.82998455  0.74658945  1
  In  In93  1  0.66737228  0.33071083  0.24920481  1
  In  In94  1  0.50318886  0.83727322  0.24848274  1
  In  In95  1  0.83140755  0.50199188  0.75191268  1
  In  In96  1  -0.00077781  -0.00366253  0.24700542  1
  In  In97  1  0.66842568  -0.00558507  0.49772981  1
  In  In98  1  0.83559916  0.83204685  0.74386192  1
  In  In99  1  0.83572603  0.16608360  0.25073524  1
  In  In100  1  -0.00450710  0.33329930  0.50663551  1
  In  In101  1  0.66679888  0.33388166  0.50227619  1
  In  In102  1  0.16775282  0.16404935  0.25498655  1
  In  In103  1  0.50475296  0.16403322  0.24582915  1
  In  In104  1  0.16528765  0.16660076  0.50018896  1
  In  In105  1  0.16986498  0.16461817  0.00147308  1
  In  In106  1  0.33723114  0.33362066  0.25729915  1
  In  In107  1  0.33336391  0.33306106  0.00258276  1
  Ir  Ir108  1  0.50201521  0.16645427  0.75192323  1
  Ir  Ir109  1  0.33362780  0.66935088  0.25023157  1
  Ir  Ir110  1  0.50396398  0.83366759  -0.00248188  1
  Ir  Ir111  1  0.83209679  0.50210109  0.50222890  1
  Ir  Ir112  1  0.33580977  -0.00274280  0.50177105  1
  Ir  Ir113  1  0.83300926  0.16352727  0.50369936  1
  Ir  Ir114  1  0.33955055  0.00004059  0.75119657  1
  Ir  Ir115  1  0.83532655  0.83217956  0.49476624  1
  Ir  Ir116  1  0.66776611  0.33495129  0.74995974  1
  Ir  Ir117  1  0.33308954  0.67186787  -0.00143436  1
  Ir  Ir118  1  0.50189592  0.16382215  0.50006468  1
  Ir  Ir119  1  0.16836349  0.83454836  -0.00387882  1
  Ir  Ir120  1  -0.00081761  0.33576824  0.25407813  1
  Ir  Ir121  1  0.49895079  0.83104714  0.74911646  1
  Ir  Ir122  1  0.16622993  0.49962413  0.74674616  1
  Ir  Ir123  1  -0.00291825  -0.00459607  0.50165998  1
  Ir  Ir124  1  0.83007710  0.83169328  0.25416701  1
  Ir  Ir125  1  0.66137365  0.66629170  0.00008968  1
  Ir  Ir126  1  0.16099692  0.50413192  0.25408984  1
  Ir  Ir127  1  -0.00163287  -0.00195068  -0.00552850  1
  Ir  Ir128  1  0.49878197  0.82792166  0.49961492  1
  Ir  Ir129  1  -0.00312875  0.33728302  0.75292158  1
  Ir  Ir130  1  0.66771669  0.33262497  -0.00031279  1
  Ir  Ir131  1  0.33453691  0.33619408  0.75019190  1
  Ir  Ir132  1  0.00027238  0.66734893  0.25524672  1
  Ir  Ir133  1  0.66935866  0.66824240  0.49787943  1
  Ir  Ir134  1  0.66705595  0.67013020  0.25164709  1
  Ir  Ir135  1  0.00403008  0.66490622  0.74570537  1
  Ir  Ir136  1  0.50289290  0.49736678  0.74827894  1
  Ir  Ir137  1  0.66355711  0.66540221  0.74836948  1
  Ir  Ir138  1  0.16121941  0.83767514  0.49885115  1
  Ir  Ir139  1  -0.00123118  -0.00091410  0.75187470  1
  Ir  Ir140  1  0.66396722  -0.00142747  0.00021708  1
  Ir  Ir141  1  0.33218644  0.66943811  0.49539144  1
  Ir  Ir142  1  0.33279967  0.66177472  0.74852634  1
  Ir  Ir143  1  0.66695361  -0.00363991  0.24670733  1
  O  O144  1  0.31532023  0.32021315  0.13217279  1
  O  O145  1  0.31844754  0.33693042  0.63042088  1
  O  O146  1  0.31432593  0.67764933  0.12391403  1
  O  O147  1  0.31193230  0.65155175  0.62260589  1
  O  O148  1  0.29580338  0.99518754  0.12452532  1
  O  O149  1  0.31940924  1.00046683  0.62688673  1
  O  O150  1  0.63054644  0.31919140  0.11737484  1
  O  O151  1  0.64573358  0.31601228  0.63049208  1
  O  O152  1  0.63187862  0.67032814  0.12533932  1
  O  O153  1  0.64472216  0.66064356  0.62302736  1
  O  O154  1  0.63394780  0.98889638  0.12250953  1
  O  O155  1  0.65152025  0.99838177  0.62262463  1
  O  O156  1  0.96732093  0.32936866  0.13581000  1
  O  O157  1  0.96069668  0.33271650  0.63469200  1
  O  O158  1  0.98213831  0.65805172  0.13488957  1
  O  O159  1  0.97950112  0.65582707  0.62688613  1
  O  O160  1  0.96466053  0.99435873  0.11436757  1
  O  O161  1  0.96520408  0.98918350  0.62756242  1
  O  O162  1  0.20090494  0.14841833  0.12923620  1
  O  O163  1  0.18317414  0.16343060  0.62615942  1
  O  O164  1  0.18244109  0.50278228  0.13480684  1
  O  O165  1  0.19803760  0.49660102  0.62859299  1
  O  O166  1  0.18410701  0.83081330  0.11691268  1
  O  O167  1  0.18611963  0.83415496  0.61770609  1
  O  O168  1  0.54431756  0.14591095  0.12253526  1
  O  O169  1  0.53231779  0.16452917  0.62512677  1
  O  O170  1  0.51831171  0.49132777  0.12622308  1
  O  O171  1  0.53151986  0.49923695  0.62890903  1
  O  O172  1  0.51920510  0.82129565  0.11867688  1
  O  O173  1  0.51620699  0.82980591  0.62350222  1
  O  O174  1  0.85088774  0.14179857  0.12288892  1
  O  O175  1  0.85410095  0.15000274  0.62373975  1
  O  O176  1  0.86640797  0.49289678  0.12536247  1
  O  O177  1  0.86154026  0.49478976  0.62289231  1
  O  O178  1  0.84747822  0.83673449  0.13290337  1
  O  O179  1  0.86809758  0.83023050  0.61467940  1
  O  O180  1  0.12661016  0.16082255  0.37812247  1
  O  O181  1  0.15526237  0.18630021  0.87330213  1
  O  O182  1  0.12995211  0.51453531  0.37106143  1
  O  O183  1  0.14938638  0.50932076  0.86671907  1
  O  O184  1  0.13163041  0.84693126  0.38068753  1
  O  O185  1  0.15206686  0.84527053  0.87406317  1
  O  O186  1  0.47520784  0.16956222  0.37906203  1
  O  O187  1  0.48462180  0.16928859  0.87185663  1
  O  O188  1  0.47029508  0.52534899  0.37617983  1
  O  O189  1  0.48572686  0.49889097  0.86835255  1
  O  O190  1  0.48476728  0.82545131  0.37984525  1
  O  O191  1  0.48181684  0.84303501  0.87352338  1
  O  O192  1  0.80178945  0.16778387  0.38236834  1
  O  O193  1  0.79303666  0.18120057  0.87570539  1
  O  O194  1  0.81363768  0.50941642  0.38095760  1
  O  O195  1  0.79462156  0.50353083  0.87341222  1
  O  O196  1  0.79960774  0.83328740  0.37552496  1
  O  O197  1  0.81371185  0.84535501  0.87095931  1
  O  O198  1  0.02789446  0.00034842  0.38214793  1
  O  O199  1  0.03315667  0.00070469  0.87246280  1
  O  O200  1  0.01721574  0.35094531  0.37475477  1
  O  O201  1  0.03296587  0.34351200  0.86943878  1
  O  O202  1  0.03185104  0.67932393  0.37319210  1
  O  O203  1  0.03860653  0.66700668  0.86209289  1
  O  O204  1  0.35673432  0.00126630  0.38289850  1
  O  O205  1  0.36652381  0.00099994  0.87093360  1
  O  O206  1  0.37798619  0.35386651  0.37861654  1
  O  O207  1  0.34864302  0.33277456  0.86938205  1
  O  O208  1  0.36234259  0.67060913  0.37320599  1
  O  O209  1  0.35177674  0.66279124  0.87412355  1
  O  O210  1  0.68617552  0.01271036  0.36857228  1
  O  O211  1  0.69837905  0.00888163  0.88050397  1
  O  O212  1  0.68688906  0.32617662  0.37792661  1
  O  O213  1  0.69916533  0.34946029  0.87534891  1
  O  O214  1  0.69842311  0.67594616  0.37490647  1
  O  O215  1  0.68361404  0.65736417  0.87434299  1
  O  O216  1  0.07100897  0.08283497  0.01977689  1
  O  O217  1  0.06341141  0.08575740  0.51761865  1
  O  O218  1  0.06142675  0.43493113  0.02877913  1
  O  O219  1  0.06092145  0.43643745  0.52000046  1
  O  O220  1  0.08124919  0.76339459  0.00743514  1
  O  O221  1  0.06527467  0.77340559  0.51884068  1
  O  O222  1  0.40814613  0.09419414  0.03441481  1
  O  O223  1  0.40615396  0.09377390  0.51508030  1
  O  O224  1  0.40925805  0.42556439  0.01881486  1
  O  O225  1  0.39956469  0.43937579  0.52705465  1
  O  O226  1  0.41092103  0.76172079  0.01785572  1
  O  O227  1  0.40337035  0.75997904  0.51619190  1
  O  O228  1  0.72702195  0.09188133  0.02455615  1
  O  O229  1  0.74053774  0.09753057  0.52441263  1
  O  O230  1  0.73649317  0.42010342  0.02750859  1
  O  O231  1  0.73900396  0.43413589  0.53120581  1
  O  O232  1  0.73484237  0.75472030  0.00961934  1
  O  O233  1  0.73594948  0.76740803  0.50951311  1
  O  O234  1  0.09386438  0.25917002  0.01570877  1
  O  O235  1  0.08971904  0.26152263  0.51757705  1
  O  O236  1  0.09109509  0.59149070  0.01229236  1
  O  O237  1  0.09113784  0.59399326  0.51459094  1
  O  O238  1  0.09964512  0.93165911  0.01530678  1
  O  O239  1  0.08857532  0.92628005  0.52801520  1
  O  O240  1  0.43944697  0.26480592  0.02973392  1
  O  O241  1  0.43561958  0.25591197  0.51156902  1
  O  O242  1  0.42706705  0.60520287  0.02026862  1
  O  O243  1  0.41940784  0.59854732  0.51409942  1
  O  O244  1  0.44048158  0.93051676  0.01569953  1
  O  O245  1  0.42985915  0.92222489  0.51849271  1
  O  O246  1  0.75867866  0.26541594  0.02878244  1
  O  O247  1  0.76720394  0.25650981  0.53283136  1
  O  O248  1  0.74996650  0.59666875  0.01918667  1
  O  O249  1  0.76389733  0.59786440  0.51618618  1
  O  O250  1  0.76081347  0.93625888  0.01931977  1
  O  O251  1  0.77342849  0.92767607  0.51973191  1
  O  O252  1  0.24315910  0.07332701  0.29549631  1
  O  O253  1  0.24597040  0.06672223  0.77285034  1
  O  O254  1  0.23466511  0.41923822  0.27704785  1
  O  O255  1  0.23697719  0.40548909  0.77370667  1
  O  O256  1  0.23626179  0.73214970  0.27315493  1
  O  O257  1  0.23922525  0.73038734  0.76956194  1
  O  O258  1  0.57321029  0.05836694  0.26166828  1
  O  O259  1  0.56936175  0.07428081  0.77721493  1
  O  O260  1  0.56626148  0.39903472  0.27232177  1
  O  O261  1  0.57946372  0.40902393  0.77408815  1
  O  O262  1  0.57444469  0.73792831  0.27327189  1
  O  O263  1  0.57137545  0.73956978  0.76198740  1
  O  O264  1  0.91563792  0.07892987  0.27745793  1
  O  O265  1  0.90341812  0.06680532  0.77177774  1
  O  O266  1  0.91271096  0.40846471  0.27236223  1
  O  O267  1  0.90135956  0.40150956  0.77452326  1
  O  O268  1  0.90108835  0.73531956  0.28125534  1
  O  O269  1  0.91595442  0.73713657  0.76437239  1
  O  O270  1  0.27114205  0.23256568  0.28041608  1
  O  O271  1  0.25829302  0.25235904  0.76415040  1
  O  O272  1  0.25873932  0.57424209  0.28008753  1
  O  O273  1  0.25780607  0.57271965  0.77001257  1
  O  O274  1  0.25231405  0.91093823  0.27586595  1
  O  O275  1  0.26207720  0.91409895  0.76604623  1
  O  O276  1  0.60854579  0.22318458  0.27244729  1
  O  O277  1  0.60286867  0.23370597  0.77188196  1
  O  O278  1  0.59478727  0.58329498  0.27318305  1
  O  O279  1  0.60013520  0.56366347  0.76512841  1
  O  O280  1  0.60780947  0.90019226  0.27358333  1
  O  O281  1  0.58633275  0.90705291  0.76754852  1
  O  O282  1  0.93762772  0.23967915  0.27938337  1
  O  O283  1  0.92444946  0.24927018  0.77903207  1
  O  O284  1  0.93208026  0.57632758  0.28117389  1
  O  O285  1  0.93138051  0.57549114  0.76130537  1
  O  O286  1  0.92574464  0.89505574  0.27395043  1
  O  O287  1  0.92867542  0.91196021  0.76692751  1
  O  O288  1  0.26801181  0.23494693  0.47430087  1
  O  O289  1  0.27405193  0.22852361  0.99822874  1
  O  O290  1  0.26052174  0.58221235  0.46846308  1
  O  O291  1  0.25808544  0.58425791  0.98326373  1
  O  O292  1  0.25282392  0.91229846  0.47632731  1
  O  O293  1  0.25682398  0.90388525  0.97904766  1
  O  O294  1  0.59498934  0.22985297  0.47855886  1
  O  O295  1  0.60958228  0.23530891  0.97453362  1
  O  O296  1  0.60157688  0.57474595  0.48954138  1
  O  O297  1  0.59680476  0.57291301  0.97927761  1
  O  O298  1  0.59587431  0.89348096  0.47875222  1
  O  O299  1  0.59504049  0.90662953  0.97386587  1
  O  O300  1  0.92539290  0.22934183  0.47979027  1
  O  O301  1  0.91965946  0.24297542  0.97816548  1
  O  O302  1  0.92484271  0.56987001  0.47673838  1
  O  O303  1  0.92279425  0.57672134  0.98537536  1
  O  O304  1  0.93338673  0.89492231  0.47645717  1
  O  O305  1  0.92481260  0.91455047  0.97298422  1
  O  O306  1  0.24473041  0.06776657  0.47871224  1
  O  O307  1  0.23079455  0.06195108  0.96945980  1
  O  O308  1  0.24548937  0.41601707  0.47084407  1
  O  O309  1  0.23098001  0.39999500  0.97748857  1
  O  O310  1  0.23045491  0.74110635  0.47172443  1
  O  O311  1  0.23488094  0.73871650  0.97246484  1
  O  O312  1  0.57582960  0.07804691  0.48084436  1
  O  O313  1  0.57163542  0.06254534  0.97168121  1
  O  O314  1  0.56566776  0.39992770  0.47489949  1
  O  O315  1  0.58296479  0.40708513  0.98022281  1
  O  O316  1  0.57122695  0.73321700  0.47288109  1
  O  O317  1  0.56781438  0.73495319  0.98325929  1
  O  O318  1  0.90406923  0.06833411  0.48030252  1
  O  O319  1  0.90296656  0.06262790  0.97050053  1
  O  O320  1  0.89722128  0.40942122  0.48741214  1
  O  O321  1  0.89452206  0.39769034  0.97909355  1
  O  O322  1  0.90020071  0.73874293  0.46766192  1
  O  O323  1  0.91237088  0.74730272  0.98862720  1
  O  O324  1  0.08971782  0.26666099  0.23774362  1
  O  O325  1  0.08470241  0.26632580  0.73740889  1
  O  O326  1  0.09102344  0.59718926  0.23093367  1
  O  O327  1  0.09171139  0.58687540  0.71812426  1
  O  O328  1  0.09281986  0.92572919  0.22101211  1
  O  O329  1  0.08593355  0.92398127  0.73182569  1
  O  O330  1  0.44666446  0.27079363  0.23238916  1
  O  O331  1  0.42674686  0.26220963  0.73293767  1
  O  O332  1  0.43034535  0.60868560  0.22873125  1
  O  O333  1  0.42402242  0.58353534  0.72339690  1
  O  O334  1  0.43452553  0.93376905  0.22511261  1
  O  O335  1  0.43275831  0.92765676  0.73765646  1
  O  O336  1  0.76669050  0.25979905  0.21531329  1
  O  O337  1  0.76227235  0.27162937  0.72713810  1
  O  O338  1  0.76027214  0.60118102  0.24102825  1
  O  O339  1  0.74980827  0.59200861  0.72650557  1
  O  O340  1  0.76699333  0.93239617  0.22831845  1
  O  O341  1  0.77120977  0.93688622  0.72902860  1
  O  O342  1  0.08169054  0.08260855  0.22326859  1
  O  O343  1  0.07069746  0.08528981  0.73821464  1
  O  O344  1  0.06283076  0.43922823  0.23273211  1
  O  O345  1  0.06782730  0.43203008  0.72228459  1
  O  O346  1  0.06432702  0.76053020  0.23916123  1
  O  O347  1  0.06886935  0.75948231  0.72156067  1
  O  O348  1  0.40289247  0.10018244  0.22570658  1
  O  O349  1  0.41052220  0.09464193  0.73156642  1
  O  O350  1  0.39836493  0.43748064  0.23770687  1
  O  O351  1  0.40484395  0.43241259  0.72852518  1
  O  O352  1  0.40825888  0.75714529  0.23380155  1
  O  O353  1  0.40482214  0.75389738  0.73257099  1
  O  O354  1  0.73206310  0.08925534  0.22497855  1
  O  O355  1  0.72847647  0.10650721  0.73292286  1
  O  O356  1  0.74621793  0.42134840  0.22730540  1
  O  O357  1  0.73275876  0.42715192  0.71813787  1
  O  O358  1  0.73446523  0.76509095  0.23937032  1
  O  O359  1  0.73804456  0.75458377  0.73494036  1
