# generated using pymatgen
data_BaLaInIrO6
_symmetry_space_group_name_H-M   'P 1'
_cell_length_a   17.52704570
_cell_length_b   17.54846094
_cell_length_c   16.49633523
_cell_angle_alpha   90.03463654
_cell_angle_beta   89.98202198
_cell_angle_gamma   89.97183330
_symmetry_Int_Tables_number   1
_chemical_formula_structural   BaLaInIrO6
_chemical_formula_sum   'Ba36 La36 In36 Ir36 O216'
_cell_volume   5073.82019264
_cell_formula_units_Z   36
loop_
 _symmetry_equiv_pos_site_id
 _symmetry_equiv_pos_as_xyz
  1  'x, y, z'
loop_
 _atom_site_type_symbol
 _atom_site_label
 _atom_site_symmetry_multiplicity
 _atom_site_fract_x
 _atom_site_fract_y
 _atom_site_fract_z
 _atom_site_occupancy
  Ba  Ba0  1  0.16569442  0.65873819  0.37552772  1
  Ba  Ba1  1  0.16994504  0.32523833  0.37641760  1
  Ba  Ba2  1  0.33223729  0.82573152  0.86851516  1
  Ba  Ba3  1  0.83489350  0.33792987  0.62578459  1
  Ba  Ba4  1  0.50828818  0.65518470  0.37545776  1
  Ba  Ba5  1  0.83189602  0.67712329  0.12097754  1
  Ba  Ba6  1  0.67058098  0.82578541  0.37614672  1
  Ba  Ba7  1  0.99956122  0.83937107  0.62522361  1
  Ba  Ba8  1  0.16339964  0.01030313  0.12257457  1
  Ba  Ba9  1  -0.00020894  0.15891224  0.37942895  1
  Ba  Ba10  1  0.16619117  0.00771085  0.62715915  1
  Ba  Ba11  1  0.66257538  0.15918097  0.87095643  1
  Ba  Ba12  1  0.83506066  0.99270470  0.37807059  1
  Ba  Ba13  1  0.67120944  0.50724798  0.62620009  1
  Ba  Ba14  1  0.49822419  0.01044487  0.62585709  1
  Ba  Ba15  1  0.33492301  0.50584971  0.62629936  1
  Ba  Ba16  1  0.16406562  0.99375169  0.87192970  1
  Ba  Ba17  1  0.99848076  0.17150011  0.62512646  1
  Ba  Ba18  1  0.83512501  0.65627500  0.87368897  1
  Ba  Ba19  1  0.16536725  0.99116414  0.37504529  1
  Ba  Ba20  1  0.66667095  0.84952045  0.62535201  1
  Ba  Ba21  1  0.49920162  0.34340230  0.12219470  1
  Ba  Ba22  1  0.50085609  0.32542828  0.37747646  1
  Ba  Ba23  1  0.66790448  0.48809597  0.37350656  1
  Ba  Ba24  1  0.99808305  0.83982187  0.12341160  1
  Ba  Ba25  1  0.83724406  0.66248182  0.37297888  1
  Ba  Ba26  1  0.50311233  0.65943619  0.87333408  1
  Ba  Ba27  1  1.00065332  0.50914662  0.12307934  1
  Ba  Ba28  1  0.66896393  0.84027556  0.12375959  1
  Ba  Ba29  1  0.66911554  0.50414397  0.12688074  1
  Ba  Ba30  1  0.82779979  0.00894570  0.62447040  1
  Ba  Ba31  1  0.83489196  0.32855925  0.37521218  1
  Ba  Ba32  1  0.82735082  0.00931722  0.12947730  1
  Ba  Ba33  1  0.33291778  0.49065599  0.37632530  1
  Ba  Ba34  1  -0.00687115  0.15601758  0.87428514  1
  Ba  Ba35  1  0.33451443  0.16060907  0.87456858  1
  La  La36  1  0.50716599  0.98459021  0.87381246  1
  La  La37  1  1.00454968  0.51246220  0.62427095  1
  La  La38  1  -0.00443266  0.81858598  0.87211848  1
  La  La39  1  -0.00718920  0.47924716  0.37397405  1
  La  La40  1  0.33870690  0.84910665  0.62112232  1
  La  La41  1  0.16199574  0.68047164  0.12169646  1
  La  La42  1  0.50315137  0.98794500  0.37493295  1
  La  La43  1  0.33921569  0.51846501  0.12939426  1
  La  La44  1  0.32660512  0.48243170  0.87578435  1
  La  La45  1  0.66740960  0.48390382  0.87936501  1
  La  La46  1  0.33500986  0.18093593  0.12472318  1
  La  La47  1  0.32689150  0.16072887  0.37494747  1
  La  La48  1  0.49938249  0.34347476  0.62519201  1
  La  La49  1  0.16316611  0.67648408  0.62879487  1
  La  La50  1  0.49435775  0.01621405  0.12551810  1
  La  La51  1  0.49969569  0.68416562  0.62035054  1
  La  La52  1  0.16169228  0.34600871  0.62658870  1
  La  La53  1  0.67179323  0.17513544  0.62221831  1
  La  La54  1  0.83851387  0.31948425  0.87286698  1
  La  La55  1  0.66454916  0.82105276  0.87454337  1
  La  La56  1  0.16798976  0.31771401  0.87734509  1
  La  La57  1  0.66869889  0.18623238  0.12715238  1
  La  La58  1  0.33736053  0.84890512  0.12067737  1
  La  La59  1  0.32890188  0.81566677  0.37138131  1
  La  La60  1  0.66415155  0.15691783  0.37335772  1
  La  La61  1  0.16194526  0.34913132  0.13006902  1
  La  La62  1  -0.00679583  0.83165193  0.36629475  1
  La  La63  1  0.16627839  0.65948056  0.87186275  1
  La  La64  1  -0.00309781  0.48548158  0.87327119  1
  La  La65  1  0.33510551  0.18091173  0.62959935  1
  La  La66  1  0.83244374  0.34075774  0.12643223  1
  La  La67  1  0.82908341  0.68536722  0.62767879  1
  La  La68  1  0.50280903  0.32335599  0.87192155  1
  La  La69  1  1.00059928  0.17258894  0.13621244  1
  La  La70  1  0.49828099  0.68277217  0.12858706  1
  La  La71  1  0.83526256  0.98219559  0.87184577  1
  In  In72  1  0.50062644  0.16719362  -0.00103657  1
  In  In73  1  0.50096090  0.83207729  0.75067799  1
  In  In74  1  0.00135494  0.66649996  0.50224260  1
  In  In75  1  0.83673923  0.49984142  0.24915205  1
  In  In76  1  0.16632611  0.83318430  -0.00304638  1
  In  In77  1  0.33527721  0.00332429  0.75101971  1
  In  In78  1  0.33215186  0.00085341  0.25144385  1
  In  In79  1  0.16597239  0.49974374  0.49914746  1
  In  In80  1  0.83110626  0.83530135  0.24688221  1
  In  In81  1  0.66841183  0.33439135  0.74964324  1
  In  In82  1  0.66477631  0.00169688  0.00142841  1
  In  In83  1  0.50282393  0.50011307  0.50339545  1
  In  In84  1  0.33378837  0.66654747  0.50126947  1
  In  In85  1  0.33286917  0.00306684  -0.00115494  1
  In  In86  1  0.00121708  0.33097643  0.00083164  1
  In  In87  1  0.16346794  0.16792763  0.75018049  1
  In  In88  1  0.00104891  -0.00179409  0.50236440  1
  In  In89  1  0.16604147  0.83197964  0.74836507  1
  In  In90  1  0.49802035  0.16832486  0.25140474  1
  In  In91  1  0.66719296  0.66538599  0.24793135  1
  In  In92  1  0.50032241  0.50311665  0.75357925  1
  In  In93  1  0.00420787  0.66549028  0.25048738  1
  In  In94  1  0.83044114  0.16470521  0.00073774  1
  In  In95  1  0.66945870  0.66505340  0.50232185  1
  In  In96  1  0.66620351  0.66208985  -0.00210210  1
  In  In97  1  0.33319243  0.33173737  0.50296499  1
  In  In98  1  0.83727003  0.50077588  0.50434014  1
  In  In99  1  0.49915915  0.83548688  0.49559108  1
  In  In100  1  0.33319019  0.33589029  0.24776318  1
  In  In101  1  -0.00440957  0.00080215  -0.00000619  1
  In  In102  1  0.00079248  0.00185859  0.24936628  1
  In  In103  1  0.33331113  0.66671612  -0.00330234  1
  In  In104  1  0.49672750  0.50093852  -0.00163513  1
  In  In105  1  0.16874893  0.83285776  0.49853260  1
  In  In106  1  0.83227732  0.16732659  0.49705762  1
  In  In107  1  0.16732445  0.50119211  -0.00048526  1
  Ir  Ir108  1  0.33764799  0.00655346  0.49657180  1
  Ir  Ir109  1  0.83764089  0.50018328  0.75354894  1
  Ir  Ir110  1  0.17286751  0.16637173  0.49940554  1
  Ir  Ir111  1  0.66407348  0.32655248  0.49865637  1
  Ir  Ir112  1  0.17116841  0.82970553  0.24873723  1
  Ir  Ir113  1  0.00181312  0.32866342  0.25008325  1
  Ir  Ir114  1  0.83086712  0.83376006  0.75060578  1
  Ir  Ir115  1  0.83452084  0.49620153  -0.00640234  1
  Ir  Ir116  1  0.50065850  0.17014793  0.74599684  1
  Ir  Ir117  1  0.83046772  0.16693793  0.74987465  1
  Ir  Ir118  1  0.16709433  0.17242217  0.00599425  1
  Ir  Ir119  1  0.50174315  0.83536680  0.00213008  1
  Ir  Ir120  1  0.66812187  0.00342858  0.75110860  1
  Ir  Ir121  1  0.49614966  0.83641048  0.24559891  1
  Ir  Ir122  1  0.66715157  0.33113056  0.24952308  1
  Ir  Ir123  1  0.00090161  0.33728524  0.74870075  1
  Ir  Ir124  1  0.83007305  0.16988014  0.24880094  1
  Ir  Ir125  1  0.16825425  0.50022635  0.24745021  1
  Ir  Ir126  1  0.67001608  0.33508534  -0.00028177  1
  Ir  Ir127  1  0.83243965  0.83339467  0.50400039  1
  Ir  Ir128  1  -0.00562614  -0.00082800  0.75181976  1
  Ir  Ir129  1  0.67104459  0.66528753  0.75117752  1
  Ir  Ir130  1  0.00067766  0.66608647  -0.00274833  1
  Ir  Ir131  1  0.32847893  0.33298764  -0.00101292  1
  Ir  Ir132  1  0.66254211  0.00454892  0.49734775  1
  Ir  Ir133  1  0.33079475  0.66288806  0.74770588  1
  Ir  Ir134  1  0.65826637  0.00227794  0.25315165  1
  Ir  Ir135  1  0.83257312  0.83265241  -0.00745301  1
  Ir  Ir136  1  -0.00158447  0.66183266  0.75170566  1
  Ir  Ir137  1  0.49990689  0.49941418  0.24679109  1
  Ir  Ir138  1  0.16917697  0.16923905  0.25037841  1
  Ir  Ir139  1  0.49864410  0.16564338  0.50383622  1
  Ir  Ir140  1  0.00401847  0.33146968  0.50412308  1
  Ir  Ir141  1  0.33206931  0.66732036  0.24573962  1
  Ir  Ir142  1  0.33096890  0.33330499  0.75467739  1
  Ir  Ir143  1  0.16404272  0.49999470  0.75427713  1
  O  O144  1  0.29712972  0.32396873  0.11802465  1
  O  O145  1  0.29944122  0.32151575  0.63523751  1
  O  O146  1  0.29946925  0.65725726  0.12751649  1
  O  O147  1  0.29868939  0.65967556  0.63186250  1
  O  O148  1  0.31230425  0.98395797  0.12592019  1
  O  O149  1  0.31807244  0.99079163  0.61530308  1
  O  O150  1  0.64521281  0.32738557  0.12553598  1
  O  O151  1  0.63820343  0.32029475  0.62062431  1
  O  O152  1  0.63411431  0.66350479  0.12149839  1
  O  O153  1  0.63803690  0.66080875  0.63518759  1
  O  O154  1  0.63066171  0.99486454  0.13245989  1
  O  O155  1  0.64554782  1.00578915  0.62429179  1
  O  O156  1  0.97225658  0.31794089  0.12978936  1
  O  O157  1  0.98214856  0.32736848  0.62652767  1
  O  O158  1  0.98100866  0.66314187  0.11606768  1
  O  O159  1  0.96442365  0.65039844  0.63483173  1
  O  O160  1  0.98031170  1.01690984  0.12555393  1
  O  O161  1  0.97843788  1.00032211  0.63332368  1
  O  O162  1  0.19887178  0.16695005  0.12862691  1
  O  O163  1  0.19736727  0.16736204  0.61967496  1
  O  O164  1  0.20030346  0.49030039  0.12705050  1
  O  O165  1  0.18568875  0.48421850  0.63731020  1
  O  O166  1  0.20315602  0.82025989  0.12857612  1
  O  O167  1  0.20513278  0.81970232  0.62583870  1
  O  O168  1  0.53618328  0.15521541  0.12464711  1
  O  O169  1  0.53442515  0.16442599  0.62391886  1
  O  O170  1  0.51739356  0.49748833  0.12728443  1
  O  O171  1  0.52238471  0.47859421  0.63237991  1
  O  O172  1  0.52148203  0.82334300  0.12331757  1
  O  O173  1  0.51566851  0.82787749  0.62534334  1
  O  O174  1  0.86214834  0.17076341  0.12986173  1
  O  O175  1  0.84502829  0.16644275  0.63041249  1
  O  O176  1  0.85393425  0.47899680  0.11427549  1
  O  O177  1  0.86820344  0.49329390  0.63531540  1
  O  O178  1  0.84785206  0.83902082  0.11197917  1
  O  O179  1  0.85147002  0.83608222  0.62867896  1
  O  O180  1  0.14794363  0.17065743  0.37427474  1
  O  O181  1  0.14327609  0.18131587  0.88449452  1
  O  O182  1  0.13153313  0.50180695  0.36802027  1
  O  O183  1  0.13332371  0.51649486  0.87220705  1
  O  O184  1  0.13435671  0.83222789  0.36664822  1
  O  O185  1  0.13348686  0.82253844  0.87157676  1
  O  O186  1  0.46601517  0.16994243  0.38412490  1
  O  O187  1  0.48289020  0.18450688  0.86867187  1
  O  O188  1  0.48212525  0.49697277  0.36705907  1
  O  O189  1  0.46033763  0.50324765  0.87494189  1
  O  O190  1  0.46587379  0.84454047  0.36552874  1
  O  O191  1  0.48175770  0.84240925  0.88107976  1
  O  O192  1  0.79961685  0.17192776  0.36831710  1
  O  O193  1  0.81230082  0.17926352  0.86966440  1
  O  O194  1  0.82326777  0.49408857  0.37741161  1
  O  O195  1  0.80411811  0.50296227  0.87288956  1
  O  O196  1  0.82362959  0.82657891  0.38436977  1
  O  O197  1  0.80118287  0.83593013  0.87035942  1
  O  O198  1  0.01524956  -0.00528822  0.37428650  1
  O  O199  1  0.01344631  0.00052481  0.86980233  1
  O  O200  1  0.02401193  0.34229345  0.37832865  1
  O  O201  1  0.03071404  0.34509340  0.86860452  1
  O  O202  1  0.01533381  0.69381282  0.37746988  1
  O  O203  1  0.02954888  0.67397392  0.87450170  1
  O  O204  1  0.36626093  0.02224495  0.37689953  1
  O  O205  1  0.37232413  0.00684334  0.87666019  1
  O  O206  1  0.34851772  0.32636962  0.37486854  1
  O  O207  1  0.36542871  0.34166022  0.87754514  1
  O  O208  1  0.35955942  0.67555235  0.36455170  1
  O  O209  1  0.35430962  0.66789923  0.86589383  1
  O  O210  1  0.68526911  0.01801136  0.37571497  1
  O  O211  1  0.69657234  0.00627630  0.86991245  1
  O  O212  1  0.68666992  0.32329346  0.37530041  1
  O  O213  1  0.70033212  0.33735245  0.87989235  1
  O  O214  1  0.68410122  0.66865290  0.37493620  1
  O  O215  1  0.68802563  0.68220462  0.87015570  1
  O  O216  1  0.07053399  0.11107301  0.02376949  1
  O  O217  1  0.08393974  0.09724190  0.51445077  1
  O  O218  1  0.07644149  0.42374151  0.01820862  1
  O  O219  1  0.07008881  0.42274083  0.52714902  1
  O  O220  1  0.06967622  0.75422804  0.01815561  1
  O  O221  1  0.08539822  0.74810898  0.53278796  1
  O  O222  1  0.40386025  0.09857908  0.03268939  1
  O  O223  1  0.39939064  0.10504762  0.52671582  1
  O  O224  1  0.39020428  0.42937873  0.02077797  1
  O  O225  1  0.41428456  0.41806565  0.52208102  1
  O  O226  1  0.40554961  0.76897021  0.02380056  1
  O  O227  1  0.40089336  0.76783399  0.52429818  1
  O  O228  1  0.72746572  0.10331368  0.02769190  1
  O  O229  1  0.72705690  0.09912429  0.51414875  1
  O  O230  1  0.73929104  0.42839519  0.01185929  1
  O  O231  1  0.73776762  0.41486692  0.51574719  1
  O  O232  1  0.74201402  0.76241195  0.00598333  1
  O  O233  1  0.74382312  0.76421499  0.52510725  1
  O  O234  1  0.10439085  0.26665941  0.02660878  1
  O  O235  1  0.10394044  0.26284806  0.52478607  1
  O  O236  1  0.09571015  0.60152300  0.01910866  1
  O  O237  1  0.09438988  0.58939807  0.53922730  1
  O  O238  1  0.08959165  0.92583466  0.01360178  1
  O  O239  1  0.09589738  0.92493922  0.51867586  1
  O  O240  1  0.41878804  0.26254270  0.01657013  1
  O  O241  1  0.43166331  0.25541359  0.53666494  1
  O  O242  1  0.43009411  0.60085805  0.03069880  1
  O  O243  1  0.43469661  0.60176301  0.52633957  1
  O  O244  1  0.43926223  0.92976464  0.02505826  1
  O  O245  1  0.42843432  0.93864173  0.50724102  1
  O  O246  1  0.76277128  0.26914037  0.02598460  1
  O  O247  1  0.74989118  0.25470655  0.52072211  1
  O  O248  1  0.76469415  0.58519233  0.01338782  1
  O  O249  1  0.77258463  0.60057485  0.53103159  1
  O  O250  1  0.76459651  0.92579811  0.00411984  1
  O  O251  1  0.75712660  0.93237082  0.51068293  1
  O  O252  1  0.24048131  0.08128587  0.27206282  1
  O  O253  1  0.24406085  0.08148773  0.76419511  1
  O  O254  1  0.23406356  0.40796287  0.26232063  1
  O  O255  1  0.23518135  0.40473058  0.78419138  1
  O  O256  1  0.24355228  0.74098456  0.27371031  1
  O  O257  1  0.23388188  0.72416041  0.76960217  1
  O  O258  1  0.56704314  0.06927855  0.27696948  1
  O  O259  1  0.56756124  0.07052912  0.77242209  1
  O  O260  1  0.57171362  0.40391090  0.26675199  1
  O  O261  1  0.57709919  0.40743662  0.78619426  1
  O  O262  1  0.56180938  0.74356025  0.25861181  1
  O  O263  1  0.58257646  0.74075208  0.76805522  1
  O  O264  1  0.90053023  0.08349323  0.26686205  1
  O  O265  1  0.89723742  0.06939600  0.77347757  1
  O  O266  1  0.91565554  0.40242930  0.26368058  1
  O  O267  1  0.90626826  0.40678469  0.78162964  1
  O  O268  1  0.91767015  0.74991253  0.25771069  1
  O  O269  1  0.91019329  0.74353074  0.77334354  1
  O  O270  1  0.26237157  0.23320152  0.26593322  1
  O  O271  1  0.25561989  0.25002174  0.77610461  1
  O  O272  1  0.26562524  0.56839763  0.26439427  1
  O  O273  1  0.26039303  0.56731023  0.77996646  1
  O  O274  1  0.26436483  0.89775324  0.27412829  1
  O  O275  1  0.25626034  0.91045546  0.76324709  1
  O  O276  1  0.60032517  0.23600672  0.26772778  1
  O  O277  1  0.58601030  0.24438100  0.76484366  1
  O  O278  1  0.58773802  0.56875860  0.26332754  1
  O  O279  1  0.60759456  0.57091843  0.77808105  1
  O  O280  1  0.58552426  0.91088096  0.27915939  1
  O  O281  1  0.59952650  0.91108784  0.77811639  1
  O  O282  1  0.92868789  0.23613190  0.26891958  1
  O  O283  1  0.92155865  0.24612868  0.77378542  1
  O  O284  1  0.93974193  0.56496033  0.27138971  1
  O  O285  1  0.93461291  0.56436087  0.77653296  1
  O  O286  1  0.92416500  0.90899306  0.26550382  1
  O  O287  1  0.92283547  0.90490132  0.78001478  1
  O  O288  1  0.26872195  0.22765090  0.48482730  1
  O  O289  1  0.26110425  0.23991389  0.98038572  1
  O  O290  1  0.25923741  0.57367340  0.48412064  1
  O  O291  1  0.26975738  0.56134002  0.97729099  1
  O  O292  1  0.27619149  0.90986876  0.47396134  1
  O  O293  1  0.26600096  0.90171151  0.98578726  1
  O  O294  1  0.59675738  0.22779222  0.47903529  1
  O  O295  1  0.59683035  0.24679293  0.98507685  1
  O  O296  1  0.59978173  0.56665300  0.48910381  1
  O  O297  1  0.59832087  0.56454232  0.96956109  1
  O  O298  1  0.59018304  0.91715054  0.47513365  1
  O  O299  1  0.59636251  0.90044959  0.97368200  1
  O  O300  1  0.92863495  0.24632632  0.48748495  1
  O  O301  1  0.92046902  0.24593838  0.97897659  1
  O  O302  1  0.94370882  0.56130068  0.48144298  1
  O  O303  1  0.93248667  0.56453643  0.97307478  1
  O  O304  1  0.92835768  0.89531114  0.48115651  1
  O  O305  1  0.92342049  0.89943102  0.96781233  1
  O  O306  1  0.24503465  0.07623809  0.47427518  1
  O  O307  1  0.23346418  0.08091440  0.98495537  1
  O  O308  1  0.23435591  0.40111584  0.49808940  1
  O  O309  1  0.23658471  0.39821844  0.97083037  1
  O  O310  1  0.24939433  0.74873657  0.46826330  1
  O  O311  1  0.22876233  0.72593806  0.98063545  1
  O  O312  1  0.56688621  0.07306092  0.47200775  1
  O  O313  1  0.56133610  0.06263520  0.97484545  1
  O  O314  1  0.57561046  0.39489441  0.49065569  1
  O  O315  1  0.57344420  0.40077372  0.97155251  1
  O  O316  1  0.57082179  0.73896038  0.49495231  1
  O  O317  1  0.57003611  0.74515635  0.98315993  1
  O  O318  1  0.90847381  0.07630891  0.48934024  1
  O  O319  1  0.89321412  0.06424851  0.97467867  1
  O  O320  1  0.91722815  0.40346710  0.48672676  1
  O  O321  1  0.90445173  0.40694619  0.96822676  1
  O  O322  1  0.89838922  0.73934601  0.50490646  1
  O  O323  1  0.91169870  0.74268987  0.97188721  1
  O  O324  1  0.09612347  0.25971025  0.22162935  1
  O  O325  1  0.09670589  0.27096028  0.73143098  1
  O  O326  1  0.10610209  0.59424541  0.22293365  1
  O  O327  1  0.09366389  0.59275254  0.72489773  1
  O  O328  1  0.09939262  0.91691496  0.22999261  1
  O  O329  1  0.08178384  0.92550896  0.73557404  1
  O  O330  1  0.42000797  0.25542134  0.21988029  1
  O  O331  1  0.42809346  0.26454517  0.72401379  1
  O  O332  1  0.42737514  0.59597950  0.21875266  1
  O  O333  1  0.42942946  0.60306329  0.72298002  1
  O  O334  1  0.43383435  0.93065741  0.22500735  1
  O  O335  1  0.42315179  0.92192000  0.73295476  1
  O  O336  1  0.76010526  0.26098500  0.22015522  1
  O  O337  1  0.75766412  0.25494389  0.73237600  1
  O  O338  1  0.76150753  0.58918245  0.22882603  1
  O  O339  1  0.77007499  0.59686406  0.72769286  1
  O  O340  1  0.74843064  0.93244063  0.24107677  1
  O  O341  1  0.76364938  0.93165864  0.73805935  1
  O  O342  1  0.07541405  0.10310044  0.23308120  1
  O  O343  1  0.06743547  0.08936743  0.73831589  1
  O  O344  1  0.07771229  0.42261696  0.22448616  1
  O  O345  1  0.06634422  0.43337895  0.72762172  1
  O  O346  1  0.08814007  0.75518350  0.22108671  1
  O  O347  1  0.07217729  0.74713051  0.72785407  1
  O  O348  1  0.40496539  0.09461721  0.21796226  1
  O  O349  1  0.40803225  0.10447988  0.72351494  1
  O  O350  1  0.40325915  0.43534365  0.22493437  1
  O  O351  1  0.40577175  0.41674453  0.73506820  1
  O  O352  1  0.40112618  0.76524504  0.21861110  1
  O  O353  1  0.39781637  0.75537740  0.72058174  1
  O  O354  1  0.72778494  0.10375467  0.22938633  1
  O  O355  1  0.73481448  0.10032984  0.72636127  1
  O  O356  1  0.74637020  0.41299076  0.23041703  1
  O  O357  1  0.74742403  0.42986690  0.73886231  1
  O  O358  1  0.74082523  0.76058872  0.23331994  1
  O  O359  1  0.74214146  0.75756866  0.72490853  1
