# generated using pymatgen
data_BaLaInIrO6
_symmetry_space_group_name_H-M   'P 1'
_cell_length_a   17.52033853
_cell_length_b   17.53664757
_cell_length_c   16.48013060
_cell_angle_alpha   90.07373861
_cell_angle_beta   89.99893433
_cell_angle_gamma   90.00109170
_symmetry_Int_Tables_number   1
_chemical_formula_structural   BaLaInIrO6
_chemical_formula_sum   'Ba36 La36 In36 Ir36 O216'
_cell_volume   5063.48300691
_cell_formula_units_Z   36
loop_
 _symmetry_equiv_pos_site_id
 _symmetry_equiv_pos_as_xyz
  1  'x, y, z'
loop_
 _atom_site_type_symbol
 _atom_site_label
 _atom_site_symmetry_multiplicity
 _atom_site_fract_x
 _atom_site_fract_y
 _atom_site_fract_z
 _atom_site_occupancy
  Ba  Ba0  1  0.17146122  0.98793325  0.37529402  1
  Ba  Ba1  1  0.17351640  0.65673453  0.37112665  1
  Ba  Ba2  1  0.49806874  0.67079293  0.62502514  1
  Ba  Ba3  1  0.16403999  0.32890848  0.37680392  1
  Ba  Ba4  1  0.83318989  0.34116205  0.12733607  1
  Ba  Ba5  1  0.49350521  0.01840005  0.12613605  1
  Ba  Ba6  1  0.66808681  0.50709198  0.62583839  1
  Ba  Ba7  1  0.33074106  0.84688845  0.12530261  1
  Ba  Ba8  1  0.33484242  0.83912714  0.62882246  1
  Ba  Ba9  1  0.49935661  0.65796720  0.37619934  1
  Ba  Ba10  1  0.83579646  0.32970997  0.37708361  1
  Ba  Ba11  1  0.00123815  0.16041766  0.87256433  1
  Ba  Ba12  1  0.83189828  0.67360278  0.62257227  1
  Ba  Ba13  1  0.83448060  0.65854459  0.37505655  1
  Ba  Ba14  1  0.49784999  0.34334071  0.62634203  1
  Ba  Ba15  1  0.00067292  0.49030124  0.87305389  1
  Ba  Ba16  1  0.32734302  0.48954661  0.87024790  1
  Ba  Ba17  1  0.17061184  0.34717029  0.62464734  1
  Ba  Ba18  1  0.33296057  0.82452525  0.37239710  1
  Ba  Ba19  1  -0.00036231  0.49374026  0.37522439  1
  Ba  Ba20  1  0.83030587  0.99348736  0.37202176  1
  Ba  Ba21  1  0.83664525  0.00793564  0.62132579  1
  Ba  Ba22  1  0.83139375  0.99145193  0.87442731  1
  Ba  Ba23  1  1.00340585  0.50929674  0.12965073  1
  Ba  Ba24  1  0.16798503  0.65460249  0.87822978  1
  Ba  Ba25  1  1.00503530  0.51120682  0.62478176  1
  Ba  Ba26  1  0.33487530  0.17805431  0.12735955  1
  Ba  Ba27  1  1.00170370  0.84068367  0.12736683  1
  Ba  Ba28  1  0.83349038  0.01160540  0.12505616  1
  Ba  Ba29  1  0.66851010  0.49166883  0.37861146  1
  Ba  Ba30  1  0.32732694  0.15883823  0.87571550  1
  Ba  Ba31  1  0.50295939  0.99162844  0.37230966  1
  Ba  Ba32  1  0.00113507  0.82216590  0.37326232  1
  Ba  Ba33  1  0.33145816  0.82283363  0.87730596  1
  Ba  Ba34  1  0.66401244  0.17283190  0.12542992  1
  Ba  Ba35  1  0.33733844  0.50648255  0.62669322  1
  La  La36  1  1.00521058  0.18072764  0.12495658  1
  La  La37  1  0.66278528  0.48510563  0.87641817  1
  La  La38  1  0.66854540  0.18173375  0.61941932  1
  La  La39  1  0.15966439  0.34793053  0.12069371  1
  La  La40  1  0.65668853  0.81629925  0.37528069  1
  La  La41  1  0.32909255  0.48974540  0.38277395  1
  La  La42  1  0.16780819  0.67329780  0.62695442  1
  La  La43  1  0.83628824  0.31848769  0.87497459  1
  La  La44  1  0.49616749  0.34169016  0.12501822  1
  La  La45  1  0.84265096  0.65038689  0.87145826  1
  La  La46  1  0.83790060  0.67219626  0.13032027  1
  La  La47  1  0.16039517  0.01419993  0.62778665  1
  La  La48  1  0.49508645  0.01999330  0.62665084  1
  La  La49  1  0.33109979  0.14900208  0.37418408  1
  La  La50  1  1.00199538  0.84172015  0.62133847  1
  La  La51  1  0.67238831  0.84509952  0.62104301  1
  La  La52  1  0.50396667  0.31792095  0.37690432  1
  La  La53  1  0.49851081  0.68467061  0.12267890  1
  La  La54  1  0.50075301  0.98343633  0.87924609  1
  La  La55  1  0.16372942  0.01226469  0.12802423  1
  La  La56  1  0.33586678  0.18281263  0.62352394  1
  La  La57  1  1.00548088  0.18071909  0.62659760  1
  La  La58  1  0.67357717  0.84988379  0.12506902  1
  La  La59  1  0.65976106  0.15140397  0.87356842  1
  La  La60  1  -0.00558820  0.81430451  0.87341990  1
  La  La61  1  0.17260417  0.32589238  0.87180795  1
  La  La62  1  0.17391015  0.98487468  0.87579910  1
  La  La63  1  0.49763017  0.64825838  0.87579693  1
  La  La64  1  0.49740391  0.31466919  0.87229749  1
  La  La65  1  -0.00721892  0.15728299  0.37059602  1
  La  La66  1  0.16275887  0.68454410  0.12995225  1
  La  La67  1  0.66961619  0.16241826  0.36509290  1
  La  La68  1  0.83190501  0.34680607  0.62767671  1
  La  La69  1  0.66535380  0.81875574  0.87714063  1
  La  La70  1  0.33332908  0.50966370  0.12657541  1
  La  La71  1  0.67501845  0.51391698  0.12840987  1
  In  In72  1  0.66729841  0.33126646  0.75108693  1
  In  In73  1  0.66289582  0.33719893  0.24865043  1
  In  In74  1  0.83063983  0.49917018  -0.00071992  1
  In  In75  1  -0.00060608  0.33551260  -0.00366568  1
  In  In76  1  0.33259765  0.00054100  0.75040985  1
  In  In77  1  0.83320669  0.83218658  0.25028088  1
  In  In78  1  0.00151268  -0.00223912  0.75322463  1
  In  In79  1  0.83452182  0.17125170  0.24559964  1
  In  In80  1  0.83357512  0.83443557  0.49810471  1
  In  In81  1  0.16664965  0.16851916  0.49916922  1
  In  In82  1  0.16725886  0.16674826  0.00038007  1
  In  In83  1  0.33327655  0.66497178  0.00384959  1
  In  In84  1  0.66415717  0.00138683  0.24955016  1
  In  In85  1  0.66441606  0.00024888  -0.00134383  1
  In  In86  1  0.50143466  0.83665222  0.50477068  1
  In  In87  1  0.00103748  0.00065326  0.49861764  1
  In  In88  1  0.50048781  0.49590433  0.49676539  1
  In  In89  1  0.33183911  -0.00110360  0.50372877  1
  In  In90  1  0.66664490  0.66643664  -0.00005704  1
  In  In91  1  0.66685818  0.66715889  0.75307278  1
  In  In92  1  0.33292968  0.66683378  0.75261520  1
  In  In93  1  0.00157492  0.66247666  0.00055455  1
  In  In94  1  0.66526659  0.66523162  0.50235861  1
  In  In95  1  0.83058568  0.16455122  0.74670760  1
  In  In96  1  0.00025448  0.33296563  0.50155889  1
  In  In97  1  0.16497577  0.83618882  -0.00069649  1
  In  In98  1  0.83189953  0.83155051  -0.00192917  1
  In  In99  1  0.16834452  0.17073531  0.25276186  1
  In  In100  1  0.66319014  0.33233427  -0.00014008  1
  In  In101  1  0.66431735  0.00402427  0.50171432  1
  In  In102  1  0.00224323  0.00114281  -0.00250775  1
  In  In103  1  0.83585840  0.50002159  0.50109638  1
  In  In104  1  0.33371159  0.33621345  0.00310916  1
  In  In105  1  0.83181052  0.83380114  0.74906774  1
  In  In106  1  0.33394661  0.66707926  0.50171608  1
  In  In107  1  0.33648815  0.66422985  0.24761408  1
  Ir  Ir108  1  0.33626648  0.00127760  -0.00112280  1
  Ir  Ir109  1  0.00198388  0.00331777  0.24925936  1
  Ir  Ir110  1  0.33389827  -0.00029145  0.24865448  1
  Ir  Ir111  1  0.16907175  0.50054427  0.49972543  1
  Ir  Ir112  1  0.33805788  0.33261472  0.49535566  1
  Ir  Ir113  1  0.49724827  0.16759977  -0.00424250  1
  Ir  Ir114  1  0.83405749  0.16951699  0.50050205  1
  Ir  Ir115  1  0.16741214  0.82991726  0.50314210  1
  Ir  Ir116  1  0.00084434  0.33334807  0.75141585  1
  Ir  Ir117  1  0.16737558  0.17037456  0.74795261  1
  Ir  Ir118  1  0.50058447  0.83216386  -0.00249760  1
  Ir  Ir119  1  0.49879221  0.16965452  0.50177956  1
  Ir  Ir120  1  0.49362362  0.17162233  0.25246498  1
  Ir  Ir121  1  0.33558287  0.33731428  0.25293585  1
  Ir  Ir122  1  0.17342857  0.49558199  0.25111745  1
  Ir  Ir123  1  0.16463570  0.49854457  0.74970261  1
  Ir  Ir124  1  0.00319965  0.66388484  0.25285532  1
  Ir  Ir125  1  0.83120847  0.16913401  -0.00333848  1
  Ir  Ir126  1  0.49971723  0.49728303  0.24225026  1
  Ir  Ir127  1  0.16683503  0.83476607  0.25295983  1
  Ir  Ir128  1  0.50508177  0.83446294  0.75684479  1
  Ir  Ir129  1  0.16307641  0.83305065  0.74716779  1
  Ir  Ir130  1  0.00576676  0.66708079  0.50059014  1
  Ir  Ir131  1  0.16990716  0.49804036  0.00220290  1
  Ir  Ir132  1  0.50260176  0.49675870  0.00250708  1
  Ir  Ir133  1  0.66073558  0.66277564  0.24335519  1
  Ir  Ir134  1  0.00066075  0.66680208  0.74595805  1
  Ir  Ir135  1  0.49844730  0.16538930  0.75019327  1
  Ir  Ir136  1  0.00292855  0.33609408  0.24783659  1
  Ir  Ir137  1  0.49923290  0.49568161  0.76026597  1
  Ir  Ir138  1  0.66736434  0.32621351  0.49960101  1
  Ir  Ir139  1  0.50256929  0.83139691  0.24347695  1
  Ir  Ir140  1  0.83434294  0.49928638  0.75240183  1
  Ir  Ir141  1  0.33529102  0.33184573  0.74910251  1
  Ir  Ir142  1  0.65720238  0.00117207  0.74934316  1
  Ir  Ir143  1  0.83532573  0.50255719  0.24809324  1
  O  O144  1  0.30093420  0.33459267  0.13471010  1
  O  O145  1  0.31692897  0.31847372  0.62047604  1
  O  O146  1  0.29912257  0.64888752  0.12712120  1
  O  O147  1  0.30522321  0.66479138  0.62910644  1
  O  O148  1  0.30456229  1.00237326  0.12275964  1
  O  O149  1  0.29726870  0.99944506  0.62860350  1
  O  O150  1  0.63035994  0.32785496  0.12379996  1
  O  O151  1  0.64586644  0.32162805  0.62094540  1
  O  O152  1  0.63025270  0.64801749  0.12502145  1
  O  O153  1  0.64500271  0.65956363  0.63063900  1
  O  O154  1  0.64069719  0.99495278  0.12343524  1
  O  O155  1  0.62698968  0.98806903  0.63195004  1
  O  O156  1  0.98374527  0.33171409  0.12828919  1
  O  O157  1  0.96834105  0.32458001  0.63349534  1
  O  O158  1  0.97747153  0.66543616  0.13207193  1
  O  O159  1  0.98285015  0.67258136  0.62294318  1
  O  O160  1  0.98377253  0.99651654  0.13056869  1
  O  O161  1  0.98603665  0.98222925  0.62657175  1
  O  O162  1  0.18804573  0.15250992  0.12821353  1
  O  O163  1  0.20122610  0.15780500  0.63032871  1
  O  O164  1  0.19897947  0.48458975  0.12613587  1
  O  O165  1  0.18862506  0.50611573  0.62409674  1
  O  O166  1  0.17738845  0.82947542  0.13250487  1
  O  O167  1  0.18662896  0.81438654  0.62538182  1
  O  O168  1  0.51512759  0.17792982  0.12584709  1
  O  O169  1  0.53052873  0.16274138  0.62723476  1
  O  O170  1  0.53761318  0.48167379  0.12168583  1
  O  O171  1  0.51823386  0.49434768  0.63951498  1
  O  O172  1  0.53528760  0.82438514  0.11866188  1
  O  O173  1  0.53650150  0.82809881  0.63964844  1
  O  O174  1  0.86547422  0.16944027  0.11644982  1
  O  O175  1  0.86608277  0.16796870  0.61822515  1
  O  O176  1  0.85129973  0.50299858  0.12929876  1
  O  O177  1  0.85453078  0.48763985  0.63390740  1
  O  O178  1  0.85130411  0.81016405  0.12494631  1
  O  O179  1  0.86649434  0.83281883  0.62603375  1
  O  O180  1  0.12975626  0.17213149  0.37410864  1
  O  O181  1  0.14870071  0.18683848  0.86804208  1
  O  O182  1  0.14832661  0.49837171  0.37470789  1
  O  O183  1  0.14736108  0.49567062  0.87816917  1
  O  O184  1  0.14980492  0.83341988  0.37870475  1
  O  O185  1  0.13281843  0.84576803  0.86659345  1
  O  O186  1  0.46551435  0.17602900  0.37745315  1
  O  O187  1  0.47287898  0.17650765  0.87348567  1
  O  O188  1  0.46611803  0.50232095  0.35928369  1
  O  O189  1  0.47418966  0.50893844  0.88344258  1
  O  O190  1  0.48405560  0.83179798  0.36255462  1
  O  O191  1  0.47529682  0.84665762  0.87663209  1
  O  O192  1  0.80574651  0.17223602  0.38135490  1
  O  O193  1  0.79836446  0.17836231  0.87496928  1
  O  O194  1  0.82068903  0.49749653  0.36841107  1
  O  O195  1  0.80114480  0.51031464  0.87075573  1
  O  O196  1  0.79655735  0.82826822  0.37186985  1
  O  O197  1  0.79825325  0.83629912  0.87272591  1
  O  O198  1  0.02340275  0.01899284  0.36922548  1
  O  O199  1  0.04248511  0.01020381  0.87297199  1
  O  O200  1  0.01438946  0.33306108  0.36856177  1
  O  O201  1  0.03567117  0.33295310  0.86943895  1
  O  O202  1  0.02688388  0.66152520  0.37866993  1
  O  O203  1  0.01965637  0.67011662  0.86586407  1
  O  O204  1  0.35364996  0.00416656  0.37127824  1
  O  O205  1  0.36353446  0.00232160  0.87723735  1
  O  O206  1  0.36911431  0.34859309  0.37343769  1
  O  O207  1  0.36089561  0.33543309  0.87134502  1
  O  O208  1  0.34601631  0.66423288  0.37204666  1
  O  O209  1  0.35977856  0.66517290  0.87841101  1
  O  O210  1  0.67678153  0.02596879  0.37609059  1
  O  O211  1  0.68128298  0.01480776  0.86786593  1
  O  O212  1  0.68298373  0.32725667  0.37988088  1
  O  O213  1  0.69961794  0.34430993  0.87537057  1
  O  O214  1  0.68206630  0.67585377  0.36200297  1
  O  O215  1  0.70410384  0.67609816  0.87576335  1
  O  O216  1  0.06663698  0.10215465  0.02675060  1
  O  O217  1  0.07497699  0.09210607  0.53513927  1
  O  O218  1  0.07952513  0.42924527  0.01884215  1
  O  O219  1  0.08057902  0.42822602  0.51286970  1
  O  O220  1  0.06984860  0.76109002  0.00849929  1
  O  O221  1  0.07153500  0.76321957  0.52378219  1
  O  O222  1  0.40336828  0.09662267  0.01571062  1
  O  O223  1  0.40270463  0.10680047  0.52588964  1
  O  O224  1  0.40855019  0.43143491  0.03199178  1
  O  O225  1  0.40277278  0.42438646  0.51048151  1
  O  O226  1  0.41331874  0.76008653  0.02436573  1
  O  O227  1  0.40860181  0.76223736  0.51583132  1
  O  O228  1  0.73831294  0.10161440  0.00701795  1
  O  O229  1  0.73697821  0.10614979  0.52489233  1
  O  O230  1  0.72375338  0.43937714  0.01707067  1
  O  O231  1  0.73890879  0.41408148  0.51969740  1
  O  O232  1  0.71985772  0.77267342  0.01859827  1
  O  O233  1  0.73640677  0.76422810  0.52205113  1
  O  O234  1  0.09229748  0.26307914  0.02765581  1
  O  O235  1  0.08771473  0.25548342  0.53030079  1
  O  O236  1  0.10636218  0.59420691  0.02692955  1
  O  O237  1  0.10371080  0.59827943  0.52196711  1
  O  O238  1  0.10974847  0.94182152  0.01884440  1
  O  O239  1  0.10228650  0.92287205  0.52439816  1
  O  O240  1  0.43679298  0.26765399  0.01395195  1
  O  O241  1  0.43414080  0.26695376  0.50892755  1
  O  O242  1  0.43993408  0.59285520  0.02620386  1
  O  O243  1  0.42247270  0.58549012  0.51456034  1
  O  O244  1  0.43524978  0.93295765  0.01247787  1
  O  O245  1  0.43418023  0.93811035  0.52830082  1
  O  O246  1  0.76304505  0.26017138  0.01456077  1
  O  O247  1  0.76502713  0.26159205  0.52923755  1
  O  O248  1  0.76413920  0.60101272  0.03121579  1
  O  O249  1  0.75924610  0.58837515  0.50975222  1
  O  O250  1  0.75747053  0.92699143  0.02044197  1
  O  O251  1  0.75401004  0.92711206  0.52474766  1
  O  O252  1  0.24713808  0.07356108  0.26942848  1
  O  O253  1  0.22965802  0.07429007  0.77422795  1
  O  O254  1  0.24753888  0.40752911  0.27940011  1
  O  O255  1  0.23615935  0.40019883  0.77039992  1
  O  O256  1  0.23709380  0.74253693  0.25473946  1
  O  O257  1  0.23167301  0.74306207  0.76728545  1
  O  O258  1  0.56868858  0.08593088  0.26685707  1
  O  O259  1  0.56028273  0.06751575  0.77438165  1
  O  O260  1  0.55996527  0.40289359  0.27141046  1
  O  O261  1  0.57066612  0.40468236  0.78318127  1
  O  O262  1  0.56766458  0.73298677  0.25915475  1
  O  O263  1  0.56830278  0.74134205  0.79089614  1
  O  O264  1  0.91479374  0.07826172  0.26865137  1
  O  O265  1  0.90708613  0.07561206  0.76488779  1
  O  O266  1  0.90871555  0.40899574  0.26612426  1
  O  O267  1  0.90286775  0.40092318  0.77627208  1
  O  O268  1  0.91234889  0.73480544  0.26553602  1
  O  O269  1  0.90617499  0.73182209  0.77386132  1
  O  O270  1  0.27188731  0.24272717  0.28193602  1
  O  O271  1  0.25909410  0.24542713  0.76853649  1
  O  O272  1  0.26934919  0.55695054  0.26702131  1
  O  O273  1  0.25149582  0.57104650  0.76473035  1
  O  O274  1  0.26142087  0.90676717  0.26515615  1
  O  O275  1  0.25239497  0.90521017  0.77155267  1
  O  O276  1  0.58408931  0.24017742  0.27903317  1
  O  O277  1  0.59257450  0.23364737  0.77629117  1
  O  O278  1  0.59480672  0.56308305  0.26260332  1
  O  O279  1  0.58934699  0.56726377  0.78634356  1
  O  O280  1  0.59683431  0.89537718  0.26683039  1
  O  O281  1  0.59606759  0.90524081  0.78375622  1
  O  O282  1  0.93746062  0.23973195  0.26330149  1
  O  O283  1  0.92476450  0.24959657  0.77147935  1
  O  O284  1  0.92815302  0.57447746  0.26855682  1
  O  O285  1  0.92651928  0.57394964  0.77074317  1
  O  O286  1  0.92987140  0.91432181  0.26723131  1
  O  O287  1  0.93515682  0.89690517  0.77738081  1
  O  O288  1  0.27337667  0.23745768  0.47929373  1
  O  O289  1  0.25674861  0.24641390  0.98425510  1
  O  O290  1  0.26037343  0.56556028  0.48076286  1
  O  O291  1  0.26450803  0.56060024  0.99187365  1
  O  O292  1  0.25853104  0.89873591  0.48836825  1
  O  O293  1  0.26566033  0.91291396  0.97992571  1
  O  O294  1  0.60064723  0.22883102  0.47717295  1
  O  O295  1  0.59039058  0.23435121  0.96766552  1
  O  O296  1  0.59065103  0.57037270  0.48294346  1
  O  O297  1  0.59670370  0.56199648  0.97457463  1
  O  O298  1  0.59922877  0.90297446  0.47417145  1
  O  O299  1  0.59193033  0.89994750  0.97144342  1
  O  O300  1  0.92921364  0.23150467  0.47660772  1
  O  O301  1  0.91968216  0.24049468  0.97714246  1
  O  O302  1  0.93532450  0.57741263  0.49078509  1
  O  O303  1  0.92443750  0.57319187  0.97882150  1
  O  O304  1  0.92721944  0.90878898  0.47881047  1
  O  O305  1  0.93633560  0.89976933  0.97497474  1
  O  O306  1  0.24575026  0.07982904  0.47625968  1
  O  O307  1  0.23878724  0.06439509  0.97791206  1
  O  O308  1  0.24516285  0.40690270  0.47827316  1
  O  O309  1  0.23106450  0.40145365  0.98124570  1
  O  O310  1  0.23039217  0.73645646  0.49184899  1
  O  O311  1  0.23860260  0.74083670  0.99467267  1
  O  O312  1  0.55996100  0.07423364  0.49785572  1
  O  O313  1  0.56501039  0.07473683  0.97125297  1
  O  O314  1  0.57139884  0.39232038  0.47702174  1
  O  O315  1  0.56006569  0.40081291  0.97083697  1
  O  O316  1  0.57866584  0.74625468  0.47713863  1
  O  O317  1  0.56042523  0.73335958  0.97622888  1
  O  O318  1  0.90500761  0.08194257  0.47712055  1
  O  O319  1  0.90114610  0.07912373  0.97992372  1
  O  O320  1  0.90444005  0.40276467  0.49920682  1
  O  O321  1  0.89795149  0.39939910  0.97423335  1
  O  O322  1  0.91630806  0.73620200  0.48406188  1
  O  O323  1  0.90072484  0.73233402  0.97191228  1
  O  O324  1  0.09385329  0.26696382  0.22127653  1
  O  O325  1  0.08944406  0.25919049  0.72143735  1
  O  O326  1  0.10495492  0.59252358  0.22631561  1
  O  O327  1  0.09826441  0.59816525  0.72687448  1
  O  O328  1  0.09888085  0.93541233  0.23155017  1
  O  O329  1  0.10375377  0.92696071  0.72278346  1
  O  O330  1  0.43016749  0.27190526  0.23131779  1
  O  O331  1  0.42808227  0.25853002  0.72959343  1
  O  O332  1  0.43450821  0.58788641  0.21019219  1
  O  O333  1  0.43092262  0.58778951  0.74509411  1
  O  O334  1  0.43133312  0.92368954  0.22819268  1
  O  O335  1  0.43992812  0.93145166  0.73292428  1
  O  O336  1  0.75434442  0.26106261  0.23687287  1
  O  O337  1  0.76159435  0.26012697  0.72032046  1
  O  O338  1  0.76118462  0.59623166  0.22327900  1
  O  O339  1  0.76680730  0.58953035  0.73616313  1
  O  O340  1  0.75413635  0.92098458  0.22567242  1
  O  O341  1  0.74832700  0.93528969  0.72771522  1
  O  O342  1  0.06869704  0.09560843  0.22452862  1
  O  O343  1  0.07836910  0.10049364  0.72005509  1
  O  O344  1  0.08227979  0.42289507  0.22669352  1
  O  O345  1  0.07490947  0.42364962  0.73155794  1
  O  O346  1  0.07835764  0.75358986  0.23016963  1
  O  O347  1  0.06584764  0.76578058  0.72588174  1
  O  O348  1  0.40020331  0.09852843  0.24000190  1
  O  O349  1  0.40546170  0.09918197  0.71928117  1
  O  O350  1  0.40597694  0.42854786  0.21617264  1
  O  O351  1  0.40824624  0.42165667  0.73531403  1
  O  O352  1  0.41514448  0.75732228  0.22040937  1
  O  O353  1  0.41620581  0.76318278  0.73928516  1
  O  O354  1  0.74140690  0.09564416  0.23815926  1
  O  O355  1  0.71814803  0.09980347  0.72731880  1
  O  O356  1  0.73911325  0.43594039  0.22831560  1
  O  O357  1  0.74679001  0.42604086  0.73364426  1
  O  O358  1  0.72884869  0.75075210  0.21595292  1
  O  O359  1  0.72794753  0.77226394  0.72764006  1
