# generated using pymatgen
data_BaLaInIrO6
_symmetry_space_group_name_H-M   'P 1'
_cell_length_a   17.51269086
_cell_length_b   17.52928800
_cell_length_c   16.47017380
_cell_angle_alpha   90.02780625
_cell_angle_beta   89.99916320
_cell_angle_gamma   90.01168962
_symmetry_Int_Tables_number   1
_chemical_formula_structural   BaLaInIrO6
_chemical_formula_sum   'Ba36 La36 In36 Ir36 O216'
_cell_volume   5056.09563010
_cell_formula_units_Z   36
loop_
 _symmetry_equiv_pos_site_id
 _symmetry_equiv_pos_as_xyz
  1  'x, y, z'
loop_
 _atom_site_type_symbol
 _atom_site_label
 _atom_site_symmetry_multiplicity
 _atom_site_fract_x
 _atom_site_fract_y
 _atom_site_fract_z
 _atom_site_occupancy
  Ba  Ba0  1  0.66850525  0.17798683  0.12426796  1
  Ba  Ba1  1  0.50440705  0.32685233  0.37675873  1
  Ba  Ba2  1  0.82978938  0.67881130  0.12499373  1
  Ba  Ba3  1  0.66826683  0.48764051  0.37746114  1
  Ba  Ba4  1  0.66925712  0.16150726  0.37099684  1
  Ba  Ba5  1  0.50100083  0.01027010  0.12445667  1
  Ba  Ba6  1  0.49588524  0.33868873  0.12530206  1
  Ba  Ba7  1  -0.00451704  0.49288949  0.87008374  1
  Ba  Ba8  1  0.33224867  0.17541649  0.62739383  1
  Ba  Ba9  1  0.33480478  0.83978778  0.13034403  1
  Ba  Ba10  1  0.16320033  0.33971700  0.62344232  1
  Ba  Ba11  1  0.66350205  0.48690281  0.87645230  1
  Ba  Ba12  1  0.49883001  0.99282015  0.87609962  1
  Ba  Ba13  1  0.32803450  0.50320752  0.62210070  1
  Ba  Ba14  1  0.16844220  0.32654862  0.37375453  1
  Ba  Ba15  1  0.33509908  0.17550752  0.12070431  1
  Ba  Ba16  1  0.16817025  0.67618631  0.12489476  1
  Ba  Ba17  1  0.33330354  0.48945090  0.37170018  1
  Ba  Ba18  1  -0.00133731  0.82774595  0.37608765  1
  Ba  Ba19  1  0.16606489  0.67078820  0.62548916  1
  Ba  Ba20  1  0.83240678  0.67410071  0.62780842  1
  Ba  Ba21  1  0.16609039  0.65866574  0.36918297  1
  Ba  Ba22  1  -0.00070302  0.15969097  0.87799819  1
  Ba  Ba23  1  0.83847072  0.01091338  0.62399986  1
  Ba  Ba24  1  0.83708310  0.99257782  0.37588484  1
  Ba  Ba25  1  0.67103739  0.84382842  0.12678534  1
  Ba  Ba26  1  1.00092333  0.84424475  0.12902878  1
  Ba  Ba27  1  0.32861301  0.48484408  0.87374533  1
  Ba  Ba28  1  0.17010729  0.65194838  0.88030422  1
  Ba  Ba29  1  0.83783643  0.65996535  0.37647510  1
  Ba  Ba30  1  0.16189410  0.33731593  0.12476594  1
  Ba  Ba31  1  0.50255849  0.32459741  0.87184505  1
  Ba  Ba32  1  0.33611542  0.15935428  0.87529558  1
  Ba  Ba33  1  1.00126251  0.17524795  0.62122822  1
  Ba  Ba34  1  0.99693118  0.17491210  0.12687452  1
  Ba  Ba35  1  0.66910271  0.84230762  0.62380889  1
  La  La36  1  0.33936751  0.84644122  0.62575893  1
  La  La37  1  -0.00008833  0.82314369  0.87792774  1
  La  La38  1  0.83079969  0.34424879  0.62452847  1
  La  La39  1  0.16864545  0.32001607  0.87407888  1
  La  La40  1  0.83916139  0.65599260  0.87464177  1
  La  La41  1  0.32764184  0.82022662  0.87704928  1
  La  La42  1  0.15805287  0.01624169  0.63277291  1
  La  La43  1  1.00143620  0.84534588  0.61940224  1
  La  La44  1  0.33358371  0.15712683  0.36712648  1
  La  La45  1  0.16864556  0.99212847  0.37267462  1
  La  La46  1  1.00831167  0.51554605  0.62116302  1
  La  La47  1  0.50300890  0.64743771  0.87701244  1
  La  La48  1  0.50642993  0.99019063  0.37360452  1
  La  La49  1  0.67570762  0.17953347  0.62676144  1
  La  La50  1  0.33585596  0.50729010  0.12241000  1
  La  La51  1  0.83613645  0.32139742  0.37190715  1
  La  La52  1  0.83510638  0.99331612  0.87588816  1
  La  La53  1  0.16095552  0.01388688  0.12367251  1
  La  La54  1  0.66686747  0.50788576  0.12924904  1
  La  La55  1  1.00634111  0.51550754  0.12821554  1
  La  La56  1  0.49530994  0.34525594  0.62509552  1
  La  La57  1  0.66403562  0.51202074  0.62337951  1
  La  La58  1  0.82778827  0.01406685  0.12881771  1
  La  La59  1  0.49358188  0.67633791  0.12575430  1
  La  La60  1  0.83537269  0.31696193  0.87540276  1
  La  La61  1  0.33021237  0.82056311  0.37689396  1
  La  La62  1  0.17548395  0.98745333  0.87483457  1
  La  La63  1  0.48994685  0.67576671  0.62751729  1
  La  La64  1  0.66299517  0.15407442  0.87547366  1
  La  La65  1  0.66902087  0.81578255  0.37444408  1
  La  La66  1  0.49806859  0.01945709  0.62363187  1
  La  La67  1  0.82852170  0.34667197  0.12323380  1
  La  La68  1  0.50801571  0.65030733  0.37063890  1
  La  La69  1  0.66146639  0.81223325  0.87317860  1
  La  La70  1  -0.00259683  0.48960669  0.37449736  1
  La  La71  1  -0.00849981  0.15293921  0.36939355  1
  In  In72  1  0.50132830  0.83450959  0.49950065  1
  In  In73  1  0.16493075  0.49526199  0.00215875  1
  In  In74  1  0.33433503  0.66406803  0.25213946  1
  In  In75  1  -0.00017213  0.66909559  0.00038282  1
  In  In76  1  0.33428874  0.00097600  0.74765547  1
  In  In77  1  0.66760751  -0.00297353  -0.00120491  1
  In  In78  1  0.66838164  -0.00092817  0.74744139  1
  In  In79  1  0.49906725  0.50105288  0.49912671  1
  In  In80  1  0.83268161  0.83401028  0.50189374  1
  In  In81  1  0.33395866  -0.00233130  0.00291257  1
  In  In82  1  0.50131260  0.16731767  0.25295146  1
  In  In83  1  0.83183875  0.83675821  0.75314360  1
  In  In84  1  0.16596378  0.83632657  0.00384071  1
  In  In85  1  0.83374782  0.49958560  0.50237279  1
  In  In86  1  0.16657965  0.49942061  0.49423494  1
  In  In87  1  0.83161030  0.49917675  -0.00011422  1
  In  In88  1  0.16386420  0.49528191  0.74981191  1
  In  In89  1  0.49899381  0.49718795  0.75087242  1
  In  In90  1  0.33214185  0.66631743  0.75130286  1
  In  In91  1  0.16402634  0.16823235  0.24946563  1
  In  In92  1  0.33521598  0.32925354  0.49784145  1
  In  In93  1  0.33444043  0.00118470  0.49930555  1
  In  In94  1  0.50097836  0.83495027  0.25070919  1
  In  In95  1  0.00056924  0.66954946  0.25168370  1
  In  In96  1  0.00516018  -0.00096339  0.49896004  1
  In  In97  1  0.66390153  0.66442092  0.00384709  1
  In  In98  1  0.83044185  0.83825268  -0.00166687  1
  In  In99  1  0.83483556  0.50068554  0.24982023  1
  In  In100  1  -0.00099295  0.67194111  0.75006821  1
  In  In101  1  0.83017247  0.49741678  0.74780724  1
  In  In102  1  0.50089562  0.83360375  0.75018945  1
  In  In103  1  -0.00372201  0.33418576  0.00028202  1
  In  In104  1  0.16657936  0.16683461  0.49497641  1
  In  In105  1  0.16669220  0.83310528  0.74904129  1
  In  In106  1  0.50208940  0.16800524  -0.00096469  1
  In  In107  1  0.83254420  0.16719836  0.49970454  1
  Ir  Ir108  1  0.16386665  0.16549217  -0.00225722  1
  Ir  Ir109  1  0.33050229  0.33177408  -0.00097134  1
  Ir  Ir110  1  0.66977758  0.33511460  0.24720016  1
  Ir  Ir111  1  0.83254932  0.17000790  0.75167733  1
  Ir  Ir112  1  0.66334973  0.00155061  0.49613440  1
  Ir  Ir113  1  0.17284792  0.83190908  0.49959307  1
  Ir  Ir114  1  0.66813396  0.32957941  0.74662111  1
  Ir  Ir115  1  0.16964362  0.84070302  0.25582644  1
  Ir  Ir116  1  0.50566138  0.16688989  0.50276039  1
  Ir  Ir117  1  -0.00530390  0.32883161  0.74675140  1
  Ir  Ir118  1  0.66932123  0.33393050  0.00064011  1
  Ir  Ir119  1  0.16253630  0.16750683  0.75281191  1
  Ir  Ir120  1  -0.00086215  -0.00041793  0.24457073  1
  Ir  Ir121  1  0.33427803  0.67124056  0.49853002  1
  Ir  Ir122  1  0.66398806  0.66574078  0.25431526  1
  Ir  Ir123  1  0.00073730  0.00497681  -0.00178894  1
  Ir  Ir124  1  0.33354501  0.33535274  0.24614590  1
  Ir  Ir125  1  0.00470854  0.00316454  0.75879892  1
  Ir  Ir126  1  0.50339692  0.49849443  0.24572665  1
  Ir  Ir127  1  0.33305378  0.00091824  0.25387726  1
  Ir  Ir128  1  0.66652715  0.33067126  0.50431537  1
  Ir  Ir129  1  0.83073972  0.16766089  -0.00066916  1
  Ir  Ir130  1  0.49855108  0.82692207  -0.00218050  1
  Ir  Ir131  1  0.50706161  0.16847513  0.74508329  1
  Ir  Ir132  1  -0.00449288  0.33390005  0.25288310  1
  Ir  Ir133  1  0.49979445  0.49547330  0.00325121  1
  Ir  Ir134  1  0.66221504  0.66620761  0.49971697  1
  Ir  Ir135  1  0.16707154  0.49549184  0.24654861  1
  Ir  Ir136  1  0.33259791  0.32723575  0.75114260  1
  Ir  Ir137  1  0.00237068  0.66826237  0.49938454  1
  Ir  Ir138  1  -0.00499007  0.33342939  0.49673430  1
  Ir  Ir139  1  0.34042855  0.66367036  0.00195181  1
  Ir  Ir140  1  0.83086205  0.83734870  0.25155689  1
  Ir  Ir141  1  0.83507482  0.16895388  0.24636832  1
  Ir  Ir142  1  0.67004318  -0.00018762  0.25619730  1
  Ir  Ir143  1  0.66278019  0.66322177  0.74867318  1
  O  O144  1  0.31044384  0.33820903  0.12174491  1
  O  O145  1  0.31632590  0.32865604  0.63193435  1
  O  O146  1  0.32036795  0.65436916  0.12233592  1
  O  O147  1  0.31766286  0.66656249  0.61728988  1
  O  O148  1  0.29917254  0.99685382  0.13431826  1
  O  O149  1  0.29491183  0.99429282  0.62335460  1
  O  O150  1  0.64307835  0.33411105  0.12421468  1
  O  O151  1  0.63363428  0.31670142  0.62520859  1
  O  O152  1  0.63033761  0.66035463  0.13478197  1
  O  O153  1  0.62744960  0.65829489  0.62351034  1
  O  O154  1  0.65266525  0.99909106  0.13540676  1
  O  O155  1  0.63341065  0.99764706  0.61538370  1
  O  O156  1  0.96489997  0.32725783  0.13371582  1
  O  O157  1  0.96432791  0.32420837  0.62025583  1
  O  O158  1  0.97870053  0.65762568  0.12813690  1
  O  O159  1  0.98383861  0.66039313  0.61838540  1
  O  O160  1  0.96616533  1.00013823  0.12058859  1
  O  O161  1  0.98851024  0.98867515  0.63678558  1
  O  O162  1  0.18341951  0.15689062  0.12011921  1
  O  O163  1  0.18143637  0.16016213  0.63119673  1
  O  O164  1  0.19987362  0.49297266  0.12875468  1
  O  O165  1  0.17444717  0.49679196  0.62157704  1
  O  O166  1  0.18630694  0.84227645  0.13521869  1
  O  O167  1  0.20342129  0.82588165  0.61792582  1
  O  O168  1  0.51715744  0.16922273  0.12732675  1
  O  O169  1  0.53947647  0.16001381  0.62340464  1
  O  O170  1  0.53097532  0.49579549  0.12406061  1
  O  O171  1  0.52692212  0.49359171  0.62515817  1
  O  O172  1  0.52404266  0.81826196  0.12007085  1
  O  O173  1  0.52421425  0.80814652  0.62269697  1
  O  O174  1  0.85084208  0.15302350  0.12210571  1
  O  O175  1  0.85087226  0.17092517  0.63068918  1
  O  O176  1  0.86991853  0.48464579  0.12577234  1
  O  O177  1  0.87047626  0.48575345  0.62440657  1
  O  O178  1  0.84733246  0.83671836  0.13100266  1
  O  O179  1  0.86443285  0.82985251  0.62775058  1
  O  O180  1  0.12659199  0.16369539  0.37154688  1
  O  O181  1  0.14629325  0.18095816  0.87467627  1
  O  O182  1  0.13483989  0.49841674  0.36656811  1
  O  O183  1  0.14720493  0.48627270  0.87575995  1
  O  O184  1  0.14661739  0.85000270  0.37846384  1
  O  O185  1  0.13457684  0.85129668  0.87678693  1
  O  O186  1  0.47177158  0.16852452  0.38288209  1
  O  O187  1  0.48882105  0.16931118  0.86453721  1
  O  O188  1  0.48317453  0.50782353  0.36813598  1
  O  O189  1  0.47978442  0.50398855  0.88158958  1
  O  O190  1  0.46599618  0.85068343  0.37585521  1
  O  O191  1  0.46497494  0.83271823  0.87934979  1
  O  O192  1  0.81820852  0.17849701  0.36809813  1
  O  O193  1  0.80135317  0.17796780  0.87601868  1
  O  O194  1  0.81769638  0.49763478  0.37714949  1
  O  O195  1  0.80857332  0.51112313  0.87236719  1
  O  O196  1  0.80619399  0.83614544  0.37297084  1
  O  O197  1  0.79172476  0.85780627  0.87504625  1
  O  O198  1  0.02943690  0.00708290  0.36700733  1
  O  O199  1  0.03795601  0.00895349  0.87953852  1
  O  O200  1  0.02004009  0.35094132  0.37552474  1
  O  O201  1  0.02476235  0.33512780  0.86628710  1
  O  O202  1  0.01753286  0.67075876  0.37966885  1
  O  O203  1  0.02605698  0.68487772  0.87450573  1
  O  O204  1  0.36929698  0.00946592  0.37172140  1
  O  O205  1  0.34747273  0.00385594  0.87375560  1
  O  O206  1  0.35323591  0.33426758  0.36534386  1
  O  O207  1  0.35260435  0.32664018  0.87462264  1
  O  O208  1  0.36741181  0.67618029  0.37902148  1
  O  O209  1  0.36896336  0.67486613  0.88322884  1
  O  O210  1  0.69010362  0.00689119  0.37639374  1
  O  O211  1  0.69886822  0.01794263  0.87288248  1
  O  O212  1  0.69971979  0.33483704  0.37695723  1
  O  O213  1  0.70023855  0.33485307  0.87226587  1
  O  O214  1  0.69148168  0.67288437  0.37788886  1
  O  O215  1  0.69558870  0.66600224  0.86871932  1
  O  O216  1  0.07282655  0.09509687  0.02356431  1
  O  O217  1  0.08622534  0.08203253  0.52440432  1
  O  O218  1  0.06285899  0.42911948  0.03096026  1
  O  O219  1  0.05524590  0.43134223  0.51454364  1
  O  O220  1  0.07323386  0.76545794  0.01749933  1
  O  O221  1  0.07177567  0.76594563  0.52273893  1
  O  O222  1  0.41022568  0.08867769  0.01384505  1
  O  O223  1  0.41733891  0.09610252  0.52471903  1
  O  O224  1  0.39945421  0.42829715  0.02214877  1
  O  O225  1  0.41514269  0.41837052  0.51895244  1
  O  O226  1  0.41256238  0.75240849  0.02767117  1
  O  O227  1  0.39635699  0.76695023  0.51912447  1
  O  O228  1  0.74277910  0.10003548  0.01283607  1
  O  O229  1  0.73069196  0.09606770  0.52096594  1
  O  O230  1  0.73451557  0.42402641  0.03115793  1
  O  O231  1  0.73504005  0.42149800  0.53371821  1
  O  O232  1  0.73248703  0.76262282  0.00677650  1
  O  O233  1  0.73464990  0.75569386  0.51180460  1
  O  O234  1  0.09428458  0.25730299  0.00758176  1
  O  O235  1  0.08671019  0.26477723  0.51080046  1
  O  O236  1  0.08975771  0.58740098  0.02304748  1
  O  O237  1  0.08971431  0.59503867  0.51261900  1
  O  O238  1  0.09517728  0.94280046  0.02278596  1
  O  O239  1  0.10457610  0.92148193  0.52798901  1
  O  O240  1  0.42069807  0.26223394  0.00969626  1
  O  O241  1  0.44096651  0.25937827  0.52646146  1
  O  O242  1  0.43215415  0.58967867  0.02918276  1
  O  O243  1  0.43039166  0.60578135  0.51746406  1
  O  O244  1  0.43036678  0.91560859  0.02011837  1
  O  O245  1  0.43006292  0.93111851  0.53209104  1
  O  O246  1  0.76827731  0.26826983  0.02035487  1
  O  O247  1  0.76067118  0.26444641  0.52319891  1
  O  O248  1  0.74618380  0.58222566  0.03461013  1
  O  O249  1  0.74729998  0.58815040  0.52683342  1
  O  O250  1  0.77184034  0.94221672  0.02235340  1
  O  O251  1  0.75388013  0.93249989  0.51481674  1
  O  O252  1  0.24140334  0.07073930  0.27824714  1
  O  O253  1  0.22696946  0.07169666  0.76792025  1
  O  O254  1  0.24069484  0.40573968  0.26382169  1
  O  O255  1  0.23804920  0.39213712  0.76961505  1
  O  O256  1  0.24800808  0.75403084  0.27239784  1
  O  O257  1  0.24222837  0.74294941  0.78150599  1
  O  O258  1  0.57308267  0.06528315  0.27496189  1
  O  O259  1  0.57394173  0.07679531  0.76322799  1
  O  O260  1  0.57727165  0.40741979  0.26629035  1
  O  O261  1  0.57654573  0.39824771  0.75815275  1
  O  O262  1  0.57637665  0.73864510  0.28311341  1
  O  O263  1  0.57168597  0.73090532  0.78123381  1
  O  O264  1  0.91051330  0.07740114  0.26982226  1
  O  O265  1  0.90089809  0.07139644  0.77647659  1
  O  O266  1  0.90287238  0.39715882  0.27506042  1
  O  O267  1  0.89741978  0.39022331  0.76593440  1
  O  O268  1  0.90190447  0.74761673  0.26417159  1
  O  O269  1  0.90221732  0.74493557  0.78521010  1
  O  O270  1  0.26508112  0.23996028  0.26822655  1
  O  O271  1  0.25529344  0.23872448  0.77268874  1
  O  O272  1  0.25773719  0.56843431  0.26215700  1
  O  O273  1  0.26003403  0.57093799  0.76210443  1
  O  O274  1  0.26218306  0.91234405  0.28610576  1
  O  O275  1  0.26578021  0.90112777  0.77393017  1
  O  O276  1  0.59675078  0.24765772  0.26700016  1
  O  O277  1  0.60647762  0.23162870  0.76751763  1
  O  O278  1  0.59344124  0.57336193  0.27420977  1
  O  O279  1  0.59345009  0.57504240  0.76855239  1
  O  O280  1  0.60072244  0.90726127  0.27964665  1
  O  O281  1  0.60022351  0.89914391  0.77694083  1
  O  O282  1  0.92821104  0.23948959  0.27798802  1
  O  O283  1  0.92399229  0.23929052  0.77324924  1
  O  O284  1  0.93550160  0.56620768  0.27109361  1
  O  O285  1  0.91158884  0.58581838  0.76661171  1
  O  O286  1  0.92366792  0.90905011  0.26773568  1
  O  O287  1  0.93628154  0.91321792  0.78396275  1
  O  O288  1  0.26808140  0.23095361  0.47412310  1
  O  O289  1  0.25613728  0.24008983  0.97650279  1
  O  O290  1  0.26454093  0.58122201  0.47959278  1
  O  O291  1  0.26964357  0.57353957  0.98926548  1
  O  O292  1  0.26574073  0.89793261  0.47464773  1
  O  O293  1  0.26140898  0.90401346  0.97292311  1
  O  O294  1  0.59866431  0.23566988  0.48324735  1
  O  O295  1  0.60462578  0.24106643  0.97444306  1
  O  O296  1  0.59102585  0.57924308  0.47955591  1
  O  O297  1  0.58433093  0.57135276  0.98309952  1
  O  O298  1  0.59788232  0.90859692  0.46761224  1
  O  O299  1  0.59383098  0.89381493  0.97422649  1
  O  O300  1  0.93047936  0.24154985  0.46836399  1
  O  O301  1  0.91905715  0.23868574  0.98286914  1
  O  O302  1  0.93720735  0.57093277  0.48294554  1
  O  O303  1  0.91526585  0.58360448  0.97477276  1
  O  O304  1  0.92968202  0.90795968  0.49224724  1
  O  O305  1  0.93456847  0.91430764  0.97032899  1
  O  O306  1  0.24491080  0.07340116  0.46077555  1
  O  O307  1  0.22695482  0.06936419  0.98452517  1
  O  O308  1  0.24360929  0.40762271  0.48521136  1
  O  O309  1  0.23640826  0.39545683  0.97986393  1
  O  O310  1  0.24374416  0.74210589  0.46951706  1
  O  O311  1  0.25437041  0.74067366  0.98239713  1
  O  O312  1  0.56586194  0.06624614  0.47784098  1
  O  O313  1  0.58182553  0.07760288  0.97938877  1
  O  O314  1  0.57933054  0.40311745  0.49128603  1
  O  O315  1  0.57243327  0.40297164  0.98332994  1
  O  O316  1  0.57363334  0.73712969  0.46601684  1
  O  O317  1  0.56477334  0.73468199  0.97203205  1
  O  O318  1  0.91724733  0.08291017  0.48201309  1
  O  O319  1  0.89781815  0.06996519  0.97791720  1
  O  O320  1  0.89850631  0.39371475  0.47949906  1
  O  O321  1  0.89420159  0.39621173  0.97439508  1
  O  O322  1  0.91251869  0.73870368  0.48742320  1
  O  O323  1  0.90312507  0.74671968  0.97172252  1
  O  O324  1  0.08423262  0.26286313  0.23641911  1
  O  O325  1  0.09310625  0.26359911  0.73559483  1
  O  O326  1  0.09606276  0.58320433  0.22695653  1
  O  O327  1  0.08061000  0.58396966  0.73260447  1
  O  O328  1  0.09957240  0.93541326  0.23127312  1
  O  O329  1  0.10181101  0.94246640  0.73775492  1
  O  O330  1  0.41930371  0.26199547  0.23792963  1
  O  O331  1  0.43578777  0.26193253  0.72456454  1
  O  O332  1  0.43491916  0.58979942  0.22713867  1
  O  O333  1  0.43525789  0.60064120  0.73615557  1
  O  O334  1  0.42332487  0.93156147  0.23260506  1
  O  O335  1  0.43149226  0.93067589  0.71478591  1
  O  O336  1  0.76887894  0.26777010  0.22690304  1
  O  O337  1  0.76570689  0.26575391  0.72514668  1
  O  O338  1  0.74977512  0.59047720  0.22773382  1
  O  O339  1  0.74401114  0.58638960  0.71740475  1
  O  O340  1  0.76641913  0.93491811  0.23345215  1
  O  O341  1  0.76541712  0.93361514  0.72729599  1
  O  O342  1  0.07404133  0.08402318  0.22477842  1
  O  O343  1  0.07181663  0.09649347  0.73134271  1
  O  O344  1  0.06318152  0.43026918  0.22924669  1
  O  O345  1  0.05614712  0.42142238  0.72111621  1
  O  O346  1  0.08416889  0.76317488  0.24067893  1
  O  O347  1  0.06287389  0.77574463  0.72387019  1
  O  O348  1  0.39940739  0.09284061  0.23773720  1
  O  O349  1  0.41800036  0.09574886  0.72484433  1
  O  O350  1  0.40378795  0.43278834  0.22325067  1
  O  O351  1  0.40673906  0.41586936  0.73192341  1
  O  O352  1  0.41648151  0.75039178  0.23219172  1
  O  O353  1  0.40088027  0.76596589  0.72472953  1
  O  O354  1  0.74519029  0.09179933  0.22799159  1
  O  O355  1  0.73662702  0.10784390  0.73110702  1
  O  O356  1  0.73975951  0.42437200  0.22067317  1
  O  O357  1  0.73301484  0.42195622  0.71548866  1
  O  O358  1  0.73313686  0.76624037  0.24276413  1
  O  O359  1  0.73201466  0.75392435  0.73731543  1
