# generated using pymatgen
data_BaLaInIrO6
_symmetry_space_group_name_H-M   'P 1'
_cell_length_a   17.52402824
_cell_length_b   17.55304262
_cell_length_c   16.48117258
_cell_angle_alpha   89.97243992
_cell_angle_beta   90.01495286
_cell_angle_gamma   90.00619060
_symmetry_Int_Tables_number   1
_chemical_formula_structural   BaLaInIrO6
_chemical_formula_sum   'Ba36 La36 In36 Ir36 O216'
_cell_volume   5069.60813853
_cell_formula_units_Z   36
loop_
 _symmetry_equiv_pos_site_id
 _symmetry_equiv_pos_as_xyz
  1  'x, y, z'
loop_
 _atom_site_type_symbol
 _atom_site_label
 _atom_site_symmetry_multiplicity
 _atom_site_fract_x
 _atom_site_fract_y
 _atom_site_fract_z
 _atom_site_occupancy
  Ba  Ba0  1  0.33359720  0.83965638  0.12336533  1
  Ba  Ba1  1  0.83476106  0.99293219  0.87396332  1
  Ba  Ba2  1  0.66777818  0.84843348  0.12434307  1
  Ba  Ba3  1  0.49774795  0.32443931  0.37823970  1
  Ba  Ba4  1  0.49586390  0.00822802  0.12397255  1
  Ba  Ba5  1  0.33312698  0.49511916  0.37557454  1
  Ba  Ba6  1  0.17139710  0.32415669  0.87309639  1
  Ba  Ba7  1  0.66677664  0.17533166  0.12194590  1
  Ba  Ba8  1  0.83774271  0.32318134  0.37716677  1
  Ba  Ba9  1  0.49853532  0.67116214  0.62236939  1
  Ba  Ba10  1  0.33168614  0.50645844  0.62367289  1
  Ba  Ba11  1  0.66364105  0.48813467  0.37428625  1
  Ba  Ba12  1  0.66684276  0.15840040  0.87444406  1
  Ba  Ba13  1  0.16255203  0.34341182  0.62370911  1
  Ba  Ba14  1  0.49460324  0.00700623  0.62880202  1
  Ba  Ba15  1  0.16465487  0.68095628  0.12299299  1
  Ba  Ba16  1  -0.00363089  0.15497396  0.37692728  1
  Ba  Ba17  1  0.32848283  0.82771197  0.37755847  1
  Ba  Ba18  1  0.66426254  0.15838685  0.37332151  1
  Ba  Ba19  1  0.83256661  0.67441937  0.62425026  1
  Ba  Ba20  1  0.50302859  0.33808368  0.62405997  1
  Ba  Ba21  1  1.00303270  0.17183770  0.62786254  1
  Ba  Ba22  1  0.83091728  0.01234724  0.62376409  1
  Ba  Ba23  1  0.16371583  0.00682982  0.62275629  1
  Ba  Ba24  1  0.32964026  0.83811790  0.62856859  1
  Ba  Ba25  1  1.00222564  0.50710409  0.62597007  1
  Ba  Ba26  1  0.16872132  0.00556004  0.12870210  1
  Ba  Ba27  1  1.00073964  0.17467937  0.12350601  1
  Ba  Ba28  1  0.50115340  0.32331408  0.87205692  1
  Ba  Ba29  1  0.99847962  0.51281447  0.13096655  1
  Ba  Ba30  1  0.83508385  0.33933118  0.62851681  1
  Ba  Ba31  1  0.16267850  0.98975412  0.37568360  1
  Ba  Ba32  1  0.33339476  0.49140595  0.87265754  1
  Ba  Ba33  1  0.83834136  0.31892669  0.87901024  1
  Ba  Ba34  1  0.17234263  0.32648892  0.37468540  1
  Ba  Ba35  1  0.50348933  0.99095596  0.87636323  1
  La  La36  1  0.67704564  0.50656344  0.62316751  1
  La  La37  1  0.49811026  0.34453331  0.12516697  1
  La  La38  1  0.32507616  0.15192497  0.37619132  1
  La  La39  1  0.83998911  0.65239720  0.87341761  1
  La  La40  1  0.49879183  0.98446582  0.37420069  1
  La  La41  1  1.00719515  0.84944488  0.12060437  1
  La  La42  1  0.66479859  0.82352344  0.38043555  1
  La  La43  1  0.82616616  0.01931702  0.12073077  1
  La  La44  1  0.33871597  0.17901695  0.12540114  1
  La  La45  1  0.67032548  0.18184415  0.62731640  1
  La  La46  1  0.50074058  0.65391984  0.37242746  1
  La  La47  1  0.16164096  0.35498755  0.12563605  1
  La  La48  1  -0.00415564  0.15011285  0.87502626  1
  La  La49  1  0.16764832  0.65834885  0.37203719  1
  La  La50  1  1.00655995  0.84710942  0.62266200  1
  La  La51  1  0.33299127  0.14961721  0.87270619  1
  La  La52  1  0.16948965  0.65152371  0.87710370  1
  La  La53  1  0.66574171  0.82497411  0.87045176  1
  La  La54  1  0.83959494  0.98992959  0.37180810  1
  La  La55  1  0.82998559  0.68506009  0.12763972  1
  La  La56  1  0.49244345  0.67748708  0.12276917  1
  La  La57  1  0.16202415  0.67606360  0.62490604  1
  La  La58  1  -0.00384396  0.82239128  0.37387975  1
  La  La59  1  0.66856563  0.85409354  0.62622663  1
  La  La60  1  0.66154338  0.48661853  0.87548417  1
  La  La61  1  0.33586978  0.17876238  0.62426227  1
  La  La62  1  -0.00166536  0.48337263  0.37548475  1
  La  La63  1  0.50131831  0.65769560  0.87407401  1
  La  La64  1  0.00035723  0.48357323  0.87789392  1
  La  La65  1  0.33373146  0.51290560  0.12270204  1
  La  La66  1  0.33001869  0.81557453  0.87494322  1
  La  La67  1  0.67279212  0.51536121  0.12253035  1
  La  La68  1  0.82892688  0.34449685  0.12690980  1
  La  La69  1  0.16910780  0.98485317  0.87431469  1
  La  La70  1  0.84114499  0.65361345  0.37650336  1
  La  La71  1  -0.00206998  0.81891699  0.87328032  1
  In  In72  1  0.16707077  0.50165861  0.74928556  1
  In  In73  1  0.33340471  0.33504626  0.50107709  1
  In  In74  1  0.49825695  0.83130297  0.74953634  1
  In  In75  1  0.83271612  0.50151929  0.24964186  1
  In  In76  1  0.00045480  -0.00432285  0.75006673  1
  In  In77  1  0.83431439  0.50025007  -0.00068813  1
  In  In78  1  0.66924655  0.66996873  0.24970542  1
  In  In79  1  0.00159683  0.32995928  0.50004083  1
  In  In80  1  0.50116937  0.83259985  -0.00286057  1
  In  In81  1  0.49864110  0.16673685  0.24921548  1
  In  In82  1  0.00177499  0.33102838  0.24815214  1
  In  In83  1  0.50082545  0.50134922  0.00227679  1
  In  In84  1  0.33271124  -0.00081121  0.24917944  1
  In  In85  1  0.83391782  0.83465104  -0.00085331  1
  In  In86  1  0.16779372  0.16552861  -0.00045129  1
  In  In87  1  -0.00071835  0.66718422  0.00094157  1
  In  In88  1  0.16668982  0.16485795  0.75113702  1
  In  In89  1  0.83316346  0.83222468  0.74883107  1
  In  In90  1  0.49739474  0.16253281  0.50005671  1
  In  In91  1  0.50103443  0.16735568  -0.00108460  1
  In  In92  1  0.33219190  -0.00286200  0.50537265  1
  In  In93  1  0.50183471  0.50098585  0.75008019  1
  In  In94  1  0.33068644  0.66906303  0.25096148  1
  In  In95  1  0.50305576  0.83173899  0.25030038  1
  In  In96  1  0.83515394  0.49952253  0.50028590  1
  In  In97  1  0.66574421  0.00275998  0.49686683  1
  In  In98  1  0.33248416  0.33511519  0.24747736  1
  In  In99  1  0.83058607  0.16756546  0.25121245  1
  In  In100  1  0.16897579  0.16637048  0.24720570  1
  In  In101  1  0.66667202  0.66794856  0.50073279  1
  In  In102  1  0.50337321  0.50006541  0.50094563  1
  In  In103  1  0.33096437  0.33218353  0.00075590  1
  In  In104  1  0.83244307  0.83348965  0.50088393  1
  In  In105  1  0.66950157  0.33368149  0.75326363  1
  In  In106  1  0.00026000  0.33217927  0.75223419  1
  In  In107  1  0.66811762  0.66750321  0.75253280  1
  Ir  Ir108  1  0.83276066  0.16400372  0.75164437  1
  Ir  Ir109  1  0.83589728  0.83518169  0.24833023  1
  Ir  Ir110  1  0.83888913  0.16704580  -0.00277525  1
  Ir  Ir111  1  0.66527173  0.00241205  0.75164172  1
  Ir  Ir112  1  0.49946499  0.16306875  0.74876465  1
  Ir  Ir113  1  0.00291983  0.66873704  0.74951876  1
  Ir  Ir114  1  0.83010135  0.16427107  0.50314950  1
  Ir  Ir115  1  -0.00217814  -0.00331917  0.49455796  1
  Ir  Ir116  1  0.16478711  0.82898180  0.75191730  1
  Ir  Ir117  1  0.83499634  0.50440014  0.75514660  1
  Ir  Ir118  1  0.66300670  0.33574132  0.24734518  1
  Ir  Ir119  1  0.16432104  0.50766971  0.24946869  1
  Ir  Ir120  1  0.66954737  0.32961699  0.49773950  1
  Ir  Ir121  1  0.16569827  0.51126737  0.49621456  1
  Ir  Ir122  1  0.33605174  0.32854864  0.75018707  1
  Ir  Ir123  1  0.00164324  0.33409347  0.00265729  1
  Ir  Ir124  1  0.33047250  0.67022478  0.50057867  1
  Ir  Ir125  1  0.67278797  -0.00362760  0.24893891  1
  Ir  Ir126  1  0.66824430  0.33493312  0.00407919  1
  Ir  Ir127  1  0.16378445  0.83493962  -0.00294425  1
  Ir  Ir128  1  0.32992935  -0.00354321  -0.00564374  1
  Ir  Ir129  1  0.67010841  0.66776253  0.00080521  1
  Ir  Ir130  1  0.00309300  0.66955571  0.49781142  1
  Ir  Ir131  1  0.16049930  0.82954731  0.49929066  1
  Ir  Ir132  1  0.32935678  0.66761593  0.75107660  1
  Ir  Ir133  1  -0.00626340  -0.00611495  0.24803169  1
  Ir  Ir134  1  0.00167810  -0.00242848  0.00134569  1
  Ir  Ir135  1  0.33018944  0.66563077  -0.00171919  1
  Ir  Ir136  1  0.67113827  0.00053447  -0.00128160  1
  Ir  Ir137  1  0.33090046  -0.00374821  0.75598295  1
  Ir  Ir138  1  0.16429256  0.50322562  0.00312057  1
  Ir  Ir139  1  0.15836008  0.83281349  0.24984452  1
  Ir  Ir140  1  -0.00122844  0.67196976  0.25473327  1
  Ir  Ir141  1  0.49948368  0.82958606  0.49896289  1
  Ir  Ir142  1  0.50392702  0.50006674  0.24367729  1
  Ir  Ir143  1  0.16716047  0.16280282  0.49861623  1
  O  O144  1  0.29279810  0.31858196  0.12444258  1
  O  O145  1  0.31136439  0.32016161  0.63147226  1
  O  O146  1  0.31170566  0.65476736  0.12013872  1
  O  O147  1  0.29759002  0.66696366  0.62738115  1
  O  O148  1  0.31624645  0.99258787  0.11348378  1
  O  O149  1  0.31135104  0.99220147  0.63725380  1
  O  O150  1  0.63522146  0.33275726  0.12588550  1
  O  O151  1  0.65660484  0.32533584  0.62081335  1
  O  O152  1  0.63216811  0.65798621  0.11937399  1
  O  O153  1  0.64862695  0.64192486  0.62782673  1
  O  O154  1  0.64883720  1.00132421  0.12307959  1
  O  O155  1  0.64563725  0.99395076  0.63123298  1
  O  O156  1  0.96755074  0.33258915  0.11916354  1
  O  O157  1  0.98681035  0.33840819  0.62520236  1
  O  O158  1  0.96721536  0.66712578  0.13257348  1
  O  O159  1  0.98034402  0.66037925  0.62202380  1
  O  O160  1  0.96417255  0.98545003  0.12470673  1
  O  O161  1  0.98100554  0.98633264  0.61639307  1
  O  O162  1  0.20304115  0.15659434  0.12132871  1
  O  O163  1  0.19641117  0.16087737  0.62037156  1
  O  O164  1  0.19561333  0.49934463  0.12638507  1
  O  O165  1  0.17931105  0.51515138  0.61823804  1
  O  O166  1  0.18441551  0.83320903  0.12296932  1
  O  O167  1  0.18321437  0.81420888  0.62565598  1
  O  O168  1  0.51896243  0.15839852  0.12347789  1
  O  O169  1  0.53269910  0.16003123  0.63022914  1
  O  O170  1  0.53754731  0.49400490  0.12627111  1
  O  O171  1  0.53996772  0.50309255  0.62641401  1
  O  O172  1  0.52009023  0.81637750  0.12175953  1
  O  O173  1  0.53166602  0.82564035  0.62064125  1
  O  O174  1  0.85099712  0.16041068  0.11840297  1
  O  O175  1  0.85197149  0.17128611  0.62890036  1
  O  O176  1  0.85084758  0.48506399  0.12391449  1
  O  O177  1  0.85114302  0.50262125  0.63409661  1
  O  O178  1  0.87052784  0.82276143  0.12849058  1
  O  O179  1  0.87064206  0.83156666  0.62434503  1
  O  O180  1  0.14568806  0.16788175  0.37942023  1
  O  O181  1  0.12997615  0.16784084  0.87815924  1
  O  O182  1  0.13490230  0.51849542  0.37163881  1
  O  O183  1  0.13728534  0.51099404  0.88199035  1
  O  O184  1  0.13018330  0.83279381  0.37488888  1
  O  O185  1  0.13342657  0.84266468  0.87468213  1
  O  O186  1  0.46516243  0.16773764  0.37313765  1
  O  O187  1  0.47077230  0.16641511  0.87027967  1
  O  O188  1  0.48147281  0.50836869  0.36264451  1
  O  O189  1  0.47984812  0.51633417  0.87853768  1
  O  O190  1  0.47917892  0.84328806  0.38013721  1
  O  O191  1  0.46642608  0.82890962  0.87566360  1
  O  O192  1  0.81442546  0.15532294  0.38263610  1
  O  O193  1  0.81678740  0.16034423  0.87496910  1
  O  O194  1  0.81191833  0.51783672  0.37304498  1
  O  O195  1  0.80090069  0.50968190  0.87492616  1
  O  O196  1  0.80280266  0.84555051  0.36764210  1
  O  O197  1  0.79978721  0.83607213  0.87474336  1
  O  O198  1  0.01515874  -0.00104021  0.37019372  1
  O  O199  1  0.03099039  0.00621320  0.88158039  1
  O  O200  1  0.02208527  0.34217977  0.37505663  1
  O  O201  1  0.02166839  0.34347114  0.88367887  1
  O  O202  1  0.03199289  0.68526348  0.37674789  1
  O  O203  1  0.03323491  0.68164915  0.86866418  1
  O  O204  1  0.36412533  0.00846786  0.37942749  1
  O  O205  1  0.35438211  0.00594890  0.87524448  1
  O  O206  1  0.34624015  0.34223347  0.37369168  1
  O  O207  1  0.35226697  0.33733173  0.86977364  1
  O  O208  1  0.36124420  0.67031029  0.37987976  1
  O  O209  1  0.36118412  0.67398899  0.87396658  1
  O  O210  1  0.70285115  -0.00437143  0.36729657  1
  O  O211  1  0.68899985  -0.00043454  0.87537154  1
  O  O212  1  0.68963414  0.33279541  0.37135246  1
  O  O213  1  0.69140748  0.34380973  0.88421924  1
  O  O214  1  0.70751753  0.68506376  0.37439507  1
  O  O215  1  0.70594634  0.68317424  0.88379657  1
  O  O216  1  0.06874825  0.08736893  0.01885645  1
  O  O217  1  0.07251709  0.08928847  0.51644642  1
  O  O218  1  0.07082381  0.43005020  0.02627123  1
  O  O219  1  0.07776614  0.44054995  0.50454467  1
  O  O220  1  0.06697518  0.77084291  0.01643535  1
  O  O221  1  0.06432906  0.76516865  0.52235202  1
  O  O222  1  0.39151232  0.09487782  0.01034601  1
  O  O223  1  0.39863270  0.09505517  0.53114236  1
  O  O224  1  0.40455952  0.42945824  0.03190183  1
  O  O225  1  0.41210442  0.42639819  0.51668792  1
  O  O226  1  0.40539687  0.74940653  0.01664476  1
  O  O227  1  0.40448018  0.75910885  0.52004764  1
  O  O228  1  0.74576356  0.09176686  0.02015230  1
  O  O229  1  0.73407526  0.10269651  0.52517655  1
  O  O230  1  0.73435356  0.42712651  0.02615352  1
  O  O231  1  0.73793612  0.42199976  0.51886105  1
  O  O232  1  0.74115660  0.75421800  0.02930683  1
  O  O233  1  0.72893956  0.77101087  0.52490201  1
  O  O234  1  0.09632776  0.27085098  0.02622024  1
  O  O235  1  0.09732357  0.25089050  0.51530061  1
  O  O236  1  0.09658196  0.59594160  0.01341170  1
  O  O237  1  0.10343349  0.61189975  0.51163044  1
  O  O238  1  0.09394887  0.92687023  0.02230027  1
  O  O239  1  0.08655957  0.91962627  0.52135334  1
  O  O240  1  0.43045346  0.26467290  0.02703705  1
  O  O241  1  0.42060850  0.25313706  0.52443773  1
  O  O242  1  0.42405434  0.59714207  0.02606135  1
  O  O243  1  0.41727745  0.59683194  0.51370556  1
  O  O244  1  0.42108889  0.92679567  0.01211651  1
  O  O245  1  0.43107891  0.91958094  0.51538148  1
  O  O246  1  0.76835775  0.26727117  0.02460090  1
  O  O247  1  0.76134970  0.25704632  0.52169661  1
  O  O248  1  0.76234054  0.60077147  0.02878708  1
  O  O249  1  0.75783284  0.58854649  0.51768342  1
  O  O250  1  0.76599913  0.93443349  0.02295122  1
  O  O251  1  0.75646791  0.92731384  0.51741488  1
  O  O252  1  0.24087618  0.07184113  0.27567824  1
  O  O253  1  0.24001158  0.06490238  0.78122540  1
  O  O254  1  0.23363548  0.41670600  0.25699176  1
  O  O255  1  0.24837073  0.40553596  0.76005723  1
  O  O256  1  0.22962907  0.74208259  0.27170171  1
  O  O257  1  0.23567785  0.73855364  0.78010977  1
  O  O258  1  0.57602790  0.05855862  0.27409191  1
  O  O259  1  0.57165077  0.07425322  0.76984391  1
  O  O260  1  0.56678231  0.40261417  0.26326124  1
  O  O261  1  0.58293640  0.41288614  0.77545554  1
  O  O262  1  0.57658732  0.73966916  0.28501246  1
  O  O263  1  0.57302654  0.74050706  0.78460528  1
  O  O264  1  0.89900839  0.05896889  0.26162063  1
  O  O265  1  0.90830085  0.07759678  0.76522700  1
  O  O266  1  0.91230736  0.41289765  0.26846950  1
  O  O267  1  0.90464544  0.41535532  0.77470497  1
  O  O268  1  0.90104510  0.73793807  0.27893468  1
  O  O269  1  0.90740213  0.73156575  0.77678094  1
  O  O270  1  0.27210085  0.23000414  0.27289956  1
  O  O271  1  0.27119304  0.23199419  0.77029892  1
  O  O272  1  0.25461185  0.57720379  0.26689071  1
  O  O273  1  0.25518513  0.58259974  0.77503319  1
  O  O274  1  0.25005945  0.90186221  0.26299857  1
  O  O275  1  0.26013353  0.89962186  0.78265731  1
  O  O276  1  0.59645372  0.24499255  0.26537183  1
  O  O277  1  0.58899765  0.23662270  0.76110227  1
  O  O278  1  0.59194103  0.57288317  0.26419425  1
  O  O279  1  0.59501957  0.57750377  0.78999533  1
  O  O280  1  0.60783361  0.90277473  0.27415788  1
  O  O281  1  0.60082900  0.90459947  0.76905132  1
  O  O282  1  0.92457757  0.23792525  0.26366381  1
  O  O283  1  0.92682014  0.23144322  0.77445304  1
  O  O284  1  0.93387334  0.58005103  0.28103766  1
  O  O285  1  0.93458593  0.57164079  0.78152353  1
  O  O286  1  0.92754120  0.90066676  0.27671425  1
  O  O287  1  0.93381639  0.89839169  0.77544942  1
  O  O288  1  0.25944048  0.23077658  0.48176763  1
  O  O289  1  0.26961106  0.22895890  0.97032943  1
  O  O290  1  0.25476189  0.58587116  0.47333103  1
  O  O291  1  0.25522158  0.57577192  0.97709450  1
  O  O292  1  0.24993241  0.90296010  0.48864261  1
  O  O293  1  0.26169315  0.89976403  0.96947218  1
  O  O294  1  0.59939636  0.23837663  0.49079453  1
  O  O295  1  0.59886337  0.24696306  0.98356972  1
  O  O296  1  0.58297299  0.58462275  0.46615223  1
  O  O297  1  0.60648938  0.57361684  0.97782900  1
  O  O298  1  0.59312750  0.89689122  0.47910471  1
  O  O299  1  0.60542511  0.90356137  0.97659213  1
  O  O300  1  0.92001065  0.23384159  0.48859293  1
  O  O301  1  0.93795701  0.23498148  0.97568495  1
  O  O302  1  0.93838971  0.57793384  0.47098703  1
  O  O303  1  0.92855430  0.57308632  0.96775077  1
  O  O304  1  0.92860155  0.90621992  0.46857194  1
  O  O305  1  0.93978284  0.90068329  0.97858767  1
  O  O306  1  0.23878948  0.07639673  0.48015567  1
  O  O307  1  0.23627827  0.05985260  0.96910940  1
  O  O308  1  0.23645651  0.42060627  0.48935371  1
  O  O309  1  0.23363163  0.41243032  0.99175893  1
  O  O310  1  0.23030283  0.73717013  0.47700686  1
  O  O311  1  0.23551791  0.74023926  0.96884636  1
  O  O312  1  0.56501427  0.06287226  0.47242796  1
  O  O313  1  0.58073297  0.07078375  0.98410652  1
  O  O314  1  0.58296602  0.40260128  0.48471340  1
  O  O315  1  0.57989367  0.40671838  0.98219141  1
  O  O316  1  0.56569234  0.74031274  0.47059446  1
  O  O317  1  0.57598585  0.73104360  0.97253596  1
  O  O318  1  0.89904536  0.06452031  0.47827502  1
  O  O319  1  0.91120765  0.07318136  0.97736246  1
  O  O320  1  0.91536473  0.41543431  0.47767048  1
  O  O321  1  0.91235634  0.40563500  0.98151825  1
  O  O322  1  0.90719243  0.73509741  0.47222429  1
  O  O323  1  0.90439519  0.73756645  0.97010859  1
  O  O324  1  0.10259032  0.26673173  0.22173616  1
  O  O325  1  0.09591601  0.26071917  0.73651065  1
  O  O326  1  0.09627657  0.60678826  0.23837865  1
  O  O327  1  0.10067358  0.60980727  0.73480806  1
  O  O328  1  0.08297956  0.92072267  0.22510847  1
  O  O329  1  0.09544225  0.91644164  0.73064770  1
  O  O330  1  0.43137025  0.26857867  0.21626465  1
  O  O331  1  0.42468379  0.25002331  0.72473069  1
  O  O332  1  0.43390303  0.59066050  0.22126348  1
  O  O333  1  0.41871187  0.59560733  0.73475822  1
  O  O334  1  0.43126612  0.92780985  0.24371972  1
  O  O335  1  0.42052789  0.92554294  0.73832173  1
  O  O336  1  0.75905665  0.27085034  0.22736488  1
  O  O337  1  0.75870075  0.25228613  0.73798896  1
  O  O338  1  0.76226010  0.59807172  0.21633565  1
  O  O339  1  0.77125133  0.59784457  0.74437521  1
  O  O340  1  0.77355131  0.93281260  0.22181872  1
  O  O341  1  0.75346181  0.93104428  0.73123467  1
  O  O342  1  0.06447862  0.08330341  0.23265733  1
  O  O343  1  0.07585970  0.08567687  0.73684586  1
  O  O344  1  0.07768886  0.43413699  0.23454431  1
  O  O345  1  0.06926837  0.43517671  0.75082158  1
  O  O346  1  0.05945396  0.76931873  0.23037643  1
  O  O347  1  0.06625452  0.76502588  0.72398723  1
  O  O348  1  0.39734036  0.10045726  0.22378438  1
  O  O349  1  0.39646386  0.09499340  0.73295976  1
  O  O350  1  0.40968373  0.43458826  0.21526526  1
  O  O351  1  0.40932978  0.41739678  0.73279676  1
  O  O352  1  0.41473127  0.74923028  0.22844171  1
  O  O353  1  0.40088958  0.75439854  0.73607659  1
  O  O354  1  0.74022960  0.08757227  0.22867116  1
  O  O355  1  0.73328642  0.09823077  0.72741712  1
  O  O356  1  0.73027511  0.42786080  0.22274461  1
  O  O357  1  0.73872694  0.44045899  0.73492307  1
  O  O358  1  0.75036367  0.76289453  0.22166449  1
  O  O359  1  0.72986976  0.77046495  0.72387930  1
