# generated using pymatgen
data_BaLaInIrO6
_symmetry_space_group_name_H-M   'P 1'
_cell_length_a   17.53477820
_cell_length_b   17.57673367
_cell_length_c   16.50748058
_cell_angle_alpha   90.02091024
_cell_angle_beta   89.95266146
_cell_angle_gamma   90.00636133
_symmetry_Int_Tables_number   1
_chemical_formula_structural   BaLaInIrO6
_chemical_formula_sum   'Ba36 La36 In36 Ir36 O216'
_cell_volume   5087.67152314
_cell_formula_units_Z   36
loop_
 _symmetry_equiv_pos_site_id
 _symmetry_equiv_pos_as_xyz
  1  'x, y, z'
loop_
 _atom_site_type_symbol
 _atom_site_label
 _atom_site_symmetry_multiplicity
 _atom_site_fract_x
 _atom_site_fract_y
 _atom_site_fract_z
 _atom_site_occupancy
  Ba  Ba0  1  0.16873432  0.67351238  0.62365831  1
  Ba  Ba1  1  0.49751250  0.32565796  0.37773727  1
  Ba  Ba2  1  0.49876553  0.99361690  0.87210460  1
  Ba  Ba3  1  0.00103239  0.15355932  0.87842239  1
  Ba  Ba4  1  0.83324290  0.01142373  0.62201633  1
  Ba  Ba5  1  0.16863340  0.65615105  0.87088520  1
  Ba  Ba6  1  -0.00096756  0.15241612  0.36727237  1
  Ba  Ba7  1  0.32837372  0.82457061  0.37114559  1
  Ba  Ba8  1  0.66788470  0.49117863  0.87437589  1
  Ba  Ba9  1  0.33201795  0.16335206  0.87845315  1
  Ba  Ba10  1  0.16830117  0.32499016  0.37306093  1
  Ba  Ba11  1  0.84029183  0.98937792  0.37117358  1
  Ba  Ba12  1  0.32695290  0.17499079  0.63197523  1
  Ba  Ba13  1  0.49849206  0.65646543  0.37075929  1
  Ba  Ba14  1  1.00287704  0.84757931  0.62582611  1
  Ba  Ba15  1  0.33308791  0.83964859  0.12269532  1
  Ba  Ba16  1  0.49767063  0.65430939  0.87840739  1
  Ba  Ba17  1  0.33296035  0.50525140  0.62387970  1
  Ba  Ba18  1  0.66960879  0.18107531  0.12362483  1
  Ba  Ba19  1  0.83399731  0.67367629  0.12609975  1
  Ba  Ba20  1  0.49858033  0.32859480  0.87548297  1
  Ba  Ba21  1  0.16243327  0.34728888  0.62764975  1
  Ba  Ba22  1  0.49850043  0.34060650  0.62592330  1
  Ba  Ba23  1  -0.00310345  0.49040719  0.37925748  1
  Ba  Ba24  1  1.00324459  0.51327604  0.13175013  1
  Ba  Ba25  1  0.50558998  0.67459925  0.12355766  1
  Ba  Ba26  1  0.16161192  0.34498086  0.12454582  1
  Ba  Ba27  1  0.83534296  0.34635147  0.12515563  1
  Ba  Ba28  1  0.67273622  0.16144993  0.37296631  1
  Ba  Ba29  1  0.33181311  0.49348416  0.87251477  1
  Ba  Ba30  1  0.49994592  0.34082664  0.12451844  1
  Ba  Ba31  1  -0.00152462  0.82577605  0.37735172  1
  Ba  Ba32  1  0.16625087  0.99122616  0.37591455  1
  Ba  Ba33  1  0.17484597  0.99170408  0.87454120  1
  Ba  Ba34  1  0.33284110  0.49523397  0.37943394  1
  Ba  Ba35  1  0.49336818  0.67294770  0.62709073  1
  La  La36  1  0.66001052  0.15399448  0.87486179  1
  La  La37  1  0.66362880  0.81416596  0.87211850  1
  La  La38  1  0.33481369  0.84699442  0.62531130  1
  La  La39  1  -0.00533558  0.48122504  0.87534265  1
  La  La40  1  0.84471349  0.98460330  0.87646515  1
  La  La41  1  0.67245445  0.51351398  0.12331036  1
  La  La42  1  0.83887830  0.64525237  0.87790714  1
  La  La43  1  0.66062388  0.16780381  0.62737773  1
  La  La44  1  0.49574507  0.99314823  0.37681049  1
  La  La45  1  0.49635739  0.01284941  0.62259260  1
  La  La46  1  0.82563607  0.68049859  0.62785690  1
  La  La47  1  0.49367656  0.01301381  0.12809701  1
  La  La48  1  1.00621582  0.18442348  0.12331192  1
  La  La49  1  0.83642168  0.31765007  0.87711464  1
  La  La50  1  0.33289019  0.81697102  0.87036573  1
  La  La51  1  1.00686263  0.51802428  0.62573246  1
  La  La52  1  0.16774393  0.65662058  0.37818528  1
  La  La53  1  0.66921613  0.84742838  0.12471674  1
  La  La54  1  1.00714945  0.84660692  0.12615836  1
  La  La55  1  0.84267310  0.65150473  0.37341166  1
  La  La56  1  0.66152023  0.82488742  0.37332177  1
  La  La57  1  1.00646764  0.18055481  0.62533053  1
  La  La58  1  0.83506899  0.01125230  0.12493454  1
  La  La59  1  0.82946125  0.34147168  0.62420407  1
  La  La60  1  0.00042541  0.81503730  0.87312867  1
  La  La61  1  0.33501379  0.18005871  0.12623857  1
  La  La62  1  0.84101018  0.31728156  0.37320322  1
  La  La63  1  0.66536347  0.51510069  0.62689036  1
  La  La64  1  0.33626306  0.51575896  0.12402011  1
  La  La65  1  0.16054430  0.01763337  0.12339216  1
  La  La66  1  0.15776633  0.01778599  0.62676352  1
  La  La67  1  0.67203707  0.84730778  0.62556929  1
  La  La68  1  0.32651097  0.16071644  0.37648517  1
  La  La69  1  0.17405060  0.32229086  0.87469725  1
  La  La70  1  0.15967331  0.67970028  0.13102641  1
  La  La71  1  0.65657941  0.48397319  0.37041952  1
  In  In72  1  0.33211327  0.66982072  0.49956744  1
  In  In73  1  0.83280511  0.83244055  0.49962685  1
  In  In74  1  0.33087802  0.66781689  0.00222552  1
  In  In75  1  0.50047646  0.83431620  0.24812627  1
  In  In76  1  0.67048009  0.33337897  0.75091526  1
  In  In77  1  0.83546091  0.16731935  0.74950717  1
  In  In78  1  0.66744324  0.00064031  0.24847853  1
  In  In79  1  0.50158890  0.49951655  0.49957020  1
  In  In80  1  0.83368949  0.16396486  -0.00155924  1
  In  In81  1  0.66933846  -0.00141266  0.75237371  1
  In  In82  1  0.00157401  0.33726553  0.25219896  1
  In  In83  1  0.50005135  0.50065440  0.24498397  1
  In  In84  1  0.49906179  0.16709737  0.75159291  1
  In  In85  1  0.49997262  0.83402469  0.49899161  1
  In  In86  1  0.67211671  0.66900451  0.25249646  1
  In  In87  1  0.33233589  0.33640170  0.24812027  1
  In  In88  1  0.16495550  0.50221793  -0.00017515  1
  In  In89  1  0.33127389  0.33787912  0.00254824  1
  In  In90  1  0.33301016  -0.00078630  0.74902152  1
  In  In91  1  0.66948425  0.66703641  0.49781582  1
  In  In92  1  0.50065308  0.16659279  0.25285877  1
  In  In93  1  0.83597297  0.49740469  0.74661469  1
  In  In94  1  0.83360577  0.83008196  0.00050850  1
  In  In95  1  0.50138311  0.16756743  0.00291910  1
  In  In96  1  -0.00002246  0.66597059  0.00152337  1
  In  In97  1  0.33158083  0.33239032  0.50144639  1
  In  In98  1  0.50325274  0.83626662  -0.00274124  1
  In  In99  1  0.83693718  0.16541037  0.24575503  1
  In  In100  1  0.16565072  0.83475398  0.49910352  1
  In  In101  1  0.33207073  -0.00121801  0.00277505  1
  In  In102  1  0.16284923  0.16843848  0.49724047  1
  In  In103  1  0.83225153  0.49745834  0.50395755  1
  In  In104  1  0.66720297  0.00237981  0.49750352  1
  In  In105  1  0.83444506  0.83173504  0.75239438  1
  In  In106  1  0.16667499  0.83452852  0.74963088  1
  In  In107  1  0.66935195  0.32964480  0.50059374  1
  Ir  Ir108  1  0.32565292  0.00152418  0.24668001  1
  Ir  Ir109  1  0.84150071  0.17056957  0.50228181  1
  Ir  Ir110  1  0.16722951  0.50620927  0.25400084  1
  Ir  Ir111  1  0.32570956  0.66762049  0.24854260  1
  Ir  Ir112  1  0.16172728  0.16626596  0.00061688  1
  Ir  Ir113  1  0.49535148  0.16174381  0.49920180  1
  Ir  Ir114  1  0.50594211  0.50048186  0.00142872  1
  Ir  Ir115  1  0.33213826  0.00212015  0.50043283  1
  Ir  Ir116  1  0.67030715  0.66527577  -0.00281311  1
  Ir  Ir117  1  -0.00050091  0.67030557  0.25462377  1
  Ir  Ir118  1  0.50081598  0.49976112  0.75401825  1
  Ir  Ir119  1  0.67281368  0.33676329  0.24820730  1
  Ir  Ir120  1  0.00232308  -0.00543455  -0.00271700  1
  Ir  Ir121  1  -0.00397960  0.66544646  0.50015991  1
  Ir  Ir122  1  -0.00483545  0.33173588  0.50428992  1
  Ir  Ir123  1  0.33232854  0.66515473  0.74978863  1
  Ir  Ir124  1  0.00245650  0.00147501  0.75344426  1
  Ir  Ir125  1  0.15843875  0.50195255  0.74789530  1
  Ir  Ir126  1  0.16469578  0.83424600  0.24608307  1
  Ir  Ir127  1  0.83707183  0.83330291  0.24501172  1
  Ir  Ir128  1  0.67222761  0.33828370  0.00189198  1
  Ir  Ir129  1  -0.00010474  0.33267420  0.75265698  1
  Ir  Ir130  1  0.50253218  0.82985689  0.74765616  1
  Ir  Ir131  1  0.67313083  -0.00213922  -0.00077622  1
  Ir  Ir132  1  -0.00127578  0.00376892  0.50334078  1
  Ir  Ir133  1  0.66403882  0.66662934  0.75087456  1
  Ir  Ir134  1  0.83032446  0.50126229  0.25111277  1
  Ir  Ir135  1  0.00014033  0.33447730  -0.00444689  1
  Ir  Ir136  1  -0.00319500  0.66507717  0.75105290  1
  Ir  Ir137  1  0.16123397  0.16983677  0.75193610  1
  Ir  Ir138  1  0.83467995  0.49849883  0.00015326  1
  Ir  Ir139  1  0.15802143  0.50157652  0.50101712  1
  Ir  Ir140  1  0.00052056  -0.00540957  0.24344198  1
  Ir  Ir141  1  0.16572783  0.16021589  0.24542425  1
  Ir  Ir142  1  0.32938362  0.33660330  0.75180815  1
  Ir  Ir143  1  0.16320716  0.83473032  0.00004083  1
  O  O144  1  0.30585866  0.31820202  0.12600752  1
  O  O145  1  0.31211306  0.33490919  0.63280829  1
  O  O146  1  0.29672884  0.66117588  0.13033641  1
  O  O147  1  0.31882143  0.66377157  0.63092556  1
  O  O148  1  0.29482915  0.99181518  0.12928372  1
  O  O149  1  0.29912531  0.98950237  0.61997251  1
  O  O150  1  0.64891649  0.33944151  0.12514031  1
  O  O151  1  0.65574959  0.30213054  0.62474806  1
  O  O152  1  0.65515270  0.65389749  0.11855417  1
  O  O153  1  0.64194222  0.65403367  0.63329306  1
  O  O154  1  0.63393269  0.98529888  0.11628803  1
  O  O155  1  0.63340032  0.99632518  0.62365161  1
  O  O156  1  0.98571688  0.32703571  0.11879213  1
  O  O157  1  0.96711448  0.32135866  0.62929074  1
  O  O158  1  0.98390719  0.67247462  0.13324762  1
  O  O159  1  0.96393628  0.65666975  0.62495796  1
  O  O160  1  0.97176258  0.98423791  0.11954012  1
  O  O161  1  0.98047361  1.01047997  0.62900100  1
  O  O162  1  0.19262242  0.15758287  0.12284050  1
  O  O163  1  0.17369945  0.16013653  0.62993146  1
  O  O164  1  0.19438009  0.50284189  0.13432866  1
  O  O165  1  0.17940669  0.50105809  0.62440589  1
  O  O166  1  0.18276369  0.81875784  0.12321448  1
  O  O167  1  0.19621137  0.83119923  0.62448167  1
  O  O168  1  0.52514226  0.14874314  0.12669022  1
  O  O169  1  0.52612404  0.15514749  0.61999115  1
  O  O170  1  0.53590892  0.50306823  0.11874036  1
  O  O171  1  0.52783966  0.50239674  0.63340930  1
  O  O172  1  0.53299121  0.83086025  0.12289753  1
  O  O173  1  0.53590436  0.82794300  0.63041524  1
  O  O174  1  0.87147542  0.15674113  0.11928127  1
  O  O175  1  0.86844405  0.17315978  0.62193205  1
  O  O176  1  0.85628538  0.50054041  0.12582823  1
  O  O177  1  0.87634226  0.47853253  0.62687856  1
  O  O178  1  0.87114331  0.82755571  0.12641021  1
  O  O179  1  0.85890533  0.81496268  0.62858610  1
  O  O180  1  0.14859921  0.16057853  0.36663617  1
  O  O181  1  0.14389640  0.18346951  0.87769714  1
  O  O182  1  0.14068768  0.51788231  0.37811533  1
  O  O183  1  0.13092804  0.50430847  0.86780816  1
  O  O184  1  0.14690027  0.83786527  0.36681078  1
  O  O185  1  0.13540823  0.83821939  0.87984105  1
  O  O186  1  0.46366268  0.16208920  0.37991049  1
  O  O187  1  0.48443529  0.16435792  0.87819972  1
  O  O188  1  0.48691873  0.49743224  0.36999847  1
  O  O189  1  0.48129388  0.49552451  0.87999330  1
  O  O190  1  0.47494374  0.85668316  0.37093580  1
  O  O191  1  0.46932371  0.83634117  0.86569525  1
  O  O192  1  0.82422515  0.17479906  0.37897069  1
  O  O193  1  0.80115514  0.17532800  0.87663048  1
  O  O194  1  0.79930726  0.50838608  0.37191634  1
  O  O195  1  0.81859066  0.50510329  0.87819351  1
  O  O196  1  0.80405337  0.83707921  0.36513767  1
  O  O197  1  0.80049270  0.84878861  0.87633763  1
  O  O198  1  0.01832881  -0.00204303  0.37348337  1
  O  O199  1  0.02838760  -0.00030011  0.87478194  1
  O  O200  1  0.01710373  0.33293332  0.38407695  1
  O  O201  1  0.03400420  0.34338415  0.87220396  1
  O  O202  1  0.02824151  0.66848046  0.37811176  1
  O  O203  1  0.01992837  0.67368604  0.87030772  1
  O  O204  1  0.35795638  0.01707472  0.37466283  1
  O  O205  1  0.34644775  0.00709545  0.87609809  1
  O  O206  1  0.34383269  0.32578714  0.37303279  1
  O  O207  1  0.34395739  0.33460069  0.87164177  1
  O  O208  1  0.34704062  0.66728795  0.36675960  1
  O  O209  1  0.34595638  0.67535129  0.87070368  1
  O  O210  1  0.69227592  0.00912181  0.37364138  1
  O  O211  1  0.70957630  0.01253742  0.88148877  1
  O  O212  1  0.70323523  0.34367616  0.36894897  1
  O  O213  1  0.70133249  0.33990440  0.88242386  1
  O  O214  1  0.71159175  0.68533638  0.37478488  1
  O  O215  1  0.70102929  0.67571572  0.87392110  1
  O  O216  1  0.06703776  0.09288624  0.02818254  1
  O  O217  1  0.06862979  0.09429011  0.52368588  1
  O  O218  1  0.06352059  0.42979918  0.01016784  1
  O  O219  1  0.05892691  0.43017101  0.52576026  1
  O  O220  1  0.06344714  0.77440742  0.01453896  1
  O  O221  1  0.06734794  0.75457334  0.51766439  1
  O  O222  1  0.40409100  0.09241527  0.03569723  1
  O  O223  1  0.40262893  0.09240257  0.52401475  1
  O  O224  1  0.40944137  0.43615783  0.02407579  1
  O  O225  1  0.41080362  0.42010114  0.51548843  1
  O  O226  1  0.40662589  0.76025326  0.00552947  1
  O  O227  1  0.39880234  0.77143054  0.52374430  1
  O  O228  1  0.74390907  0.08309848  0.02951674  1
  O  O229  1  0.74227462  0.10926510  0.52410215  1
  O  O230  1  0.73760030  0.43468491  0.02488086  1
  O  O231  1  0.73948887  0.42665024  0.53798329  1
  O  O232  1  0.73196361  0.76130845  0.01906408  1
  O  O233  1  0.73884465  0.75964617  0.53759762  1
  O  O234  1  0.08703392  0.25557543  0.02145798  1
  O  O235  1  0.08472449  0.26200397  0.52371413  1
  O  O236  1  0.09961414  0.60300960  0.02552672  1
  O  O237  1  0.08532094  0.59148649  0.52237985  1
  O  O238  1  0.09938886  0.93049589  0.02611250  1
  O  O239  1  0.09415866  0.93687905  0.52401974  1
  O  O240  1  0.41923488  0.25655135  0.01890617  1
  O  O241  1  0.42785514  0.24964819  0.51873048  1
  O  O242  1  0.43027650  0.58633665  0.02239960  1
  O  O243  1  0.42351820  0.59300782  0.50943930  1
  O  O244  1  0.43538124  0.93388831  0.02469097  1
  O  O245  1  0.42543826  0.93655357  0.52589405  1
  O  O246  1  0.76232863  0.26867526  0.01540567  1
  O  O247  1  0.78074286  0.26792459  0.50939836  1
  O  O248  1  0.76707380  0.59477081  0.01194698  1
  O  O249  1  0.76507260  0.59433439  0.53736619  1
  O  O250  1  0.76320254  0.92888642  0.02988483  1
  O  O251  1  0.75319624  0.92009201  0.52582262  1
  O  O252  1  0.22982379  0.06546493  0.25968433  1
  O  O253  1  0.23317336  0.07954457  0.75599737  1
  O  O254  1  0.23560347  0.41666914  0.26878849  1
  O  O255  1  0.22945663  0.40671478  0.77309955  1
  O  O256  1  0.22727244  0.73470211  0.26838355  1
  O  O257  1  0.24627209  0.73895596  0.76693956  1
  O  O258  1  0.55874452  0.06042204  0.26821136  1
  O  O259  1  0.58047207  0.07500624  0.77066740  1
  O  O260  1  0.58430781  0.40556522  0.26715536  1
  O  O261  1  0.57213902  0.41068262  0.76393733  1
  O  O262  1  0.57983852  0.74312878  0.27272635  1
  O  O263  1  0.57348721  0.73853801  0.77700104  1
  O  O264  1  0.91034529  0.06379283  0.25477808  1
  O  O265  1  0.90413691  0.06357440  0.77554790  1
  O  O266  1  0.89814151  0.40848771  0.27361934  1
  O  O267  1  0.90953183  0.39935743  0.78278058  1
  O  O268  1  0.90146726  0.73613366  0.27592421  1
  O  O269  1  0.90228412  0.72992709  0.77880185  1
  O  O270  1  0.26016879  0.22314575  0.26572278  1
  O  O271  1  0.25146063  0.24829232  0.77519854  1
  O  O272  1  0.25288700  0.58008762  0.27594051  1
  O  O273  1  0.25866484  0.57239170  0.76513225  1
  O  O274  1  0.25753181  0.90494891  0.26463440  1
  O  O275  1  0.27086444  0.89652354  0.76986338  1
  O  O276  1  0.60057417  0.24660660  0.26546392  1
  O  O277  1  0.60436437  0.23266889  0.76978768  1
  O  O278  1  0.60168577  0.56940925  0.26723597  1
  O  O279  1  0.59443501  0.57066630  0.76954800  1
  O  O280  1  0.60967746  0.89623202  0.26340259  1
  O  O281  1  0.59722839  0.89332502  0.77268914  1
  O  O282  1  0.92616085  0.24475722  0.26074458  1
  O  O283  1  0.93544653  0.24064895  0.77311750  1
  O  O284  1  0.92367026  0.57764081  0.27685396  1
  O  O285  1  0.93204500  0.57101218  0.77471595  1
  O  O286  1  0.93476055  0.89768862  0.26025880  1
  O  O287  1  0.93586004  0.90535110  0.77958589  1
  O  O288  1  0.26005566  0.23547695  0.48215686  1
  O  O289  1  0.24772647  0.23882480  0.98525576  1
  O  O290  1  0.24413687  0.57651573  0.48581176  1
  O  O291  1  0.26597032  0.56821171  0.99225275  1
  O  O292  1  0.26667086  0.91096916  0.48356160  1
  O  O293  1  0.26102575  0.89450410  0.97727084  1
  O  O294  1  0.58834220  0.22913478  0.48233438  1
  O  O295  1  0.60607494  0.24417742  0.97904804  1
  O  O296  1  0.60753715  0.56491505  0.47935856  1
  O  O297  1  0.60138453  0.57041648  0.98393878  1
  O  O298  1  0.59290901  0.90792853  0.46940207  1
  O  O299  1  0.60967881  0.90456038  0.96953856  1
  O  O300  1  0.93632780  0.23433161  0.48253324  1
  O  O301  1  0.92733753  0.24606385  0.97847351  1
  O  O302  1  0.92458120  0.57708688  0.48196662  1
  O  O303  1  0.92884635  0.56605098  0.97566890  1
  O  O304  1  0.92768581  0.91327246  0.49046055  1
  O  O305  1  0.93668405  0.90086555  0.97173249  1
  O  O306  1  0.24359575  0.07359500  0.48555400  1
  O  O307  1  0.22986939  0.07589991  0.99183104  1
  O  O308  1  0.22978207  0.41435981  0.48646536  1
  O  O309  1  0.23014898  0.40200410  0.97815408  1
  O  O310  1  0.23267113  0.73619420  0.47493370  1
  O  O311  1  0.22889933  0.74327720  0.98514591  1
  O  O312  1  0.55845968  0.06777800  0.48103906  1
  O  O313  1  0.58948881  0.07318152  0.97513986  1
  O  O314  1  0.58256893  0.40747792  0.47850923  1
  O  O315  1  0.57791323  0.40649500  0.98393798  1
  O  O316  1  0.57903092  0.74481506  0.47120023  1
  O  O317  1  0.58360056  0.73886266  0.97612602  1
  O  O318  1  0.90481027  0.07428760  0.48493374  1
  O  O319  1  0.90485125  0.05783091  0.97802090  1
  O  O320  1  0.89991772  0.39371827  0.47808173  1
  O  O321  1  0.90514361  0.40392361  0.97084841  1
  O  O322  1  0.90221619  0.73076419  0.47701619  1
  O  O323  1  0.90208118  0.73336258  0.96899803  1
  O  O324  1  0.09310322  0.24875818  0.22998372  1
  O  O325  1  0.08862187  0.26098331  0.73023002  1
  O  O326  1  0.09875329  0.60492813  0.23452455  1
  O  O327  1  0.08725581  0.59404601  0.72381177  1
  O  O328  1  0.09629098  0.92737481  0.21749676  1
  O  O329  1  0.09930508  0.93924475  0.72785960  1
  O  O330  1  0.42164006  0.25213497  0.22726004  1
  O  O331  1  0.41780704  0.26208278  0.73740248  1
  O  O332  1  0.41224164  0.59363873  0.22322766  1
  O  O333  1  0.42577329  0.59031845  0.74044518  1
  O  O334  1  0.42359168  0.93981235  0.22792809  1
  O  O335  1  0.43373734  0.91897137  0.71682096  1
  O  O336  1  0.76158621  0.26512744  0.23836115  1
  O  O337  1  0.78118226  0.27763796  0.74090555  1
  O  O338  1  0.76387204  0.59021849  0.23155467  1
  O  O339  1  0.76166479  0.60053741  0.73124334  1
  O  O340  1  0.77283128  0.92508048  0.21608654  1
  O  O341  1  0.75718977  0.92167641  0.72445379  1
  O  O342  1  0.06801111  0.09146284  0.21608635  1
  O  O343  1  0.06836413  0.09817872  0.72660137  1
  O  O344  1  0.07857011  0.43195481  0.24003422  1
  O  O345  1  0.06060642  0.43524009  0.73015990  1
  O  O346  1  0.06965256  0.76430664  0.22483287  1
  O  O347  1  0.06470121  0.76021991  0.74027280  1
  O  O348  1  0.38947962  0.09362145  0.22722428  1
  O  O349  1  0.41560532  0.08214313  0.72216466  1
  O  O350  1  0.40291404  0.43226367  0.21774859  1
  O  O351  1  0.40691824  0.42653030  0.73385611  1
  O  O352  1  0.40148755  0.75292101  0.23066542  1
  O  O353  1  0.39967177  0.76544051  0.73014697  1
  O  O354  1  0.74741346  0.08809362  0.22169074  1
  O  O355  1  0.73574048  0.10327859  0.72527695  1
  O  O356  1  0.73545084  0.43645897  0.22709975  1
  O  O357  1  0.73660745  0.43372814  0.72018199  1
  O  O358  1  0.74231235  0.77216415  0.22086126  1
  O  O359  1  0.72914246  0.75958182  0.72929237  1
