# generated using pymatgen
data_BaLaInIrO6
_symmetry_space_group_name_H-M   'P 1'
_cell_length_a   17.50459578
_cell_length_b   17.53755715
_cell_length_c   16.49225455
_cell_angle_alpha   90.08190169
_cell_angle_beta   89.99901597
_cell_angle_gamma   89.97886327
_symmetry_Int_Tables_number   1
_chemical_formula_structural   BaLaInIrO6
_chemical_formula_sum   'Ba36 La36 In36 Ir36 O216'
_cell_volume   5062.91622867
_cell_formula_units_Z   36
loop_
 _symmetry_equiv_pos_site_id
 _symmetry_equiv_pos_as_xyz
  1  'x, y, z'
loop_
 _atom_site_type_symbol
 _atom_site_label
 _atom_site_symmetry_multiplicity
 _atom_site_fract_x
 _atom_site_fract_y
 _atom_site_fract_z
 _atom_site_occupancy
  Ba  Ba0  1  0.49819097  0.33620616  0.12601109  1
  Ba  Ba1  1  0.33629132  0.16867892  0.12838262  1
  Ba  Ba2  1  1.00233657  0.51274052  0.62416409  1
  Ba  Ba3  1  0.33496846  0.15746706  0.87578410  1
  Ba  Ba4  1  0.33142316  0.82474416  0.36821872  1
  Ba  Ba5  1  -0.00543532  0.15461113  0.37673672  1
  Ba  Ba6  1  0.16703117  0.99170397  0.87329254  1
  Ba  Ba7  1  0.49882870  0.00523162  0.12651949  1
  Ba  Ba8  1  0.50003421  0.65935738  0.87555688  1
  Ba  Ba9  1  0.99938210  0.17412551  0.12309331  1
  Ba  Ba10  1  0.33620689  0.18117577  0.63050404  1
  Ba  Ba11  1  0.49591715  0.67672821  0.12318110  1
  Ba  Ba12  1  0.16605042  0.99223145  0.37410231  1
  Ba  Ba13  1  0.00165092  0.49444029  0.87321826  1
  Ba  Ba14  1  -0.00021181  0.82528319  0.37464208  1
  Ba  Ba15  1  0.33695714  0.51285288  0.12477407  1
  Ba  Ba16  1  0.33344907  0.15699914  0.37773182  1
  Ba  Ba17  1  0.16725060  0.67833229  0.11953174  1
  Ba  Ba18  1  0.66475075  0.49110246  0.37862942  1
  Ba  Ba19  1  0.83442626  0.67496887  0.62394510  1
  Ba  Ba20  1  0.66856366  0.84069930  0.62344316  1
  Ba  Ba21  1  0.66214139  0.15198780  0.87307410  1
  Ba  Ba22  1  0.33772432  0.83808934  0.12360555  1
  Ba  Ba23  1  0.33168036  0.82177884  0.87294590  1
  Ba  Ba24  1  0.83411577  0.32541685  0.38086650  1
  Ba  Ba25  1  0.16398388  0.67607793  0.62350663  1
  Ba  Ba26  1  0.66708059  0.84167466  0.12047880  1
  Ba  Ba27  1  0.83531376  0.98854505  0.87058410  1
  Ba  Ba28  1  0.33398424  0.49333871  0.37539313  1
  Ba  Ba29  1  0.66649949  0.50821478  0.62757121  1
  Ba  Ba30  1  0.49536753  0.32398168  0.87388049  1
  Ba  Ba31  1  0.66733425  0.17827210  0.12356316  1
  Ba  Ba32  1  0.33461401  0.51080988  0.62782016  1
  Ba  Ba33  1  0.66310581  0.15809306  0.37672365  1
  Ba  Ba34  1  0.49982973  0.65813321  0.37174244  1
  Ba  Ba35  1  0.66661752  0.17544605  0.63289266  1
  La  La36  1  0.82598657  0.34776164  0.12387694  1
  La  La37  1  0.65896542  0.48393379  0.87413566  1
  La  La38  1  0.16291273  0.34913576  0.12968447  1
  La  La39  1  0.50625754  0.32317830  0.37766457  1
  La  La40  1  0.82637964  0.34791333  0.63297869  1
  La  La41  1  0.33753475  0.84546037  0.62339456  1
  La  La42  1  0.49283570  0.67323322  0.62660179  1
  La  La43  1  0.32975205  0.48917098  0.88117879  1
  La  La44  1  -0.00342525  0.15262285  0.87288581  1
  La  La45  1  0.82213788  0.01822245  0.12116955  1
  La  La46  1  0.50493952  0.98915444  0.87949347  1
  La  La47  1  -0.00110325  0.82083736  0.87210864  1
  La  La48  1  0.66237394  0.81746150  0.37268300  1
  La  La49  1  0.17628254  0.65427526  0.37255262  1
  La  La50  1  0.83772203  0.98916907  0.37464886  1
  La  La51  1  0.83502232  0.31616852  0.87412015  1
  La  La52  1  0.17565706  0.32097017  0.87549819  1
  La  La53  1  0.16522740  0.34933297  0.62763765  1
  La  La54  1  0.49582127  0.34791647  0.62658071  1
  La  La55  1  0.82729515  0.01216382  0.62548934  1
  La  La56  1  0.66724664  0.51035196  0.12761524  1
  La  La57  1  0.83402682  0.65277249  0.37769898  1
  La  La58  1  0.82680454  0.67532592  0.12636755  1
  La  La59  1  0.49555354  0.01789297  0.62774685  1
  La  La60  1  0.17259249  0.32084371  0.37569864  1
  La  La61  1  0.17772220  0.00284732  0.13143634  1
  La  La62  1  0.16863743  0.01459779  0.62533617  1
  La  La63  1  0.66094825  0.82422676  0.87215525  1
  La  La64  1  0.50523528  0.98156836  0.36838674  1
  La  La65  1  0.17384154  0.65276268  0.87279920  1
  La  La66  1  1.00463622  0.51247852  0.12966392  1
  La  La67  1  0.83548823  0.65729852  0.86826366  1
  La  La68  1  -0.00277299  0.49058400  0.37649745  1
  La  La69  1  1.00592993  0.85259501  0.12205417  1
  La  La70  1  1.00455547  0.18504967  0.62503318  1
  La  La71  1  1.00012812  0.84052279  0.62257211  1
  In  In72  1  0.33118113  0.67010960  0.50109900  1
  In  In73  1  -0.00155618  0.33420376  0.00073094  1
  In  In74  1  0.33060001  0.33178094  0.00548520  1
  In  In75  1  0.50125316  0.83328313  0.49982207  1
  In  In76  1  0.66529267  -0.00041327  0.49974176  1
  In  In77  1  0.00046895  -0.00296728  0.74595481  1
  In  In78  1  0.16647217  0.49939526  0.49716294  1
  In  In79  1  0.83663859  0.83225427  -0.00227719  1
  In  In80  1  0.16637178  0.16764821  0.50204981  1
  In  In81  1  0.83644918  0.50103307  0.50310891  1
  In  In82  1  0.83377449  0.49976243  -0.00303064  1
  In  In83  1  0.16494135  0.16696091  0.24950393  1
  In  In84  1  0.33525523  -0.00285753  0.25486977  1
  In  In85  1  -0.00020130  0.00111903  -0.00091869  1
  In  In86  1  0.66601707  0.33123031  0.50653180  1
  In  In87  1  0.00217845  0.66875700  0.74815777  1
  In  In88  1  0.16453464  0.16713998  0.00059303  1
  In  In89  1  0.49899157  0.50029891  0.50020168  1
  In  In90  1  -0.00140771  -0.00150743  0.50293238  1
  In  In91  1  0.33305286  0.00019639  0.75073244  1
  In  In92  1  -0.00120808  0.33346799  0.25051054  1
  In  In93  1  0.16362445  0.83116741  0.24987336  1
  In  In94  1  0.83351309  0.83116310  0.24876802  1
  In  In95  1  0.16429737  0.50073659  0.00227624  1
  In  In96  1  0.50208260  0.16462919  -0.00084147  1
  In  In97  1  0.50094549  0.83320069  0.74792753  1
  In  In98  1  0.50192531  0.16443622  0.25294529  1
  In  In99  1  -0.00206604  0.66918441  0.24978582  1
  In  In100  1  0.83265581  0.16899682  0.25112873  1
  In  In101  1  0.66794455  0.33610421  0.25066962  1
  In  In102  1  0.49987635  0.49936723  -0.00045563  1
  In  In103  1  0.66709848  0.66617631  0.50281938  1
  In  In104  1  0.66863829  0.66438135  -0.00061847  1
  In  In105  1  -0.00193192  0.66963859  -0.00261348  1
  In  In106  1  0.00008875  0.33680835  0.75307608  1
  In  In107  1  0.83262968  0.16668537  0.50480484  1
  Ir  Ir108  1  0.67067700  0.33498467  -0.00174265  1
  Ir  Ir109  1  0.33363467  0.66445027  0.24752801  1
  Ir  Ir110  1  0.66547529  0.33410400  0.75434712  1
  Ir  Ir111  1  0.33067666  0.66534966  0.75254165  1
  Ir  Ir112  1  0.33392769  -0.00555993  -0.00324076  1
  Ir  Ir113  1  0.49956826  0.49875822  0.24971590  1
  Ir  Ir114  1  0.66869677  -0.00239550  -0.00123302  1
  Ir  Ir115  1  0.16976698  0.49957505  0.74984719  1
  Ir  Ir116  1  0.16761848  0.83331317  0.74679199  1
  Ir  Ir117  1  0.16605836  0.83789791  -0.00265147  1
  Ir  Ir118  1  0.00325214  0.33552604  0.50433074  1
  Ir  Ir119  1  0.49933826  0.50112016  0.75203432  1
  Ir  Ir120  1  0.33257006  0.33783351  0.25717560  1
  Ir  Ir121  1  0.33207452  0.33631389  0.74582732  1
  Ir  Ir122  1  0.00406203  0.67252437  0.49552740  1
  Ir  Ir123  1  0.83730534  0.50202943  0.25045459  1
  Ir  Ir124  1  0.49516136  0.16554858  0.50362460  1
  Ir  Ir125  1  0.82635721  0.50050027  0.75418035  1
  Ir  Ir126  1  0.83546034  0.16563721  0.75210781  1
  Ir  Ir127  1  0.66792443  0.66328994  0.24769272  1
  Ir  Ir128  1  0.83010830  0.83065421  0.74848224  1
  Ir  Ir129  1  0.83120363  0.16605776  -0.00509227  1
  Ir  Ir130  1  0.50407852  0.82971614  0.24768898  1
  Ir  Ir131  1  0.66760023  0.66609237  0.75312646  1
  Ir  Ir132  1  0.16918155  0.83500438  0.50416104  1
  Ir  Ir133  1  0.50174447  0.16746677  0.74794692  1
  Ir  Ir134  1  0.83482123  0.83323451  0.50074791  1
  Ir  Ir135  1  0.50041931  0.83462345  -0.00203228  1
  Ir  Ir136  1  -0.00567390  -0.00160835  0.24812405  1
  Ir  Ir137  1  0.67091314  -0.00362327  0.24786494  1
  Ir  Ir138  1  0.33298415  0.66926303  -0.00443352  1
  Ir  Ir139  1  0.33444369  0.33303676  0.50055525  1
  Ir  Ir140  1  0.66654845  -0.00228410  0.75171095  1
  Ir  Ir141  1  0.16485304  0.17094362  0.74537573  1
  Ir  Ir142  1  0.16537832  0.50168843  0.25009395  1
  Ir  Ir143  1  0.33476653  -0.00260789  0.50462535  1
  O  O144  1  0.30050634  0.33360617  0.13711854  1
  O  O145  1  0.30165752  0.33422690  0.62251981  1
  O  O146  1  0.31585370  0.67225385  0.11847390  1
  O  O147  1  0.31398729  0.66828171  0.63368668  1
  O  O148  1  0.31259624  0.99596402  0.11887930  1
  O  O149  1  0.30387432  0.99210908  0.62302031  1
  O  O150  1  0.65034440  0.33928177  0.11796990  1
  O  O151  1  0.63282329  0.33516075  0.63591572  1
  O  O152  1  0.64429795  0.65224913  0.12965426  1
  O  O153  1  0.63321564  0.66443038  0.63452255  1
  O  O154  1  0.64761280  0.99981535  0.12295532  1
  O  O155  1  0.63374389  0.99525537  0.63273377  1
  O  O156  1  0.95946133  0.33321985  0.12541898  1
  O  O157  1  0.96750442  0.33007858  0.62501564  1
  O  O158  1  0.96381903  0.65097568  0.12358128  1
  O  O159  1  0.98486209  0.67526893  0.61780727  1
  O  O160  1  0.96425992  0.99395878  0.12708164  1
  O  O161  1  0.96384557  0.98026256  0.62724363  1
  O  O162  1  0.18283197  0.14148229  0.12452524  1
  O  O163  1  0.18926239  0.15776286  0.62834895  1
  O  O164  1  0.18942244  0.49034633  0.13225904  1
  O  O165  1  0.18559708  0.49153256  0.62844535  1
  O  O166  1  0.18603301  0.83659429  0.11600296  1
  O  O167  1  0.20095463  0.82734929  0.62584187  1
  O  O168  1  0.51623731  0.16328841  0.12519617  1
  O  O169  1  0.51752878  0.15461517  0.62527944  1
  O  O170  1  0.52726526  0.49679356  0.12910722  1
  O  O171  1  0.51775756  0.49383642  0.63256739  1
  O  O172  1  0.51943693  0.83164406  0.12281863  1
  O  O173  1  0.52149783  0.80978594  0.62513071  1
  O  O174  1  0.84813061  0.15686393  0.11627061  1
  O  O175  1  0.86860934  0.15498280  0.63369032  1
  O  O176  1  0.86820519  0.49023133  0.13029039  1
  O  O177  1  0.85352929  0.49039774  0.63449255  1
  O  O178  1  0.87206861  0.81393474  0.12452106  1
  O  O179  1  0.86444803  0.82665005  0.62465967  1
  O  O180  1  0.14474526  0.18093295  0.37758183  1
  O  O181  1  0.13373520  0.18127771  0.86349818  1
  O  O182  1  0.13493324  0.51081935  0.36915086  1
  O  O183  1  0.15343226  0.50696474  0.86977768  1
  O  O184  1  0.14916544  0.83950341  0.38364175  1
  O  O185  1  0.13589439  0.83864421  0.87097010  1
  O  O186  1  0.48129791  0.18310701  0.38492921  1
  O  O187  1  0.48683143  0.16386174  0.86773794  1
  O  O188  1  0.48284562  0.49948502  0.36920055  1
  O  O189  1  0.46672370  0.50187545  0.86948038  1
  O  O190  1  0.48456872  0.83753661  0.36779020  1
  O  O191  1  0.48370961  0.84546028  0.87721237  1
  O  O192  1  0.81257209  0.16866039  0.37822437  1
  O  O193  1  0.80794048  0.17733514  0.87279857  1
  O  O194  1  0.81421069  0.51124104  0.36957275  1
  O  O195  1  0.79276765  0.51442158  0.87078895  1
  O  O196  1  0.80391444  0.84807631  0.38004463  1
  O  O197  1  0.79682868  0.83460736  0.86670590  1
  O  O198  1  0.01440189  -0.00383205  0.37070380  1
  O  O199  1  0.01637061  0.00861800  0.86941216  1
  O  O200  1  0.03521148  0.34468730  0.38361474  1
  O  O201  1  0.03714090  0.33580765  0.87491341  1
  O  O202  1  0.03715208  0.67186191  0.37724697  1
  O  O203  1  0.03888396  0.68173012  0.87075189  1
  O  O204  1  0.36587884  -0.00630735  0.38667896  1
  O  O205  1  0.36343417  -0.00561036  0.87614793  1
  O  O206  1  0.36775439  0.33698600  0.37988896  1
  O  O207  1  0.34523254  0.34877303  0.86585080  1
  O  O208  1  0.34682522  0.66529755  0.36784882  1
  O  O209  1  0.35051327  0.66064122  0.87423662  1
  O  O210  1  0.70043268  -0.00185921  0.36696800  1
  O  O211  1  0.68934034  -0.00770850  0.87602005  1
  O  O212  1  0.68164409  0.33296444  0.37869876  1
  O  O213  1  0.70052095  0.34286086  0.87631826  1
  O  O214  1  0.69707261  0.67327869  0.36652961  1
  O  O215  1  0.69912115  0.67731319  0.87156995  1
  O  O216  1  0.06215468  0.10375823  -0.00378862  1
  O  O217  1  0.06824137  0.09587640  0.53136475  1
  O  O218  1  0.06511876  0.43418514  0.03198557  1
  O  O219  1  0.07587101  0.42181450  0.52405730  1
  O  O220  1  0.06846949  0.77676203  0.01771610  1
  O  O221  1  0.06960321  0.77190109  0.52187672  1
  O  O222  1  0.40541607  0.08114227  0.00996603  1
  O  O223  1  0.40168268  0.09194017  0.52530061  1
  O  O224  1  0.40278214  0.42890371  0.00813827  1
  O  O225  1  0.40332836  0.42122333  0.52124127  1
  O  O226  1  0.40763483  0.76242693  0.01066763  1
  O  O227  1  0.40094528  0.76628931  0.52122879  1
  O  O228  1  0.73853645  0.09224888  0.01908523  1
  O  O229  1  0.74007662  0.08708972  0.52927851  1
  O  O230  1  0.73533606  0.42757164  0.02224542  1
  O  O231  1  0.74913493  0.42065669  0.52356579  1
  O  O232  1  0.75068220  0.75037221  0.02428956  1
  O  O233  1  0.74432581  0.76601095  0.50859416  1
  O  O234  1  0.10032027  0.27120049  0.03075175  1
  O  O235  1  0.09301871  0.26597450  0.53367266  1
  O  O236  1  0.08975878  0.59372392  0.01519671  1
  O  O237  1  0.08972148  0.59840037  0.51159324  1
  O  O238  1  0.10311921  0.93363385  0.02599242  1
  O  O239  1  0.10241081  0.92829713  0.53064533  1
  O  O240  1  0.42097691  0.25359379  0.01045378  1
  O  O241  1  0.43219605  0.26718794  0.52535749  1
  O  O242  1  0.42279178  0.59802754  0.01075000  1
  O  O243  1  0.42945224  0.59936276  0.52251233  1
  O  O244  1  0.43030982  0.92667968  0.01212460  1
  O  O245  1  0.42941133  0.93261129  0.53008474  1
  O  O246  1  0.77026861  0.26932307  0.01463476  1
  O  O247  1  0.76498560  0.26291285  0.53696426  1
  O  O248  1  0.75864596  0.58728306  0.03841097  1
  O  O249  1  0.76678363  0.59848966  0.50730805  1
  O  O250  1  0.76495194  0.93212630  0.02164774  1
  O  O251  1  0.77130480  0.92813675  0.52455514  1
  O  O252  1  0.24090655  0.07380653  0.26448950  1
  O  O253  1  0.23586903  0.07867322  0.76308574  1
  O  O254  1  0.23299607  0.40678668  0.27863613  1
  O  O255  1  0.23495029  0.40231320  0.76849935  1
  O  O256  1  0.23728158  0.73145925  0.26685975  1
  O  O257  1  0.23170456  0.73174948  0.77388728  1
  O  O258  1  0.57697611  0.06061736  0.27696946  1
  O  O259  1  0.56679148  0.06411256  0.76973083  1
  O  O260  1  0.56552840  0.40676707  0.26992546  1
  O  O261  1  0.57574694  0.41123009  0.77881831  1
  O  O262  1  0.58213853  0.74011055  0.27258371  1
  O  O263  1  0.58407601  0.74295984  0.77629427  1
  O  O264  1  0.89873453  0.06233803  0.26788416  1
  O  O265  1  0.90872791  0.08042669  0.77101982  1
  O  O266  1  0.90965507  0.41688614  0.27904952  1
  O  O267  1  0.89474641  0.40593948  0.77506816  1
  O  O268  1  0.89595403  0.73033688  0.27876069  1
  O  O269  1  0.90049112  0.74005138  0.77315224  1
  O  O270  1  0.25970812  0.25303002  0.27852350  1
  O  O271  1  0.25383851  0.24786288  0.77306319  1
  O  O272  1  0.25457751  0.57645031  0.27294681  1
  O  O273  1  0.26429955  0.56800912  0.77760546  1
  O  O274  1  0.25284744  0.90972705  0.25801132  1
  O  O275  1  0.26090753  0.89843425  0.75818226  1
  O  O276  1  0.58775785  0.24592795  0.26825834  1
  O  O277  1  0.59392871  0.24389969  0.77160761  1
  O  O278  1  0.59845764  0.56622328  0.26268826  1
  O  O279  1  0.59601744  0.57117031  0.77902372  1
  O  O280  1  0.59950330  0.90085759  0.27321404  1
  O  O281  1  0.59620529  0.90954681  0.77714066  1
  O  O282  1  0.92949102  0.23898256  0.26951458  1
  O  O283  1  0.92610645  0.23735172  0.77406292  1
  O  O284  1  0.92955779  0.56831906  0.27801811  1
  O  O285  1  0.91515687  0.57693614  0.77051717  1
  O  O286  1  0.92667130  0.90907399  0.26628054  1
  O  O287  1  0.92624952  0.89303651  0.77035848  1
  O  O288  1  0.26113571  0.24711482  0.48296747  1
  O  O289  1  0.25313527  0.24328196  0.97272031  1
  O  O290  1  0.25286149  0.57974689  0.48104105  1
  O  O291  1  0.26266617  0.57738107  0.97790972  1
  O  O292  1  0.27131077  0.89706677  0.49358822  1
  O  O293  1  0.26078278  0.90370930  0.97962209  1
  O  O294  1  0.58654306  0.23303314  0.49214603  1
  O  O295  1  0.60160174  0.24499016  0.98287847  1
  O  O296  1  0.59360051  0.57301339  0.48805748  1
  O  O297  1  0.59870110  0.56743923  0.97524458  1
  O  O298  1  0.59492653  0.90833213  0.46621882  1
  O  O299  1  0.59656528  0.90442869  0.97310582  1
  O  O300  1  0.93662403  0.24296511  0.49284965  1
  O  O301  1  0.92522572  0.23158993  0.96810376  1
  O  O302  1  0.93497418  0.57951637  0.47237417  1
  O  O303  1  0.91687847  0.58139812  0.96588937  1
  O  O304  1  0.92685409  0.89749292  0.48754850  1
  O  O305  1  0.93899767  0.89787024  0.97848404  1
  O  O306  1  0.24007252  0.06489487  0.49000454  1
  O  O307  1  0.24443564  0.06530926  0.98400088  1
  O  O308  1  0.23859824  0.39843102  0.47786738  1
  O  O309  1  0.23460252  0.40559690  0.97831096  1
  O  O310  1  0.22928674  0.73982127  0.47761621  1
  O  O311  1  0.23082365  0.73820026  0.97330265  1
  O  O312  1  0.55652437  0.06747811  0.48146977  1
  O  O313  1  0.57279440  0.06267812  0.97736269  1
  O  O314  1  0.56249521  0.39604771  0.48925032  1
  O  O315  1  0.58178776  0.40582481  0.97625642  1
  O  O316  1  0.58336409  0.74697033  0.47257716  1
  O  O317  1  0.57859121  0.75015027  0.97994709  1
  O  O318  1  0.89695208  0.06201845  0.48302576  1
  O  O319  1  0.89693154  0.07364284  0.98323420  1
  O  O320  1  0.92125501  0.41392486  0.47839964  1
  O  O321  1  0.89633220  0.39893807  0.97008217  1
  O  O322  1  0.90275216  0.73616127  0.47382225  1
  O  O323  1  0.90884567  0.74190297  0.95441394  1
  O  O324  1  0.10238035  0.27060136  0.22808080  1
  O  O325  1  0.09482711  0.26068476  0.71660816  1
  O  O326  1  0.09284424  0.58914364  0.22584284  1
  O  O327  1  0.09916859  0.59124777  0.73821318  1
  O  O328  1  0.08705087  0.93068133  0.22053908  1
  O  O329  1  0.10394507  0.92821320  0.71949559  1
  O  O330  1  0.41860628  0.26542656  0.24157695  1
  O  O331  1  0.43269663  0.26647407  0.72592449  1
  O  O332  1  0.42834517  0.59260585  0.23193674  1
  O  O333  1  0.43141454  0.59860320  0.72849608  1
  O  O334  1  0.43289494  0.91987621  0.24018870  1
  O  O335  1  0.42779603  0.92700222  0.71746967  1
  O  O336  1  0.76621409  0.26854181  0.22327368  1
  O  O337  1  0.76466932  0.26553047  0.73183223  1
  O  O338  1  0.76485720  0.59490234  0.22426209  1
  O  O339  1  0.75755503  0.59445911  0.73119857  1
  O  O340  1  0.76413059  0.93122198  0.22294130  1
  O  O341  1  0.76372736  0.92847955  0.72370100  1
  O  O342  1  0.06552729  0.08527367  0.23502069  1
  O  O343  1  0.07338497  0.09999113  0.72174323  1
  O  O344  1  0.07313524  0.43342312  0.22742610  1
  O  O345  1  0.08046082  0.42745237  0.72803250  1
  O  O346  1  0.06449230  0.76718219  0.22060664  1
  O  O347  1  0.06912716  0.77468488  0.72942992  1
  O  O348  1  0.41241237  0.08707324  0.24529745  1
  O  O349  1  0.41414546  0.09266510  0.73093895  1
  O  O350  1  0.40591526  0.42934099  0.23293391  1
  O  O351  1  0.41213627  0.42183937  0.72270022  1
  O  O352  1  0.40943665  0.75649642  0.23193673  1
  O  O353  1  0.40206488  0.75656765  0.72930409  1
  O  O354  1  0.73854377  0.08681431  0.22793843  1
  O  O355  1  0.74752247  0.08623289  0.72787033  1
  O  O356  1  0.74397701  0.43570736  0.22271354  1
  O  O357  1  0.73937148  0.42208831  0.73112320  1
  O  O358  1  0.73744961  0.75301820  0.22748803  1
  O  O359  1  0.73748721  0.75837536  0.72933556  1
