# generated using pymatgen
data_BaLaInIrO6
_symmetry_space_group_name_H-M   'P 1'
_cell_length_a   17.52780480
_cell_length_b   17.55516211
_cell_length_c   16.49699469
_cell_angle_alpha   90.05975644
_cell_angle_beta   90.00611582
_cell_angle_gamma   89.95348676
_symmetry_Int_Tables_number   1
_chemical_formula_structural   BaLaInIrO6
_chemical_formula_sum   'Ba36 La36 In36 Ir36 O216'
_cell_volume   5076.17779762
_cell_formula_units_Z   36
loop_
 _symmetry_equiv_pos_site_id
 _symmetry_equiv_pos_as_xyz
  1  'x, y, z'
loop_
 _atom_site_type_symbol
 _atom_site_label
 _atom_site_symmetry_multiplicity
 _atom_site_fract_x
 _atom_site_fract_y
 _atom_site_fract_z
 _atom_site_occupancy
  Ba  Ba0  1  0.00287092  0.16043202  0.87883906  1
  Ba  Ba1  1  0.50052764  0.67456583  0.61841692  1
  Ba  Ba2  1  0.00018751  0.16170141  0.37546530  1
  Ba  Ba3  1  0.50669912  0.65879950  0.86853170  1
  Ba  Ba4  1  0.16906288  0.66496676  0.62459893  1
  Ba  Ba5  1  0.83815229  0.00591517  0.62504624  1
  Ba  Ba6  1  0.16722001  0.32807207  0.37495156  1
  Ba  Ba7  1  0.83161119  0.32115380  0.87786627  1
  Ba  Ba8  1  -0.00141785  0.82454788  0.37063894  1
  Ba  Ba9  1  0.83192989  0.99185754  0.37748128  1
  Ba  Ba10  1  0.16929958  0.67289847  0.12504422  1
  Ba  Ba11  1  0.66522229  0.85062526  0.12446891  1
  Ba  Ba12  1  0.82848077  0.33899954  0.62604142  1
  Ba  Ba13  1  0.16767028  0.00566410  0.12613433  1
  Ba  Ba14  1  0.66298718  0.82641958  0.87412061  1
  Ba  Ba15  1  0.49603574  0.01174336  0.12187675  1
  Ba  Ba16  1  0.16469407  0.65661951  0.87727396  1
  Ba  Ba17  1  0.16958680  0.34433388  0.12335106  1
  Ba  Ba18  1  0.32980489  0.49378314  0.37875395  1
  Ba  Ba19  1  0.33588951  0.49461556  0.87835882  1
  Ba  Ba20  1  0.66048586  0.15943449  0.87578393  1
  Ba  Ba21  1  0.33039763  0.16150529  0.87703276  1
  Ba  Ba22  1  1.00284503  0.83839849  0.62549873  1
  Ba  Ba23  1  0.16607352  0.33897135  0.62870824  1
  Ba  Ba24  1  0.16121016  0.65911845  0.37462153  1
  Ba  Ba25  1  0.50384245  0.32572691  0.88211184  1
  Ba  Ba26  1  0.50151459  0.99548563  0.87089392  1
  Ba  Ba27  1  0.33590542  0.50733808  0.12610460  1
  Ba  Ba28  1  0.33547893  0.84168034  0.62259744  1
  Ba  Ba29  1  0.66637613  0.15578210  0.37461975  1
  Ba  Ba30  1  0.66030191  0.48219562  0.37448548  1
  Ba  Ba31  1  0.66755460  0.17403962  0.62801938  1
  Ba  Ba32  1  0.33612308  0.17776869  0.62754233  1
  Ba  Ba33  1  0.00124652  0.49470523  0.37689855  1
  Ba  Ba34  1  0.99648097  0.50509847  0.62561960  1
  Ba  Ba35  1  0.50396937  0.31927166  0.37390418  1
  La  La36  1  0.67106260  0.51354405  0.12036335  1
  La  La37  1  0.66018816  0.48365827  0.87135238  1
  La  La38  1  -0.00130785  0.81826410  0.87625303  1
  La  La39  1  1.00818714  0.51415337  0.12394245  1
  La  La40  1  0.32607934  0.15619932  0.37717558  1
  La  La41  1  0.17209973  0.98700374  0.38178892  1
  La  La42  1  0.33450740  0.81433669  0.87584169  1
  La  La43  1  0.82951412  0.34712542  0.13033812  1
  La  La44  1  0.66948034  0.84726933  0.62959087  1
  La  La45  1  0.17786334  0.98189899  0.86890632  1
  La  La46  1  1.00217071  0.18176134  0.12754278  1
  La  La47  1  0.84002365  0.65084968  0.36938870  1
  La  La48  1  1.00472095  0.17883179  0.62559360  1
  La  La49  1  0.49579402  0.34671153  0.62672766  1
  La  La50  1  0.50061878  0.34709924  0.12773600  1
  La  La51  1  0.33652867  0.51563891  0.62346227  1
  La  La52  1  -0.00216733  0.48395682  0.87223309  1
  La  La53  1  0.34128589  0.84920802  0.12166047  1
  La  La54  1  0.83438291  0.98894871  0.87219407  1
  La  La55  1  0.49473638  0.68445339  0.12209262  1
  La  La56  1  0.34348505  0.18513826  0.12581098  1
  La  La57  1  0.82890363  0.68589884  0.12589171  1
  La  La58  1  0.83843517  0.64899558  0.87892928  1
  La  La59  1  0.83703971  0.31639216  0.37577788  1
  La  La60  1  0.82312865  0.67928524  0.61845476  1
  La  La61  1  0.50572283  0.98887850  0.37171661  1
  La  La62  1  0.17427471  0.32542307  0.87922084  1
  La  La63  1  0.32583566  0.82052687  0.36792117  1
  La  La64  1  1.00003150  0.84679210  0.12559781  1
  La  La65  1  0.16304594  0.01586119  0.62457641  1
  La  La66  1  0.49703782  0.01660372  0.62629977  1
  La  La67  1  0.50303390  0.64975781  0.36852069  1
  La  La68  1  0.66494739  0.17930737  0.12973914  1
  La  La69  1  0.82691993  0.01595455  0.12831155  1
  La  La70  1  0.67609642  0.51277586  0.63058887  1
  La  La71  1  0.66195026  0.82605649  0.37154897  1
  In  In72  1  0.16725166  0.83153508  0.24539452  1
  In  In73  1  0.50418676  0.50326075  -0.00025616  1
  In  In74  1  0.33522311  0.33804964  0.75223049  1
  In  In75  1  0.83199704  0.83649669  -0.00060419  1
  In  In76  1  0.66692525  0.66782029  0.24816571  1
  In  In77  1  0.16755155  0.49823098  0.50305617  1
  In  In78  1  -0.00205229  0.00203481  0.24730990  1
  In  In79  1  0.00480404  0.00009065  0.75260512  1
  In  In80  1  0.16810790  0.83024940  0.74925927  1
  In  In81  1  -0.00230004  0.33379564  0.50014861  1
  In  In82  1  -0.00229425  0.33439569  0.00152101  1
  In  In83  1  -0.00592096  0.66479242  0.75009672  1
  In  In84  1  0.33613748  0.00296757  0.25115446  1
  In  In85  1  0.50213806  0.49785004  0.49926305  1
  In  In86  1  0.67031861  0.33167445  0.00315586  1
  In  In87  1  0.66806203  0.66745610  -0.00184007  1
  In  In88  1  0.33615071  0.66854036  0.49571353  1
  In  In89  1  0.16690057  0.16458814  0.00617061  1
  In  In90  1  0.82662032  0.49663946  0.49692091  1
  In  In91  1  0.16664172  0.49870766  0.75377710  1
  In  In92  1  0.33732846  0.33570071  0.25429672  1
  In  In93  1  0.50091894  0.83696731  -0.00348380  1
  In  In94  1  0.16737736  0.83151767  0.50049018  1
  In  In95  1  0.16675120  0.16701834  0.75335723  1
  In  In96  1  0.16651831  0.83157346  0.00259092  1
  In  In97  1  -0.00077049  0.33810098  0.24759469  1
  In  In98  1  0.16928295  0.16554169  0.24826052  1
  In  In99  1  0.50058558  0.83355545  0.74440329  1
  In  In100  1  0.83281504  0.16374831  0.50420372  1
  In  In101  1  0.49889834  0.17047603  0.75131499  1
  In  In102  1  0.66229797  -0.00056385  0.49860256  1
  In  In103  1  0.00261361  -0.00176285  0.49869766  1
  In  In104  1  -0.00057156  0.00020567  -0.00010975  1
  In  In105  1  0.66764311  0.00101921  0.75138207  1
  In  In106  1  -0.00640009  0.66638115  0.50114136  1
  In  In107  1  0.66536712  0.66877235  0.49453728  1
  Ir  Ir108  1  0.33253628  -0.00022799  -0.00604770  1
  Ir  Ir109  1  0.34087255  0.00341275  0.49979216  1
  Ir  Ir110  1  0.83125434  0.16345799  0.00233915  1
  Ir  Ir111  1  0.83014839  0.49930625  0.75686871  1
  Ir  Ir112  1  0.66671649  0.33246018  0.24965917  1
  Ir  Ir113  1  0.33361685  -0.00219307  0.74825738  1
  Ir  Ir114  1  0.82987452  0.83380843  0.25074477  1
  Ir  Ir115  1  0.67317400  0.66515920  0.74828403  1
  Ir  Ir116  1  0.33641078  0.33528485  0.00310685  1
  Ir  Ir117  1  0.50687888  0.50115676  0.74688621  1
  Ir  Ir118  1  0.49603097  0.16672303  0.49644189  1
  Ir  Ir119  1  0.16721518  0.50532665  0.24516035  1
  Ir  Ir120  1  0.33905603  0.66674154  0.24444884  1
  Ir  Ir121  1  0.66164042  0.32976297  0.50247071  1
  Ir  Ir122  1  0.50033910  0.16578665  0.00579392  1
  Ir  Ir123  1  -0.00916165  0.66374408  0.24317125  1
  Ir  Ir124  1  0.66633838  0.33518615  0.74811643  1
  Ir  Ir125  1  0.17080165  0.16595582  0.50197765  1
  Ir  Ir126  1  0.16392572  0.50340256  0.00338772  1
  Ir  Ir127  1  0.49646489  0.83338636  0.25257198  1
  Ir  Ir128  1  0.50128909  0.16749433  0.24945791  1
  Ir  Ir129  1  -0.00625263  0.66288044  0.00238315  1
  Ir  Ir130  1  0.82566575  0.83104528  0.49997764  1
  Ir  Ir131  1  0.33421654  0.66686652  0.00248479  1
  Ir  Ir132  1  0.83644525  0.50120871  0.00319848  1
  Ir  Ir133  1  0.83524495  0.16643408  0.75764615  1
  Ir  Ir134  1  0.33874288  0.66360215  0.75448295  1
  Ir  Ir135  1  -0.00466847  0.33252866  0.75334915  1
  Ir  Ir136  1  0.66845522  0.00766008  0.00475504  1
  Ir  Ir137  1  0.50575873  0.50011920  0.24748541  1
  Ir  Ir138  1  0.66476779  0.00075689  0.24733124  1
  Ir  Ir139  1  0.49900804  0.83676738  0.49167963  1
  Ir  Ir140  1  0.83013558  0.16751326  0.24491667  1
  Ir  Ir141  1  0.83121044  0.83007693  0.75056579  1
  Ir  Ir142  1  0.33628737  0.33154849  0.50286901  1
  Ir  Ir143  1  0.82995048  0.49925352  0.24236494  1
  O  O144  1  0.32080652  0.32852915  0.12339461  1
  O  O145  1  0.31821611  0.33352135  0.62077497  1
  O  O146  1  0.31703040  0.66393890  0.12379082  1
  O  O147  1  0.32196678  0.65819433  0.63290579  1
  O  O148  1  0.31758887  0.98965672  0.11620947  1
  O  O149  1  0.30413334  0.99627979  0.62405875  1
  O  O150  1  0.63836056  0.32434821  0.13120850  1
  O  O151  1  0.63286381  0.32889411  0.62478089  1
  O  O152  1  0.63188609  0.65290164  0.12543391  1
  O  O153  1  0.65108894  0.65548664  0.62903807  1
  O  O154  1  0.64494331  1.01213854  0.12630929  1
  O  O155  1  0.63326516  0.98734981  0.62230005  1
  O  O156  1  0.96332993  0.33018147  0.12520038  1
  O  O157  1  0.97624849  0.32305577  0.63311708  1
  O  O158  1  0.96208506  0.65120334  0.12188232  1
  O  O159  1  0.95700419  0.66487368  0.62779052  1
  O  O160  1  0.95795306  0.98297250  0.12355918  1
  O  O161  1  0.98637525  0.99219328  0.62658196  1
  O  O162  1  0.21194782  0.15941848  0.12519987  1
  O  O163  1  0.18954665  0.15935160  0.62102696  1
  O  O164  1  0.18623432  0.50888753  0.12411779  1
  O  O165  1  0.20176227  0.49549028  0.63025475  1
  O  O166  1  0.20765777  0.82964561  0.12344296  1
  O  O167  1  0.18847001  0.81833205  0.62545879  1
  O  O168  1  0.53045236  0.16482944  0.12848816  1
  O  O169  1  0.51618313  0.15639004  0.61633892  1
  O  O170  1  0.53507924  0.49230944  0.12874861  1
  O  O171  1  0.53775662  0.49433292  0.62805875  1
  O  O172  1  0.51551753  0.82394945  0.13097727  1
  O  O173  1  0.53235712  0.82989561  0.61049629  1
  O  O174  1  0.86181735  0.15484935  0.12308834  1
  O  O175  1  0.86504373  0.16500024  0.63803936  1
  O  O176  1  0.86887825  0.48611705  0.12282406  1
  O  O177  1  0.84595025  0.49521043  0.63594469  1
  O  O178  1  0.86199250  0.82532128  0.13009356  1
  O  O179  1  0.85298714  0.81635444  0.62347865  1
  O  O180  1  0.15407022  0.16849632  0.38304731  1
  O  O181  1  0.15285352  0.18542717  0.88032589  1
  O  O182  1  0.15413149  0.50222030  0.36469088  1
  O  O183  1  0.13547442  0.49853277  0.88480045  1
  O  O184  1  0.15216247  0.84741812  0.37148308  1
  O  O185  1  0.13702177  0.84379528  0.87774773  1
  O  O186  1  0.46601250  0.16912870  0.37214873  1
  O  O187  1  0.48207881  0.16831961  0.88488698  1
  O  O188  1  0.48141583  0.50616846  0.36704649  1
  O  O189  1  0.48904342  0.50118172  0.86785458  1
  O  O190  1  0.46318111  0.84908895  0.37274370  1
  O  O191  1  0.47141940  0.83543831  0.87158827  1
  O  O192  1  0.81328362  0.17880221  0.36516300  1
  O  O193  1  0.80635857  0.16740680  0.88142275  1
  O  O194  1  0.80372581  0.51434128  0.36093850  1
  O  O195  1  0.79780052  0.51050840  0.88208741  1
  O  O196  1  0.79605691  0.83860372  0.37603587  1
  O  O197  1  0.80774290  0.84578361  0.86890061  1
  O  O198  1  0.03420330  0.00027646  0.37227494  1
  O  O199  1  0.04102226  0.00561220  0.87631086  1
  O  O200  1  0.01347128  0.33337538  0.37170912  1
  O  O201  1  0.02848663  0.34071547  0.87437648  1
  O  O202  1  0.00642930  0.66751639  0.36230768  1
  O  O203  1  0.01208485  0.67576969  0.88443807  1
  O  O204  1  0.37171787  0.01662426  0.38085261  1
  O  O205  1  0.35533269  0.00663998  0.87114309  1
  O  O206  1  0.35508994  0.33340631  0.38379041  1
  O  O207  1  0.35431292  0.33601493  0.88402108  1
  O  O208  1  0.36947815  0.67447916  0.36259265  1
  O  O209  1  0.36030223  0.67305212  0.88122557  1
  O  O210  1  0.67996435  -0.00737045  0.36711370  1
  O  O211  1  0.69689906  0.00367187  0.88332993  1
  O  O212  1  0.69661639  0.33204860  0.37595874  1
  O  O213  1  0.68416855  0.34398982  0.87139925  1
  O  O214  1  0.70278583  0.68190936  0.37085441  1
  O  O215  1  0.70186323  0.67083847  0.86820576  1
  O  O216  1  0.06463641  0.09834891  0.03277336  1
  O  O217  1  0.08064064  0.09803878  0.52679207  1
  O  O218  1  0.07036026  0.43595692  0.02327371  1
  O  O219  1  0.07592983  0.42143278  0.51753189  1
  O  O220  1  0.05744983  0.75867541  0.02177458  1
  O  O221  1  0.06969688  0.75868386  0.50697850  1
  O  O222  1  0.39942472  0.09970312  0.02187375  1
  O  O223  1  0.40581932  0.09695104  0.52044750  1
  O  O224  1  0.41547741  0.41895363  0.02147245  1
  O  O225  1  0.40486393  0.42410121  0.52834348  1
  O  O226  1  0.40011988  0.76139315  0.02326962  1
  O  O227  1  0.41299358  0.76640275  0.50977041  1
  O  O228  1  0.73583095  0.10128303  0.03026810  1
  O  O229  1  0.74031588  0.08854397  0.51473881  1
  O  O230  1  0.74629111  0.43064000  0.03126233  1
  O  O231  1  0.72375941  0.42636871  0.52409173  1
  O  O232  1  0.74440399  0.75782556  0.02540199  1
  O  O233  1  0.73033422  0.76726883  0.52475390  1
  O  O234  1  0.08580646  0.25694900  0.02817207  1
  O  O235  1  0.09339743  0.24932240  0.52246767  1
  O  O236  1  0.08751151  0.59330724  0.02555155  1
  O  O237  1  0.08519702  0.58784068  0.51307368  1
  O  O238  1  0.08522784  0.91675427  0.03058976  1
  O  O239  1  0.11111759  0.93917151  0.51574427  1
  O  O240  1  0.43136723  0.26174751  0.03143824  1
  O  O241  1  0.43459805  0.26525046  0.52438149  1
  O  O242  1  0.43221697  0.60119503  0.02293886  1
  O  O243  1  0.42254554  0.58697218  0.51415040  1
  O  O244  1  0.41977625  0.92687935  0.01517878  1
  O  O245  1  0.43821271  0.93739634  0.52124356  1
  O  O246  1  0.76542369  0.25860813  0.03193037  1
  O  O247  1  0.75266022  0.26195950  0.51161882  1
  O  O248  1  0.77082346  0.59353571  0.02935975  1
  O  O249  1  0.75444095  0.59036934  0.52599238  1
  O  O250  1  0.76304018  0.94064361  0.02305981  1
  O  O251  1  0.75357942  0.91742181  0.52441064  1
  O  O252  1  0.23838212  0.06755518  0.28332397  1
  O  O253  1  0.23678629  0.06156076  0.76622160  1
  O  O254  1  0.24121349  0.41603613  0.25879813  1
  O  O255  1  0.23698318  0.40485491  0.78252451  1
  O  O256  1  0.24907690  0.73663687  0.26885963  1
  O  O257  1  0.25346042  0.73935103  0.77846688  1
  O  O258  1  0.56604884  0.06815407  0.27161545  1
  O  O259  1  0.57380130  0.07749546  0.75551204  1
  O  O260  1  0.57109600  0.40153724  0.26387571  1
  O  O261  1  0.57632335  0.40856739  0.76930856  1
  O  O262  1  0.56594817  0.74198375  0.27622539  1
  O  O263  1  0.58404966  0.73644122  0.75954470  1
  O  O264  1  0.89580247  0.07592983  0.26127235  1
  O  O265  1  0.90152660  0.07287511  0.78018692  1
  O  O266  1  0.88793340  0.40222432  0.26746387  1
  O  O267  1  0.90668601  0.41178788  0.78203165  1
  O  O268  1  0.89095075  0.73073079  0.26416961  1
  O  O269  1  0.89508644  0.73888430  0.78273545  1
  O  O270  1  0.27349360  0.23335357  0.26872949  1
  O  O271  1  0.25466100  0.24769630  0.76595128  1
  O  O272  1  0.26635621  0.57612485  0.26498311  1
  O  O273  1  0.26683548  0.57702139  0.76650010  1
  O  O274  1  0.26675536  0.90539919  0.27092332  1
  O  O275  1  0.27231373  0.90323778  0.77706541  1
  O  O276  1  0.60086146  0.23365602  0.26403141  1
  O  O277  1  0.59587642  0.24796771  0.76452381  1
  O  O278  1  0.59143991  0.57357598  0.27173688  1
  O  O279  1  0.60845209  0.56666027  0.76977297  1
  O  O280  1  0.59248377  0.90272795  0.27457826  1
  O  O281  1  0.59650635  0.90333030  0.76021322  1
  O  O282  1  0.91686317  0.23893755  0.26009285  1
  O  O283  1  0.92433571  0.23993231  0.77358635  1
  O  O284  1  0.92146732  0.56912381  0.26563608  1
  O  O285  1  0.91995716  0.56815821  0.78737765  1
  O  O286  1  0.91695961  0.90297572  0.26806796  1
  O  O287  1  0.92453753  0.89931880  0.77644625  1
  O  O288  1  0.26908513  0.23417998  0.47937038  1
  O  O289  1  0.25994210  0.25261445  0.98705643  1
  O  O290  1  0.25999708  0.57584280  0.49379328  1
  O  O291  1  0.26044905  0.57432069  0.98420725  1
  O  O292  1  0.27612283  0.91376447  0.46963178  1
  O  O293  1  0.26748894  0.90604473  0.96965346  1
  O  O294  1  0.59144297  0.23266011  0.48242177  1
  O  O295  1  0.59321078  0.23429433  0.99601952  1
  O  O296  1  0.58511273  0.58308760  0.47317737  1
  O  O297  1  0.61000847  0.56342283  0.97818708  1
  O  O298  1  0.58873593  0.90287021  0.46509546  1
  O  O299  1  0.59696619  0.91721449  0.98721280  1
  O  O300  1  0.91959539  0.24321257  0.48534738  1
  O  O301  1  0.92119240  0.23223584  0.98962377  1
  O  O302  1  0.91321978  0.57827819  0.47547534  1
  O  O303  1  0.93004211  0.56694757  0.97387187  1
  O  O304  1  0.91757701  0.89833729  0.48521270  1
  O  O305  1  0.92782660  0.90155701  0.96691732  1
  O  O306  1  0.24339014  0.07010435  0.47652201  1
  O  O307  1  0.23742847  0.06242753  0.97354401  1
  O  O308  1  0.24675913  0.40014447  0.48541143  1
  O  O309  1  0.23711133  0.40680599  0.97904014  1
  O  O310  1  0.25235965  0.74923314  0.46826265  1
  O  O311  1  0.24673999  0.73944419  0.97766863  1
  O  O312  1  0.55823018  0.06929362  0.47657014  1
  O  O313  1  0.57143362  0.07382759  0.98491350  1
  O  O314  1  0.56895954  0.39600718  0.49049529  1
  O  O315  1  0.58122682  0.40918480  0.98952326  1
  O  O316  1  0.56616421  0.74585587  0.46067539  1
  O  O317  1  0.57011127  0.73884195  0.98977553  1
  O  O318  1  0.91213776  0.07526106  0.48289223  1
  O  O319  1  0.89018352  0.06581990  0.97915237  1
  O  O320  1  0.89367014  0.40114228  0.47590626  1
  O  O321  1  0.90650058  0.41447249  0.97590740  1
  O  O322  1  0.88526057  0.73534486  0.47762910  1
  O  O323  1  0.89934097  0.72782455  0.98346223  1
  O  O324  1  0.08962303  0.25741758  0.22599705  1
  O  O325  1  0.07992186  0.25880252  0.73351161  1
  O  O326  1  0.08457152  0.59331333  0.22318337  1
  O  O327  1  0.08616918  0.58737482  0.73872299  1
  O  O328  1  0.08231235  0.91562097  0.22037374  1
  O  O329  1  0.11270089  0.93911229  0.73219835  1
  O  O330  1  0.43836244  0.26162595  0.22280940  1
  O  O331  1  0.43305837  0.26830870  0.73056174  1
  O  O332  1  0.44183871  0.60067562  0.22623839  1
  O  O333  1  0.43065493  0.58791322  0.72535647  1
  O  O334  1  0.42838568  0.92353485  0.23143967  1
  O  O335  1  0.42881230  0.93426607  0.72124540  1
  O  O336  1  0.76153920  0.26453658  0.22303418  1
  O  O337  1  0.75798762  0.26209085  0.73549457  1
  O  O338  1  0.76393778  0.59201682  0.21368575  1
  O  O339  1  0.76695927  0.59627266  0.72761987  1
  O  O340  1  0.76382964  0.93315340  0.22612021  1
  O  O341  1  0.76078715  0.91902964  0.72735532  1
  O  O342  1  0.06751867  0.09876595  0.22157191  1
  O  O343  1  0.07073477  0.10098849  0.72103380  1
  O  O344  1  0.07311514  0.43816748  0.22473410  1
  O  O345  1  0.06439399  0.42153996  0.73942285  1
  O  O346  1  0.06012228  0.75502054  0.22168190  1
  O  O347  1  0.06429491  0.76353479  0.75044452  1
  O  O348  1  0.40421155  0.10562375  0.22815424  1
  O  O349  1  0.40486641  0.08708322  0.73152449  1
  O  O350  1  0.42020960  0.42447769  0.22702481  1
  O  O351  1  0.41317135  0.43448908  0.72072702  1
  O  O352  1  0.40347105  0.76412177  0.22183558  1
  O  O353  1  0.40899499  0.75285234  0.73754109  1
  O  O354  1  0.73472426  0.09671463  0.22295235  1
  O  O355  1  0.74928118  0.09354530  0.73805065  1
  O  O356  1  0.73388352  0.42979078  0.21838154  1
  O  O357  1  0.73180343  0.43457953  0.73393543  1
  O  O358  1  0.74077345  0.76450370  0.22611217  1
  O  O359  1  0.73903589  0.75925864  0.71889835  1
