# generated using pymatgen
data_BaLaInIrO6
_symmetry_space_group_name_H-M   'P 1'
_cell_length_a   17.51526370
_cell_length_b   17.54617403
_cell_length_c   16.48072535
_cell_angle_alpha   90.06889202
_cell_angle_beta   90.01579682
_cell_angle_gamma   90.01964322
_symmetry_Int_Tables_number   1
_chemical_formula_structural   BaLaInIrO6
_chemical_formula_sum   'Ba36 La36 In36 Ir36 O216'
_cell_volume   5064.94902225
_cell_formula_units_Z   36
loop_
 _symmetry_equiv_pos_site_id
 _symmetry_equiv_pos_as_xyz
  1  'x, y, z'
loop_
 _atom_site_type_symbol
 _atom_site_label
 _atom_site_symmetry_multiplicity
 _atom_site_fract_x
 _atom_site_fract_y
 _atom_site_fract_z
 _atom_site_occupancy
  Ba  Ba0  1  1.00809552  0.84516005  0.62362338  1
  Ba  Ba1  1  1.00237245  0.50729771  0.12648287  1
  Ba  Ba2  1  0.66594796  0.16247028  0.87547053  1
  Ba  Ba3  1  0.16646354  0.32580095  0.37720345  1
  Ba  Ba4  1  0.83042806  0.33997800  0.62252841  1
  Ba  Ba5  1  0.32998707  0.49217811  0.37338418  1
  Ba  Ba6  1  0.33118671  0.17922782  0.62687038  1
  Ba  Ba7  1  0.49887052  0.99557265  0.87299513  1
  Ba  Ba8  1  0.33264380  0.48923330  0.87020832  1
  Ba  Ba9  1  0.83284493  0.98926241  0.37480292  1
  Ba  Ba10  1  0.00281493  0.15794564  0.87756591  1
  Ba  Ba11  1  0.49713695  0.32918818  0.87529002  1
  Ba  Ba12  1  0.83406930  0.67442428  0.62392126  1
  Ba  Ba13  1  0.49784053  0.32739311  0.37227830  1
  Ba  Ba14  1  0.33104345  0.16299406  0.37393403  1
  Ba  Ba15  1  0.83788534  0.00313893  0.62909565  1
  Ba  Ba16  1  0.49741566  0.00819835  0.12269592  1
  Ba  Ba17  1  0.66641835  0.17239845  0.12496510  1
  Ba  Ba18  1  0.00055635  0.48413368  0.37676642  1
  Ba  Ba19  1  0.50248913  0.66277483  0.87461519  1
  Ba  Ba20  1  0.33445188  0.50932232  0.12262555  1
  Ba  Ba21  1  0.32882875  0.16105216  0.87561411  1
  Ba  Ba22  1  0.83161826  0.00565989  0.12480847  1
  Ba  Ba23  1  -0.00336166  0.82336001  0.87736069  1
  Ba  Ba24  1  0.67017426  0.50495706  0.12311733  1
  Ba  Ba25  1  0.83023536  0.34391980  0.12387782  1
  Ba  Ba26  1  0.66793423  0.83042150  0.87378763  1
  Ba  Ba27  1  0.66336796  0.83953703  0.12267133  1
  Ba  Ba28  1  0.66711517  0.15740909  0.37647017  1
  Ba  Ba29  1  0.50424224  0.34026459  0.12518518  1
  Ba  Ba30  1  0.49625742  0.65707619  0.37380957  1
  Ba  Ba31  1  0.33540144  0.82548788  0.37542027  1
  Ba  Ba32  1  0.50081379  0.34028865  0.62395798  1
  Ba  Ba33  1  0.33192120  0.84269937  0.62516347  1
  Ba  Ba34  1  0.33544773  0.84130086  0.12733240  1
  Ba  Ba35  1  0.16315968  0.67517592  0.62266790  1
  La  La36  1  1.00363897  0.85222378  0.12810317  1
  La  La37  1  0.17483023  0.65194651  0.37503724  1
  La  La38  1  0.65990032  0.17627289  0.62745628  1
  La  La39  1  0.50306426  0.99134700  0.37500549  1
  La  La40  1  0.16253140  0.34880132  0.62820356  1
  La  La41  1  0.15957870  0.68063222  0.12928576  1
  La  La42  1  0.17610011  0.31871789  0.87811048  1
  La  La43  1  0.49360749  0.01519696  0.62890439  1
  La  La44  1  0.83482119  0.64968446  0.37090183  1
  La  La45  1  1.00317016  0.51409773  0.62603030  1
  La  La46  1  -0.00581657  0.15614706  0.38035911  1
  La  La47  1  -0.00243381  0.81437285  0.37311157  1
  La  La48  1  0.66086877  0.81841816  0.37171868  1
  La  La49  1  0.84036039  0.31484544  0.37493223  1
  La  La50  1  0.33917731  0.18387018  0.12627204  1
  La  La51  1  0.66149491  0.48811548  0.37447918  1
  La  La52  1  0.83666301  0.31411818  0.87709267  1
  La  La53  1  -0.00114850  0.47812472  0.87175971  1
  La  La54  1  0.17079638  0.98695301  0.37502850  1
  La  La55  1  0.49309711  0.67977718  0.62446841  1
  La  La56  1  0.66974668  0.84615924  0.62689021  1
  La  La57  1  0.16213977  0.01973946  0.12586632  1
  La  La58  1  0.82780895  0.65645595  0.87850147  1
  La  La59  1  0.17445030  0.65339663  0.86886294  1
  La  La60  1  1.00478856  0.19010366  0.12705144  1
  La  La61  1  0.33705983  0.51249815  0.62384046  1
  La  La62  1  0.83347302  0.98621899  0.87437020  1
  La  La63  1  0.66561853  0.48868139  0.87718195  1
  La  La64  1  1.00462683  0.18542742  0.62812092  1
  La  La65  1  0.32926537  0.81720471  0.87800296  1
  La  La66  1  0.83064914  0.67280650  0.12548107  1
  La  La67  1  0.16438892  0.34875867  0.13081175  1
  La  La68  1  0.17725160  0.98536026  0.87048531  1
  La  La69  1  0.50074904  0.67445192  0.12938512  1
  La  La70  1  0.15989168  0.01742182  0.62410109  1
  La  La71  1  0.67004213  0.51346515  0.62496424  1
  In  In72  1  0.66990611  0.33174567  0.49771290  1
  In  In73  1  0.83451822  0.49812307  0.74863067  1
  In  In74  1  0.49986605  0.49903878  0.50008481  1
  In  In75  1  0.67062027  0.33453332  -0.00199966  1
  In  In76  1  0.16458124  0.83355859  0.00257807  1
  In  In77  1  0.49639633  0.16592175  0.49977790  1
  In  In78  1  0.49693364  0.83510064  0.74801788  1
  In  In79  1  0.83914380  0.50172577  -0.00117576  1
  In  In80  1  0.49899213  0.16718214  -0.00132447  1
  In  In81  1  0.49889300  0.16386172  0.25103128  1
  In  In82  1  0.33145206  0.33748881  0.00216881  1
  In  In83  1  0.33238392  0.00180574  0.50135046  1
  In  In84  1  0.33054786  0.00012442  0.24864342  1
  In  In85  1  0.66649842  0.00312411  0.74864875  1
  In  In86  1  0.83476425  0.82979809  0.25112388  1
  In  In87  1  0.00429129  0.00367345  0.75294894  1
  In  In88  1  0.16374515  0.16898440  0.25414810  1
  In  In89  1  0.66884370  -0.00250400  0.25023245  1
  In  In90  1  -0.00155968  0.66482742  0.49607910  1
  In  In91  1  0.83486861  0.82953407  0.74879154  1
  In  In92  1  0.83161766  0.83174333  0.49810041  1
  In  In93  1  0.16702706  0.49870732  0.50224922  1
  In  In94  1  0.16398025  0.50300844  -0.00225204  1
  In  In95  1  0.83728618  0.82955208  0.00322728  1
  In  In96  1  0.16700891  0.83381012  0.74946091  1
  In  In97  1  0.83797335  0.16157062  0.00174117  1
  In  In98  1  0.50038659  0.50588948  -0.00143180  1
  In  In99  1  0.00460985  0.00237834  0.00063925  1
  In  In100  1  0.66758851  0.33574996  0.74871177  1
  In  In101  1  0.66626726  0.66644854  0.49948999  1
  In  In102  1  0.83283678  0.15978124  0.50572809  1
  In  In103  1  0.33000053  0.66754515  0.24703056  1
  In  In104  1  0.00010026  0.66338183  0.75626103  1
  In  In105  1  0.16622207  0.83411230  0.49622057  1
  In  In106  1  0.49634260  0.83482002  -0.00115684  1
  In  In107  1  0.67173531  0.33159196  0.25229377  1
  Ir  Ir108  1  0.66821843  0.00027064  -0.00120961  1
  Ir  Ir109  1  0.50128898  0.50251245  0.25026856  1
  Ir  Ir110  1  0.66838429  0.66802734  0.00025047  1
  Ir  Ir111  1  0.00276516  0.33176404  0.75074005  1
  Ir  Ir112  1  0.33381674  0.66676850  0.50183507  1
  Ir  Ir113  1  0.16026549  0.17048389  0.50291569  1
  Ir  Ir114  1  0.83320234  0.49810832  0.49784989  1
  Ir  Ir115  1  0.32958707  0.33504716  0.74622875  1
  Ir  Ir116  1  0.32997845  0.00253456  0.75210742  1
  Ir  Ir117  1  0.50439567  0.83265895  0.49884040  1
  Ir  Ir118  1  -0.00167852  0.33227178  0.50335096  1
  Ir  Ir119  1  0.00192847  0.66362106  0.00268484  1
  Ir  Ir120  1  0.16616103  0.17083350  0.74849409  1
  Ir  Ir121  1  0.32650475  0.33361915  0.50261535  1
  Ir  Ir122  1  0.15969413  0.83381791  0.24924439  1
  Ir  Ir123  1  0.32545366  0.00051360  -0.00216973  1
  Ir  Ir124  1  0.49583371  0.16788856  0.74943672  1
  Ir  Ir125  1  0.83526767  0.50277191  0.25415825  1
  Ir  Ir126  1  0.00448598  0.00249324  0.25259896  1
  Ir  Ir127  1  0.32887273  0.33842630  0.25264064  1
  Ir  Ir128  1  0.66897758  0.66399864  0.24681460  1
  Ir  Ir129  1  0.84330305  0.16401557  0.25199414  1
  Ir  Ir130  1  0.50173644  0.82948500  0.25276199  1
  Ir  Ir131  1  0.83702128  0.16714164  0.74951859  1
  Ir  Ir132  1  0.16664625  0.16800319  0.00277321  1
  Ir  Ir133  1  0.50161308  0.50266513  0.74778591  1
  Ir  Ir134  1  0.66209740  0.66483428  0.74879603  1
  Ir  Ir135  1  0.00083287  0.66420466  0.24788557  1
  Ir  Ir136  1  0.32931377  0.66813068  -0.00328239  1
  Ir  Ir137  1  -0.00098267  0.33427396  0.25131949  1
  Ir  Ir138  1  0.33351346  0.66273119  0.74847860  1
  Ir  Ir139  1  0.66143541  -0.00456953  0.50274290  1
  Ir  Ir140  1  0.16440026  0.50047020  0.24873706  1
  Ir  Ir141  1  0.00582692  0.33235365  -0.00171067  1
  Ir  Ir142  1  0.16606989  0.49752107  0.74953214  1
  Ir  Ir143  1  0.00561207  0.00441117  0.49586905  1
  O  O144  1  0.30105969  0.33417499  0.13289150  1
  O  O145  1  0.29859261  0.33543736  0.62466184  1
  O  O146  1  0.29905727  0.66826299  0.11730162  1
  O  O147  1  0.31119656  0.65327629  0.62650417  1
  O  O148  1  0.29623579  0.99245688  0.11732596  1
  O  O149  1  0.29730259  0.99799322  0.63354312  1
  O  O150  1  0.65946375  0.33384287  0.12711713  1
  O  O151  1  0.65584436  0.31439229  0.62532614  1
  O  O152  1  0.63686919  0.65830701  0.12267655  1
  O  O153  1  0.63167531  0.64973335  0.62954975  1
  O  O154  1  0.64951618  0.99980853  0.11896186  1
  O  O155  1  0.63210822  0.98758375  0.62041888  1
  O  O156  1  0.97831932  0.32983296  0.12498541  1
  O  O157  1  0.97614979  0.32378135  0.62733356  1
  O  O158  1  0.96694479  0.65882293  0.12466739  1
  O  O159  1  0.98284783  0.65150671  0.62472516  1
  O  O160  1  0.98114096  0.99196860  0.13511020  1
  O  O161  1  0.99020784  1.00110629  0.61639168  1
  O  O162  1  0.19716703  0.15840913  0.12245366  1
  O  O163  1  0.18485022  0.15495230  0.62515795  1
  O  O164  1  0.18015205  0.48830232  0.12763694  1
  O  O165  1  0.19903038  0.48858665  0.63126750  1
  O  O166  1  0.18608501  0.81709133  0.13121912  1
  O  O167  1  0.18282339  0.83102603  0.62256718  1
  O  O168  1  0.51418422  0.16542246  0.12493615  1
  O  O169  1  0.52350974  0.16158816  0.62987761  1
  O  O170  1  0.51918835  0.50756800  0.13102223  1
  O  O171  1  0.53145773  0.49893858  0.62962723  1
  O  O172  1  0.51213383  0.81555534  0.12932839  1
  O  O173  1  0.53117445  0.81905659  0.61819619  1
  O  O174  1  0.87010464  0.16123214  0.13201419  1
  O  O175  1  0.86824995  0.16295191  0.63099449  1
  O  O176  1  0.85407329  0.50719419  0.13262554  1
  O  O177  1  0.86764662  0.49650049  0.61724671  1
  O  O178  1  0.86947058  0.81272191  0.12829460  1
  O  O179  1  0.85956068  0.82933195  0.62200095  1
  O  O180  1  0.13040059  0.17592093  0.38269054  1
  O  O181  1  0.14766149  0.18510969  0.87445411  1
  O  O182  1  0.15183724  0.51127545  0.37084512  1
  O  O183  1  0.13474788  0.51034712  0.86894815  1
  O  O184  1  0.12992079  0.84914566  0.36661926  1
  O  O185  1  0.14669470  0.84649831  0.87678755  1
  O  O186  1  0.47942140  0.15243505  0.37612053  1
  O  O187  1  0.47790354  0.16572528  0.86870112  1
  O  O188  1  0.47938770  0.50120097  0.36944001  1
  O  O189  1  0.47901242  0.50921201  0.86537966  1
  O  O190  1  0.48265000  0.84832225  0.37700629  1
  O  O191  1  0.46594283  0.83256830  0.87324800  1
  O  O192  1  0.82626971  0.16975630  0.37257324  1
  O  O193  1  0.81954408  0.17536987  0.86910554  1
  O  O194  1  0.80121423  0.50916519  0.37673628  1
  O  O195  1  0.80522042  0.51928519  0.87288868  1
  O  O196  1  0.79756217  0.83280438  0.37416535  1
  O  O197  1  0.82026328  0.84453819  0.87760853  1
  O  O198  1  0.03601106  0.01820222  0.37373876  1
  O  O199  1  0.04278964  0.00536371  0.87770184  1
  O  O200  1  0.01821082  0.32815092  0.37794939  1
  O  O201  1  0.03766246  0.33742444  0.87393072  1
  O  O202  1  0.03774632  0.67210631  0.36447138  1
  O  O203  1  0.03831895  0.66822196  0.88646369  1
  O  O204  1  0.36436255  0.00437320  0.37472322  1
  O  O205  1  0.34961816  0.00804482  0.87566507  1
  O  O206  1  0.34894829  0.33612688  0.37749932  1
  O  O207  1  0.34372647  0.33295419  0.86729276  1
  O  O208  1  0.34388682  0.66426733  0.37938247  1
  O  O209  1  0.35416964  0.67558422  0.87278108  1
  O  O210  1  0.68207367  -0.00084100  0.38416068  1
  O  O211  1  0.69598977  0.00370406  0.87726012  1
  O  O212  1  0.70509989  0.34955248  0.37434032  1
  O  O213  1  0.70351991  0.34785507  0.86908785  1
  O  O214  1  0.69807645  0.67724620  0.36753677  1
  O  O215  1  0.69477822  0.67515516  0.87463186  1
  O  O216  1  0.07275607  0.10432391  0.03311362  1
  O  O217  1  0.06373966  0.10697993  0.52233618  1
  O  O218  1  0.06814336  0.42685847  0.00862076  1
  O  O219  1  0.06694083  0.42417047  0.52999272  1
  O  O220  1  0.06284178  0.75962898  0.03236849  1
  O  O221  1  0.06659031  0.76573876  0.50034355  1
  O  O222  1  0.38928048  0.09295435  0.02152069  1
  O  O223  1  0.41003648  0.08589409  0.53491413  1
  O  O224  1  0.40871770  0.42854539  0.01062479  1
  O  O225  1  0.39447447  0.42858917  0.52287819  1
  O  O226  1  0.39604858  0.75943587  0.01047068  1
  O  O227  1  0.41214824  0.75736108  0.52301320  1
  O  O228  1  0.73942052  0.08846398  0.01419815  1
  O  O229  1  0.72580127  0.09190995  0.52820895  1
  O  O230  1  0.74555710  0.43161007  0.00786502  1
  O  O231  1  0.73925528  0.43715769  0.52339608  1
  O  O232  1  0.74118976  0.75379377  0.02159879  1
  O  O233  1  0.72993721  0.76451204  0.52610202  1
  O  O234  1  0.10245164  0.26671885  0.02947392  1
  O  O235  1  0.09399011  0.26557568  0.53364338  1
  O  O236  1  0.09864830  0.60493806  0.02631530  1
  O  O237  1  0.08840224  0.58574735  0.51563659  1
  O  O238  1  0.10039862  0.93149476  0.03587992  1
  O  O239  1  0.10245198  0.94597021  0.51189566  1
  O  O240  1  0.41372814  0.25356163  0.02321394  1
  O  O241  1  0.41732801  0.26437577  0.51255154  1
  O  O242  1  0.42717730  0.60666005  0.02369666  1
  O  O243  1  0.42595161  0.59559369  0.52720596  1
  O  O244  1  0.41699992  0.93164787  0.01359733  1
  O  O245  1  0.43739780  0.92410530  0.52346663  1
  O  O246  1  0.77068274  0.26005865  0.00272343  1
  O  O247  1  0.76891358  0.25937381  0.50206805  1
  O  O248  1  0.76689928  0.60563353  0.01623932  1
  O  O249  1  0.76377934  0.58842306  0.51744385  1
  O  O250  1  0.75654225  0.92764362  0.00987714  1
  O  O251  1  0.75308595  0.92862247  0.52245797  1
  O  O252  1  0.22609366  0.06627844  0.27124280  1
  O  O253  1  0.23095399  0.07187942  0.77216048  1
  O  O254  1  0.23328075  0.40742194  0.26577427  1
  O  O255  1  0.23032120  0.39964820  0.76987572  1
  O  O256  1  0.22342952  0.73662068  0.27165323  1
  O  O257  1  0.24596835  0.73679853  0.77679824  1
  O  O258  1  0.56849033  0.06048878  0.26905605  1
  O  O259  1  0.56793040  0.07851149  0.75748701  1
  O  O260  1  0.57806443  0.41821951  0.27109306  1
  O  O261  1  0.57370691  0.41617846  0.77132706  1
  O  O262  1  0.57542529  0.73431245  0.26730992  1
  O  O263  1  0.57149226  0.73268485  0.75708721  1
  O  O264  1  0.91577290  0.07359487  0.27893791  1
  O  O265  1  0.89991381  0.07284403  0.77367801  1
  O  O266  1  0.90038479  0.40278664  0.27600312  1
  O  O267  1  0.90888529  0.39688594  0.77992670  1
  O  O268  1  0.90901604  0.73057765  0.27849707  1
  O  O269  1  0.89705816  0.72646399  0.77776610  1
  O  O270  1  0.25810670  0.24756203  0.26274185  1
  O  O271  1  0.25597471  0.24537102  0.76927644  1
  O  O272  1  0.25083337  0.57565964  0.26391491  1
  O  O273  1  0.25470439  0.57377833  0.77277107  1
  O  O274  1  0.25067985  0.90336905  0.27066536  1
  O  O275  1  0.26968313  0.90723448  0.77849799  1
  O  O276  1  0.59156593  0.24297337  0.26954367  1
  O  O277  1  0.58646676  0.23880095  0.76142597  1
  O  O278  1  0.59759234  0.57097144  0.27501957  1
  O  O279  1  0.59919253  0.56644400  0.77311240  1
  O  O280  1  0.59415566  0.89517675  0.27253853  1
  O  O281  1  0.58939489  0.90873650  0.76158365  1
  O  O282  1  0.93740138  0.23568568  0.27381044  1
  O  O283  1  0.93234341  0.23824686  0.77135612  1
  O  O284  1  0.92787502  0.57461289  0.27677906  1
  O  O285  1  0.93903848  0.55738896  0.76880479  1
  O  O286  1  0.94238446  0.90223626  0.27212300  1
  O  O287  1  0.92409557  0.91526398  0.76999103  1
  O  O288  1  0.25565311  0.23789602  0.48565413  1
  O  O289  1  0.25239244  0.24054039  0.98598444  1
  O  O290  1  0.26192738  0.57715379  0.48940498  1
  O  O291  1  0.25893763  0.57957000  0.97520538  1
  O  O292  1  0.25627569  0.91257839  0.47325059  1
  O  O293  1  0.26466855  0.90488665  0.97250322  1
  O  O294  1  0.59667269  0.23265914  0.49362749  1
  O  O295  1  0.58872513  0.24669009  0.98144958  1
  O  O296  1  0.59905305  0.56970998  0.47612466  1
  O  O297  1  0.60413527  0.57670993  0.97518033  1
  O  O298  1  0.59978441  0.89703166  0.47542999  1
  O  O299  1  0.59260879  0.91271736  0.98465388  1
  O  O300  1  0.93527138  0.23646413  0.48417153  1
  O  O301  1  0.93881681  0.23924514  0.99170904  1
  O  O302  1  0.91928033  0.56976217  0.47375856  1
  O  O303  1  0.94207028  0.56712106  0.97131134  1
  O  O304  1  0.94347747  0.90788304  0.47075171  1
  O  O305  1  0.93576825  0.90116576  0.99983343  1
  O  O306  1  0.22533683  0.07602188  0.47898092  1
  O  O307  1  0.22449159  0.06499936  0.98084936  1
  O  O308  1  0.23501980  0.40094541  0.49160534  1
  O  O309  1  0.23027584  0.40266367  0.98259597  1
  O  O310  1  0.23909432  0.73324970  0.47636980  1
  O  O311  1  0.23499275  0.73404519  0.97175302  1
  O  O312  1  0.56499695  0.05603445  0.48849732  1
  O  O313  1  0.58038602  0.07165622  0.98363022  1
  O  O314  1  0.57775823  0.40923224  0.47943591  1
  O  O315  1  0.58284995  0.42006969  0.97503752  1
  O  O316  1  0.57189739  0.74379848  0.47482891  1
  O  O317  1  0.57521883  0.73661891  0.99235212  1
  O  O318  1  0.91256216  0.06991185  0.47999300  1
  O  O319  1  0.90134113  0.06222922  0.97252061  1
  O  O320  1  0.90029209  0.39900222  0.47510960  1
  O  O321  1  0.91287217  0.39935820  0.96709250  1
  O  O322  1  0.90348138  0.73543501  0.46307420  1
  O  O323  1  0.90444440  0.72096756  0.97936047  1
  O  O324  1  0.09159044  0.26533135  0.22203396  1
  O  O325  1  0.09902729  0.26555898  0.72317595  1
  O  O326  1  0.09871975  0.59864241  0.22534541  1
  O  O327  1  0.09696030  0.58433373  0.72766782  1
  O  O328  1  0.09859906  0.93433734  0.22479846  1
  O  O329  1  0.10825916  0.94188035  0.73095268  1
  O  O330  1  0.41372644  0.26457807  0.23348616  1
  O  O331  1  0.42427182  0.26404083  0.73070499  1
  O  O332  1  0.42937644  0.59468462  0.22865134  1
  O  O333  1  0.42685081  0.59117067  0.71733760  1
  O  O334  1  0.43124898  0.92023274  0.23803069  1
  O  O335  1  0.42279200  0.93526394  0.72433258  1
  O  O336  1  0.77640867  0.25611278  0.24280500  1
  O  O337  1  0.76826953  0.25674217  0.73804602  1
  O  O338  1  0.77064566  0.60099995  0.23376884  1
  O  O339  1  0.75300871  0.59779238  0.73186581  1
  O  O340  1  0.75957934  0.92145103  0.23153331  1
  O  O341  1  0.75340388  0.92080939  0.73081107  1
  O  O342  1  0.06540637  0.09857198  0.22477780  1
  O  O343  1  0.07286142  0.10589311  0.72467687  1
  O  O344  1  0.07406594  0.42261134  0.22988541  1
  O  O345  1  0.07053527  0.42798943  0.72269249  1
  O  O346  1  0.06398460  0.76225185  0.22288168  1
  O  O347  1  0.07398513  0.75667378  0.73902663  1
  O  O348  1  0.39306539  0.09967465  0.22121797  1
  O  O349  1  0.40609242  0.09148372  0.72790550  1
  O  O350  1  0.40810543  0.43058084  0.23131470  1
  O  O351  1  0.40224068  0.43331500  0.72241927  1
  O  O352  1  0.41335757  0.75566065  0.23683179  1
  O  O353  1  0.40766848  0.74986447  0.72516306  1
  O  O354  1  0.75213506  0.09468411  0.23854042  1
  O  O355  1  0.74116948  0.10299057  0.72459184  1
  O  O356  1  0.74583152  0.43716006  0.24036287  1
  O  O357  1  0.73489620  0.43683744  0.72124128  1
  O  O358  1  0.74244601  0.74781375  0.22109572  1
  O  O359  1  0.72627834  0.75892784  0.72503444  1
