# generated using pymatgen
data_BaLaInIrO6
_symmetry_space_group_name_H-M   'P 1'
_cell_length_a   17.50886506
_cell_length_b   17.53148251
_cell_length_c   16.47696717
_cell_angle_alpha   90.02333562
_cell_angle_beta   90.00198248
_cell_angle_gamma   89.98110115
_symmetry_Int_Tables_number   1
_chemical_formula_structural   BaLaInIrO6
_chemical_formula_sum   'Ba36 La36 In36 Ir36 O216'
_cell_volume   5057.70919338
_cell_formula_units_Z   36
loop_
 _symmetry_equiv_pos_site_id
 _symmetry_equiv_pos_as_xyz
  1  'x, y, z'
loop_
 _atom_site_type_symbol
 _atom_site_label
 _atom_site_symmetry_multiplicity
 _atom_site_fract_x
 _atom_site_fract_y
 _atom_site_fract_z
 _atom_site_occupancy
  Ba  Ba0  1  0.49741698  0.99394778  0.87230358  1
  Ba  Ba1  1  0.66362781  0.83986228  0.12460403  1
  Ba  Ba2  1  0.99890913  0.50699508  0.12255101  1
  Ba  Ba3  1  0.82779924  0.65711635  0.87667585  1
  Ba  Ba4  1  0.33176302  0.48570889  0.87535294  1
  Ba  Ba5  1  0.49764399  0.01450150  0.12039082  1
  Ba  Ba6  1  0.16891891  0.99451666  0.37441847  1
  Ba  Ba7  1  0.83130233  0.34551886  0.12113021  1
  Ba  Ba8  1  0.66557068  0.50698072  0.62864630  1
  Ba  Ba9  1  0.83316795  0.66254796  0.38286426  1
  Ba  Ba10  1  0.33553340  0.84753976  0.12416302  1
  Ba  Ba11  1  0.16912977  0.34067778  0.62548065  1
  Ba  Ba12  1  0.66905167  0.17750419  0.12628404  1
  Ba  Ba13  1  1.00109606  0.83937297  0.62377824  1
  Ba  Ba14  1  0.33844629  0.50837235  0.62527595  1
  Ba  Ba15  1  0.66797349  0.82162425  0.37372862  1
  Ba  Ba16  1  0.16712245  0.32232885  0.87564458  1
  Ba  Ba17  1  0.33624902  0.50686627  0.12400682  1
  Ba  Ba18  1  0.66873976  0.50748752  0.12613427  1
  Ba  Ba19  1  0.66496582  0.82651416  0.87014945  1
  Ba  Ba20  1  0.33079374  0.49216179  0.37219106  1
  Ba  Ba21  1  0.83530122  0.67594003  0.62776737  1
  Ba  Ba22  1  0.50055154  0.01463886  0.62594512  1
  Ba  Ba23  1  0.83178737  0.00425966  0.62017281  1
  Ba  Ba24  1  1.00069861  0.17640414  0.12720657  1
  Ba  Ba25  1  0.16845648  0.01471300  0.12414643  1
  Ba  Ba26  1  0.83606637  0.99193112  0.37020394  1
  Ba  Ba27  1  0.33577363  0.15917756  0.37911081  1
  Ba  Ba28  1  -0.00133507  0.49643272  0.37673689  1
  Ba  Ba29  1  0.00005630  0.82737721  0.37605305  1
  Ba  Ba30  1  1.00023655  0.17076484  0.62118760  1
  Ba  Ba31  1  0.66571548  0.83786420  0.61981745  1
  Ba  Ba32  1  0.50539004  0.65448573  0.37610351  1
  Ba  Ba33  1  0.83519370  0.32551047  0.87368574  1
  Ba  Ba34  1  0.16784676  0.66031963  0.37628159  1
  Ba  Ba35  1  0.33920584  0.17564832  0.12987004  1
  La  La36  1  0.16130340  0.34881796  0.12229444  1
  La  La37  1  0.50362495  0.98713116  0.36863502  1
  La  La38  1  0.49356433  0.68512500  0.62475612  1
  La  La39  1  0.33077351  0.15729683  0.87725249  1
  La  La40  1  -0.00519709  0.48123651  0.87589930  1
  La  La41  1  0.83561444  0.98118249  0.87333096  1
  La  La42  1  -0.00294769  0.15341686  0.87707161  1
  La  La43  1  0.82261921  0.01765378  0.11979025  1
  La  La44  1  0.33930949  0.85135484  0.62219024  1
  La  La45  1  0.67312049  0.17915205  0.62796954  1
  La  La46  1  0.32566153  0.81857366  0.37287727  1
  La  La47  1  0.65697797  0.15217557  0.37659267  1
  La  La48  1  0.50282328  0.31886899  0.37173638  1
  La  La49  1  0.49904511  0.34315539  0.12376219  1
  La  La50  1  0.50808505  0.64940879  0.88013196  1
  La  La51  1  0.17114692  0.64901101  0.87468949  1
  La  La52  1  0.66339715  0.15292525  0.87443774  1
  La  La53  1  0.17173684  0.99074968  0.87267164  1
  La  La54  1  0.16524990  0.67542291  0.12244123  1
  La  La55  1  0.16442265  0.67265104  0.62274633  1
  La  La56  1  0.49155388  0.34502853  0.62450774  1
  La  La57  1  0.16151245  0.01651054  0.62455409  1
  La  La58  1  -0.00048630  0.15839284  0.37413269  1
  La  La59  1  0.66101099  0.48801643  0.37282597  1
  La  La60  1  0.49601586  0.68299134  0.12940002  1
  La  La61  1  0.50221427  0.31713965  0.87584271  1
  La  La62  1  0.33013712  0.81794585  0.87894583  1
  La  La63  1  1.00427758  0.51041507  0.63031738  1
  La  La64  1  0.66426277  0.48130385  0.87985611  1
  La  La65  1  1.00445950  0.84382499  0.12759766  1
  La  La66  1  0.33537368  0.18226521  0.62810173  1
  La  La67  1  -0.00734814  0.81253821  0.87566177  1
  La  La68  1  0.16835827  0.32923261  0.36524140  1
  La  La69  1  0.82792798  0.67461970  0.12775023  1
  La  La70  1  0.82762490  0.34612594  0.62524510  1
  La  La71  1  0.83202717  0.32500013  0.37062068  1
  In  In72  1  0.83106115  0.16915317  0.49805304  1
  In  In73  1  0.33202722  0.33128957  0.00144202  1
  In  In74  1  0.83361910  0.50004446  0.75121505  1
  In  In75  1  0.00156260  0.66585455  0.50058447  1
  In  In76  1  0.66549781  -0.00101888  0.74704011  1
  In  In77  1  0.33577710  0.33293766  0.49509398  1
  In  In78  1  0.83344835  0.16333571  0.75140128  1
  In  In79  1  0.00035377  0.33638209  0.25071523  1
  In  In80  1  0.16601047  0.50534100  0.24697629  1
  In  In81  1  0.66326818  0.33289659  0.50162131  1
  In  In82  1  0.16769178  0.83372315  0.24866095  1
  In  In83  1  -0.00001654  0.32753764  0.74755935  1
  In  In84  1  0.17150172  0.83552603  0.50397269  1
  In  In85  1  0.33475779  0.66605985  0.75050796  1
  In  In86  1  0.66468329  0.66455937  0.00335322  1
  In  In87  1  -0.00167777  0.00127347  0.24679074  1
  In  In88  1  0.83252090  0.83517962  0.49940552  1
  In  In89  1  0.16906781  0.83235146  0.75208077  1
  In  In90  1  0.66412377  0.66222715  0.50242753  1
  In  In91  1  0.83048546  0.50271309  0.25310367  1
  In  In92  1  0.66598826  -0.00051227  -0.00290046  1
  In  In93  1  0.66688511  -0.00333491  0.24844694  1
  In  In94  1  0.83174478  0.17028191  0.25220617  1
  In  In95  1  0.49602997  0.83416572  -0.00402319  1
  In  In96  1  0.83593952  0.83121865  0.00307899  1
  In  In97  1  0.50084453  0.49877283  0.75084645  1
  In  In98  1  -0.00033782  -0.00092278  -0.00009764  1
  In  In99  1  0.16344806  0.83250108  -0.00211444  1
  In  In100  1  0.33507039  0.66367642  0.00045596  1
  In  In101  1  0.16617040  0.49708135  0.50128721  1
  In  In102  1  0.49725684  0.83490292  0.49648537  1
  In  In103  1  -0.00133246  0.33438610  0.49927888  1
  In  In104  1  0.33622509  0.00301143  0.25260714  1
  In  In105  1  0.17091285  0.16904883  0.49802136  1
  In  In106  1  0.66419838  0.66483472  0.75060085  1
  In  In107  1  0.00372356  -0.00277052  0.75168190  1
  Ir  Ir108  1  0.33549576  0.33055826  0.75165453  1
  Ir  Ir109  1  0.16319862  0.49996470  -0.00321587  1
  Ir  Ir110  1  0.16525235  0.16836036  -0.00090837  1
  Ir  Ir111  1  0.17057022  0.17389074  0.24643329  1
  Ir  Ir112  1  0.33615611  0.33295863  0.24807767  1
  Ir  Ir113  1  0.50269959  0.17158302  0.25154321  1
  Ir  Ir114  1  0.33714450  0.66595055  0.25115629  1
  Ir  Ir115  1  0.17057943  0.16517467  0.75413178  1
  Ir  Ir116  1  0.33167000  0.00242916  0.75105037  1
  Ir  Ir117  1  0.66184689  0.32943442  0.75216290  1
  Ir  Ir118  1  0.16716890  0.49929482  0.75235211  1
  Ir  Ir119  1  0.49962625  0.17107381  -0.00274066  1
  Ir  Ir120  1  0.83404758  0.49900764  -0.00031585  1
  Ir  Ir121  1  0.66363628  0.66560156  0.24932320  1
  Ir  Ir122  1  0.66405827  0.33543299  0.25028196  1
  Ir  Ir123  1  0.49041108  0.83589746  0.74861505  1
  Ir  Ir124  1  0.00166019  0.33162249  -0.00112951  1
  Ir  Ir125  1  0.83036944  0.49748141  0.50113769  1
  Ir  Ir126  1  0.66150676  0.00323010  0.49697826  1
  Ir  Ir127  1  0.49667831  0.83176354  0.25125207  1
  Ir  Ir128  1  -0.00414777  0.66766804  0.24292737  1
  Ir  Ir129  1  0.50271339  0.16622650  0.50270816  1
  Ir  Ir130  1  0.00287700  0.00250524  0.49976945  1
  Ir  Ir131  1  0.49950926  0.49683865  0.49578210  1
  Ir  Ir132  1  0.66513540  0.33198668  -0.00291881  1
  Ir  Ir133  1  0.49866333  0.16978209  0.74933922  1
  Ir  Ir134  1  0.50282201  0.49634210  0.00348962  1
  Ir  Ir135  1  0.33675482  0.00209278  0.50513112  1
  Ir  Ir136  1  0.83656727  0.83111856  0.75211653  1
  Ir  Ir137  1  0.33550259  0.66591013  0.50029177  1
  Ir  Ir138  1  0.33190884  0.00668784  -0.00601026  1
  Ir  Ir139  1  0.50108071  0.49704239  0.24953435  1
  Ir  Ir140  1  0.83634060  0.82736281  0.24531377  1
  Ir  Ir141  1  0.00608690  0.66280682  0.75615735  1
  Ir  Ir142  1  0.00005391  0.66161669  0.00044244  1
  Ir  Ir143  1  0.83042831  0.16962908  -0.00470006  1
  O  O144  1  0.30342012  0.33228847  0.12887994  1
  O  O145  1  0.32313768  0.32747839  0.62983245  1
  O  O146  1  0.30696385  0.66376777  0.13003537  1
  O  O147  1  0.30434260  0.66369589  0.62052638  1
  O  O148  1  0.31971415  1.00557310  0.11669714  1
  O  O149  1  0.29998938  0.98972785  0.62832461  1
  O  O150  1  0.63469778  0.33109477  0.12415711  1
  O  O151  1  0.62787209  0.32176587  0.63244119  1
  O  O152  1  0.63279771  0.66353891  0.13088212  1
  O  O153  1  0.62722584  0.66162242  0.62837591  1
  O  O154  1  0.65016203  1.00176764  0.12353088  1
  O  O155  1  0.64982664  0.99582144  0.61761805  1
  O  O156  1  0.98247184  0.33066714  0.11843997  1
  O  O157  1  0.96084848  0.32356607  0.62425444  1
  O  O158  1  0.96472563  0.66038672  0.11988745  1
  O  O159  1  0.98443773  0.65055190  0.63719169  1
  O  O160  1  0.95775889  0.99974704  0.12206126  1
  O  O161  1  0.98585838  1.00798789  0.62106359  1
  O  O162  1  0.19179970  0.17131786  0.12147917  1
  O  O163  1  0.19918277  0.15458510  0.63408487  1
  O  O164  1  0.18589438  0.49766917  0.11666925  1
  O  O165  1  0.18990731  0.50164642  0.63397406  1
  O  O166  1  0.18893140  0.81077914  0.12342721  1
  O  O167  1  0.20644227  0.81691376  0.62905041  1
  O  O168  1  0.52215026  0.17025220  0.12370824  1
  O  O169  1  0.53404995  0.16757047  0.62561069  1
  O  O170  1  0.52308735  0.48029289  0.12739796  1
  O  O171  1  0.51702195  0.48215517  0.61788981  1
  O  O172  1  0.51260677  0.82443560  0.13025591  1
  O  O173  1  0.51051457  0.82749682  0.62917443  1
  O  O174  1  0.85038646  0.16007726  0.11660880  1
  O  O175  1  0.84940728  0.15944850  0.62388750  1
  O  O176  1  0.84868029  0.50015175  0.12061325  1
  O  O177  1  0.86327457  0.48405251  0.62107266  1
  O  O178  1  0.86746184  0.81617682  0.12763007  1
  O  O179  1  0.84947036  0.83887751  0.63278204  1
  O  O180  1  0.14446912  0.18374601  0.36706092  1
  O  O181  1  0.13612223  0.16725684  0.87695095  1
  O  O182  1  0.15022369  0.50014691  0.37293452  1
  O  O183  1  0.13286380  0.50511460  0.87477338  1
  O  O184  1  0.15430007  0.83272054  0.37633085  1
  O  O185  1  0.12722333  0.85161904  0.87504197  1
  O  O186  1  0.48177327  0.18137400  0.37679814  1
  O  O187  1  0.46758498  0.17914336  0.87288340  1
  O  O188  1  0.47828414  0.50203512  0.37138282  1
  O  O189  1  0.47990759  0.50911610  0.88434521  1
  O  O190  1  0.46484826  0.84107687  0.37033186  1
  O  O191  1  0.46332064  0.83900835  0.86655925  1
  O  O192  1  0.78962503  0.18405400  0.37623764  1
  O  O193  1  0.79815194  0.17416865  0.87829890  1
  O  O194  1  0.79761399  0.50608204  0.38175146  1
  O  O195  1  0.80426505  0.49803478  0.88077883  1
  O  O196  1  0.81869756  0.83343657  0.36531928  1
  O  O197  1  0.81814801  0.83140959  0.87143956  1
  O  O198  1  0.01974147  -0.00126160  0.37926046  1
  O  O199  1  0.03654285  0.01411138  0.87663797  1
  O  O200  1  0.03722612  0.34447331  0.37436320  1
  O  O201  1  0.01923296  0.34044681  0.87866286  1
  O  O202  1  0.01683402  0.66834407  0.36445425  1
  O  O203  1  0.03561153  0.67350550  0.87976282  1
  O  O204  1  0.36843123  0.00755009  0.38558768  1
  O  O205  1  0.35246261  0.02148682  0.87144398  1
  O  O206  1  0.36751621  0.33167050  0.36741642  1
  O  O207  1  0.36194093  0.32620187  0.87282472  1
  O  O208  1  0.36056486  0.67835865  0.37568653  1
  O  O209  1  0.37223646  0.66992553  0.87533915  1
  O  O210  1  0.68203156  0.01236771  0.37716910  1
  O  O211  1  0.69678083  0.01047293  0.87238875  1
  O  O212  1  0.69106637  0.34295301  0.37197502  1
  O  O213  1  0.68799283  0.34212897  0.87459140  1
  O  O214  1  0.68077981  0.66134776  0.36897431  1
  O  O215  1  0.67467372  0.67400706  0.87685904  1
  O  O216  1  0.07393062  0.10103684  0.01559033  1
  O  O217  1  0.07982831  0.08745778  0.51010863  1
  O  O218  1  0.07474172  0.42338969  0.01931824  1
  O  O219  1  0.06339253  0.43381342  0.53168805  1
  O  O220  1  0.06512144  0.75286729  0.02674831  1
  O  O221  1  0.08803763  0.75042005  0.52795234  1
  O  O222  1  0.40022185  0.10569204  0.00706858  1
  O  O223  1  0.40234245  0.10189755  0.53005370  1
  O  O224  1  0.41413975  0.42423364  0.01823287  1
  O  O225  1  0.41039884  0.42658319  0.51381355  1
  O  O226  1  0.39663005  0.76691366  0.01079005  1
  O  O227  1  0.40124282  0.75873462  0.52460481  1
  O  O228  1  0.74233553  0.09960424  0.01382333  1
  O  O229  1  0.72437624  0.09923993  0.51608183  1
  O  O230  1  0.73488296  0.42925015  0.01324554  1
  O  O231  1  0.74015386  0.42691572  0.52032182  1
  O  O232  1  0.74673390  0.75252883  0.02571808  1
  O  O233  1  0.74323209  0.75411223  0.51092232  1
  O  O234  1  0.09900805  0.26532596  0.02383067  1
  O  O235  1  0.09389794  0.25799816  0.51524726  1
  O  O236  1  0.09800627  0.59834390  0.01888853  1
  O  O237  1  0.09454430  0.59242032  0.52796564  1
  O  O238  1  0.08646612  0.91996068  0.03410625  1
  O  O239  1  0.09650924  0.93299803  0.52626733  1
  O  O240  1  0.43630426  0.26601660  0.01858533  1
  O  O241  1  0.44006496  0.26245774  0.52221545  1
  O  O242  1  0.44047006  0.59377858  0.02636193  1
  O  O243  1  0.43414551  0.59678569  0.52339624  1
  O  O244  1  0.42058784  0.93601038  0.00836241  1
  O  O245  1  0.42420042  0.93140198  0.52221454  1
  O  O246  1  0.75891189  0.26285438  0.01754419  1
  O  O247  1  0.75747548  0.26468955  0.53452127  1
  O  O248  1  0.76669264  0.59148175  0.02131133  1
  O  O249  1  0.76183180  0.58568700  0.52417616  1
  O  O250  1  0.77256479  0.93555241  0.01437750  1
  O  O251  1  0.75069679  0.93044221  0.50639732  1
  O  O252  1  0.24224863  0.08432724  0.26466998  1
  O  O253  1  0.23644370  0.06943416  0.77649453  1
  O  O254  1  0.24383704  0.40151204  0.26593624  1
  O  O255  1  0.23966160  0.40362207  0.77073121  1
  O  O256  1  0.25066649  0.73927439  0.27043753  1
  O  O257  1  0.24146338  0.73927180  0.79012757  1
  O  O258  1  0.57118144  0.07881498  0.27694828  1
  O  O259  1  0.57077841  0.08341896  0.77104562  1
  O  O260  1  0.56769479  0.40120209  0.27546739  1
  O  O261  1  0.56968910  0.39673105  0.77697336  1
  O  O262  1  0.56667497  0.73612474  0.26265942  1
  O  O263  1  0.55165732  0.73812391  0.76800026  1
  O  O264  1  0.91822155  0.08571668  0.27761891  1
  O  O265  1  0.90430001  0.06478799  0.78180633  1
  O  O266  1  0.89943890  0.40512656  0.27383360  1
  O  O267  1  0.91140966  0.41041188  0.76782555  1
  O  O268  1  0.89896140  0.73033382  0.26078332  1
  O  O269  1  0.91411608  0.73666711  0.77549861  1
  O  O270  1  0.26110610  0.24772534  0.27521324  1
  O  O271  1  0.27021626  0.23033129  0.76872748  1
  O  O272  1  0.26494756  0.57974912  0.26367124  1
  O  O273  1  0.25440564  0.57290559  0.77531746  1
  O  O274  1  0.26630739  0.90681402  0.27237459  1
  O  O275  1  0.26840090  0.90909877  0.78154707  1
  O  O276  1  0.59620257  0.24151686  0.27676975  1
  O  O277  1  0.59323087  0.23687350  0.78030268  1
  O  O278  1  0.59777077  0.56545040  0.27221587  1
  O  O279  1  0.59741664  0.56308066  0.78246464  1
  O  O280  1  0.58475477  0.90618132  0.27287819  1
  O  O281  1  0.58404304  0.90515754  0.76174076  1
  O  O282  1  0.92828990  0.24199578  0.27810890  1
  O  O283  1  0.93332176  0.22907917  0.77783136  1
  O  O284  1  0.92844936  0.57755901  0.26157030  1
  O  O285  1  0.94094346  0.56928172  0.77657251  1
  O  O286  1  0.92743959  0.89516057  0.25660593  1
  O  O287  1  0.93213839  0.89762801  0.77627943  1
  O  O288  1  0.27226567  0.23223960  0.50089022  1
  O  O289  1  0.26119852  0.23169769  0.97745669  1
  O  O290  1  0.26534206  0.57768375  0.48532241  1
  O  O291  1  0.25074838  0.57383574  0.97546449  1
  O  O292  1  0.27603131  0.90474109  0.48246710  1
  O  O293  1  0.26210770  0.91331862  0.96990915  1
  O  O294  1  0.59687561  0.23056485  0.47759850  1
  O  O295  1  0.59503340  0.23943637  0.96907966  1
  O  O296  1  0.59574899  0.55880095  0.47847437  1
  O  O297  1  0.59637372  0.56001405  0.97896076  1
  O  O298  1  0.58775160  0.91612539  0.47281883  1
  O  O299  1  0.59048274  0.90597642  0.98157761  1
  O  O300  1  0.92255079  0.24382761  0.45867455  1
  O  O301  1  0.93221871  0.23549021  0.97551605  1
  O  O302  1  0.92170986  0.56796620  0.49206819  1
  O  O303  1  0.93184192  0.56484758  0.97386269  1
  O  O304  1  0.92577977  0.91843847  0.49003461  1
  O  O305  1  0.93057874  0.90199008  0.96639333  1
  O  O306  1  0.24428756  0.06701832  0.49102238  1
  O  O307  1  0.23337319  0.07397263  0.97102825  1
  O  O308  1  0.23498144  0.39762005  0.47600064  1
  O  O309  1  0.23547083  0.40887474  0.98642518  1
  O  O310  1  0.25256122  0.74040929  0.47821025  1
  O  O311  1  0.23501012  0.73613692  0.97009043  1
  O  O312  1  0.56525024  0.07094141  0.47255009  1
  O  O313  1  0.57401731  0.08500897  0.97409485  1
  O  O314  1  0.56464403  0.40136966  0.47275692  1
  O  O315  1  0.56872625  0.39896935  0.97320722  1
  O  O316  1  0.56919544  0.73991257  0.49231713  1
  O  O317  1  0.55773444  0.72702637  0.99009207  1
  O  O318  1  0.91906173  0.08078774  0.47340605  1
  O  O319  1  0.89841684  0.07718946  0.96923236  1
  O  O320  1  0.89125512  0.40366151  0.47456771  1
  O  O321  1  0.91179078  0.40869152  0.97616613  1
  O  O322  1  0.91681492  0.74850544  0.49358483  1
  O  O323  1  0.91406902  0.73318330  0.97953571  1
  O  O324  1  0.10582815  0.26629137  0.22753170  1
  O  O325  1  0.10211132  0.25556403  0.73434647  1
  O  O326  1  0.09326490  0.60531459  0.22187062  1
  O  O327  1  0.10289847  0.59679154  0.73153088  1
  O  O328  1  0.08721077  0.92284005  0.22412433  1
  O  O329  1  0.10600080  0.93405345  0.72417879  1
  O  O330  1  0.43639677  0.26900017  0.22901142  1
  O  O331  1  0.43092958  0.26319544  0.72479702  1
  O  O332  1  0.43419126  0.59501070  0.22550848  1
  O  O333  1  0.43543829  0.59988010  0.72597229  1
  O  O334  1  0.43380568  0.92730864  0.23770002  1
  O  O335  1  0.42092697  0.93052035  0.72393188  1
  O  O336  1  0.75693401  0.26989430  0.23357643  1
  O  O337  1  0.75446083  0.26392862  0.72332086  1
  O  O338  1  0.75823219  0.60131374  0.22811505  1
  O  O339  1  0.76063267  0.59106940  0.73334940  1
  O  O340  1  0.77022322  0.92125631  0.22343084  1
  O  O341  1  0.76990115  0.92605030  0.74670048  1
  O  O342  1  0.08182444  0.10113550  0.23927552  1
  O  O343  1  0.08166348  0.09662521  0.73384238  1
  O  O344  1  0.08245995  0.42169098  0.22220870  1
  O  O345  1  0.07244539  0.43336752  0.73203175  1
  O  O346  1  0.06474832  0.75765304  0.22065896  1
  O  O347  1  0.07615631  0.75094900  0.73294426  1
  O  O348  1  0.41586017  0.09689776  0.24010282  1
  O  O349  1  0.39932858  0.10294185  0.72792707  1
  O  O350  1  0.41131200  0.42067117  0.22291656  1
  O  O351  1  0.40814121  0.41975888  0.73569072  1
  O  O352  1  0.40784795  0.75573863  0.22871543  1
  O  O353  1  0.39541955  0.77264561  0.72702826  1
  O  O354  1  0.74971065  0.08431517  0.23237066  1
  O  O355  1  0.72739799  0.10334158  0.73211413  1
  O  O356  1  0.72950919  0.42886641  0.24180531  1
  O  O357  1  0.73617872  0.41609947  0.73242901  1
  O  O358  1  0.73804736  0.75645743  0.22580646  1
  O  O359  1  0.74367779  0.76301058  0.73422225  1
