# generated using pymatgen
data_BaLaInIrO6
_symmetry_space_group_name_H-M   'P 1'
_cell_length_a   17.51262768
_cell_length_b   17.52406950
_cell_length_c   16.47398931
_cell_angle_alpha   90.01420562
_cell_angle_beta   90.00968923
_cell_angle_gamma   89.95706629
_symmetry_Int_Tables_number   1
_chemical_formula_structural   BaLaInIrO6
_chemical_formula_sum   'Ba36 La36 In36 Ir36 O216'
_cell_volume   5055.74219289
_cell_formula_units_Z   36
loop_
 _symmetry_equiv_pos_site_id
 _symmetry_equiv_pos_as_xyz
  1  'x, y, z'
loop_
 _atom_site_type_symbol
 _atom_site_label
 _atom_site_symmetry_multiplicity
 _atom_site_fract_x
 _atom_site_fract_y
 _atom_site_fract_z
 _atom_site_occupancy
  Ba  Ba0  1  0.50010241  0.65667475  0.37809988  1
  Ba  Ba1  1  0.33099028  0.16035069  0.37479235  1
  Ba  Ba2  1  0.33348136  0.82430404  0.87343809  1
  Ba  Ba3  1  0.33306371  0.82437337  0.37563762  1
  Ba  Ba4  1  0.16698797  0.00780264  0.62466814  1
  Ba  Ba5  1  0.50063405  0.32641209  0.37572608  1
  Ba  Ba6  1  0.99940440  0.17851913  0.62201267  1
  Ba  Ba7  1  0.83510849  0.65538282  0.87917937  1
  Ba  Ba8  1  0.99949902  0.83877718  0.12967345  1
  Ba  Ba9  1  0.50082400  0.98890167  0.37437917  1
  Ba  Ba10  1  0.33496250  0.51082341  0.62562031  1
  Ba  Ba11  1  0.66662211  0.16141532  0.87212767  1
  Ba  Ba12  1  1.00054729  0.17588144  0.12520446  1
  Ba  Ba13  1  0.33310965  0.49514667  0.37385807  1
  Ba  Ba14  1  0.16629608  0.33927043  0.12288231  1
  Ba  Ba15  1  0.49917230  0.67358831  0.62582851  1
  Ba  Ba16  1  0.83347084  0.32439944  0.87424705  1
  Ba  Ba17  1  0.49918379  0.65841827  0.87360887  1
  Ba  Ba18  1  -0.00292095  0.82325897  0.37827457  1
  Ba  Ba19  1  0.33424735  0.50687028  0.12341497  1
  Ba  Ba20  1  0.00644505  0.16427433  0.37167435  1
  Ba  Ba21  1  0.83005535  0.67002620  0.62454528  1
  Ba  Ba22  1  -0.00514788  0.16100321  0.87659630  1
  Ba  Ba23  1  0.49847181  0.34781438  0.62482660  1
  Ba  Ba24  1  0.33582827  0.83726785  0.12657657  1
  Ba  Ba25  1  0.83269196  0.32720127  0.37218636  1
  Ba  Ba26  1  0.16777815  0.65633466  0.37142928  1
  Ba  Ba27  1  0.16793839  0.32708631  0.87682744  1
  Ba  Ba28  1  -0.00030909  0.48929997  0.37039767  1
  Ba  Ba29  1  0.50575208  0.98962994  0.87182095  1
  Ba  Ba30  1  0.66857360  0.18147161  0.62635057  1
  Ba  Ba31  1  0.16453414  0.99457045  0.87689066  1
  Ba  Ba32  1  0.66212908  0.82082035  0.37786871  1
  Ba  Ba33  1  0.83072265  0.33963300  0.62580029  1
  Ba  Ba34  1  0.16809284  0.67028230  0.12926910  1
  Ba  Ba35  1  0.49586429  0.67406288  0.12384899  1
  La  La36  1  0.33816575  0.18116281  0.62691808  1
  La  La37  1  0.32657453  0.15251942  0.87328167  1
  La  La38  1  0.83753790  0.64943394  0.37400671  1
  La  La39  1  0.67181277  0.84908711  0.12334431  1
  La  La40  1  0.49793333  0.01728832  0.12565714  1
  La  La41  1  0.33425150  0.18146054  0.12072927  1
  La  La42  1  0.65708304  0.81596390  0.87170338  1
  La  La43  1  0.67262357  0.51497549  0.12845123  1
  La  La44  1  1.00361119  0.84948471  0.62670436  1
  La  La45  1  0.49665767  0.34614343  0.12383992  1
  La  La46  1  0.50772859  0.32497592  0.87485198  1
  La  La47  1  0.33380951  0.84428805  0.62519769  1
  La  La48  1  0.66451067  0.50600318  0.62636732  1
  La  La49  1  0.83115202  0.01665065  0.62265627  1
  La  La50  1  0.65644054  0.15559071  0.37875653  1
  La  La51  1  0.84126459  0.99081116  0.87526344  1
  La  La52  1  -0.00467142  0.48463159  0.87560254  1
  La  La53  1  0.82954340  0.35109774  0.12478999  1
  La  La54  1  0.49412236  0.01493539  0.62168743  1
  La  La55  1  0.17233522  0.97971522  0.37209683  1
  La  La56  1  1.00469207  0.51250215  0.12293635  1
  La  La57  1  -0.00401116  0.81748706  0.87774598  1
  La  La58  1  0.83553645  0.98732226  0.38129906  1
  La  La59  1  0.83050943  0.68124498  0.12830891  1
  La  La60  1  0.33534737  0.49244341  0.87540492  1
  La  La61  1  0.66895812  0.85028080  0.62263228  1
  La  La62  1  0.82751859  0.02111574  0.13032654  1
  La  La63  1  0.99995581  0.50462613  0.62216614  1
  La  La64  1  0.16220739  0.00788265  0.12953631  1
  La  La65  1  0.67090797  0.18795261  0.12683721  1
  La  La66  1  0.66332484  0.48609307  0.38066091  1
  La  La67  1  0.17056639  0.33719015  0.61730293  1
  La  La68  1  0.66405041  0.48601140  0.86918819  1
  La  La69  1  0.16690053  0.33282770  0.37418014  1
  La  La70  1  0.17382474  0.65220799  0.87361003  1
  La  La71  1  0.15926217  0.68177028  0.61997654  1
  In  In72  1  0.33602877  0.66508064  0.25256892  1
  In  In73  1  0.33229405  0.00203759  0.49896840  1
  In  In74  1  0.83131581  0.83600017  0.00025705  1
  In  In75  1  0.66835003  0.66416157  -0.00009515  1
  In  In76  1  0.33533753  -0.00171458  0.75021271  1
  In  In77  1  0.83315857  0.49687269  0.49893793  1
  In  In78  1  0.16458565  0.16837772  0.74876262  1
  In  In79  1  0.83059511  0.17026229  0.49354219  1
  In  In80  1  0.83060667  0.17035409  0.00145418  1
  In  In81  1  0.66850828  0.00271570  -0.00084269  1
  In  In82  1  0.16612461  0.49904928  0.50093590  1
  In  In83  1  0.33612588  0.33429563  0.50126321  1
  In  In84  1  0.16539171  0.16616318  -0.00124939  1
  In  In85  1  0.50498855  0.50080494  -0.00025058  1
  In  In86  1  -0.00289960  0.00190714  0.25243078  1
  In  In87  1  0.33441863  -0.00113555  0.00244839  1
  In  In88  1  0.83345381  0.82932050  0.50314992  1
  In  In89  1  0.66836277  0.00112458  0.74921850  1
  In  In90  1  0.00242177  0.00268727  0.49789950  1
  In  In91  1  0.66541169  0.00285201  0.25051391  1
  In  In92  1  0.33717050  0.33238580  0.24880379  1
  In  In93  1  0.83085578  0.83544310  0.25288374  1
  In  In94  1  0.16954958  0.16512320  0.24996146  1
  In  In95  1  0.50353832  0.83468403  0.00127478  1
  In  In96  1  0.00013847  0.33459791  0.74819306  1
  In  In97  1  0.00212449  0.66567750  0.75051264  1
  In  In98  1  -0.00335964  -0.00362214  0.00326247  1
  In  In99  1  0.16472558  0.83195168  0.75360997  1
  In  In100  1  0.16485850  0.49626762  0.24753377  1
  In  In101  1  0.33205499  0.66794052  -0.00074707  1
  In  In102  1  0.50084318  0.83156718  0.50168417  1
  In  In103  1  0.16766155  0.49987253  0.74907584  1
  In  In104  1  0.83292695  0.49984695  0.75304386  1
  In  In105  1  0.50077424  0.16905033  -0.00228794  1
  In  In106  1  0.33458091  -0.00012071  0.24795888  1
  In  In107  1  0.83114978  0.83243515  0.74878077  1
  Ir  Ir108  1  -0.00613765  0.66329678  0.25173091  1
  Ir  Ir109  1  -0.00571889  0.33376771  0.24667707  1
  Ir  Ir110  1  0.66363758  0.66486728  0.74420777  1
  Ir  Ir111  1  0.50793085  0.83070329  0.24912587  1
  Ir  Ir112  1  0.66522200  0.00338261  0.50289393  1
  Ir  Ir113  1  0.33915088  0.33662479  -0.00371018  1
  Ir  Ir114  1  -0.00220745  0.66290598  0.49853391  1
  Ir  Ir115  1  -0.00346769  0.33771492  0.00414251  1
  Ir  Ir116  1  0.66795282  0.66417303  0.49998892  1
  Ir  Ir117  1  0.50232161  0.50370343  0.49989382  1
  Ir  Ir118  1  0.51026669  0.49761434  0.25269872  1
  Ir  Ir119  1  -0.00466088  0.00062231  0.75046258  1
  Ir  Ir120  1  0.16344708  0.49905089  -0.00343453  1
  Ir  Ir121  1  0.83161228  0.16582166  0.74823439  1
  Ir  Ir122  1  0.66723600  0.33613233  0.24892318  1
  Ir  Ir123  1  0.16426610  0.82950611  0.24939247  1
  Ir  Ir124  1  0.83575953  0.50109728  0.00502164  1
  Ir  Ir125  1  0.66309110  0.33512391  0.75099815  1
  Ir  Ir126  1  0.82702649  0.17295663  0.25089548  1
  Ir  Ir127  1  0.00116574  0.33434519  0.49675370  1
  Ir  Ir128  1  0.66601438  0.33851899  0.00228983  1
  Ir  Ir129  1  0.16588770  0.82732726  0.50026539  1
  Ir  Ir130  1  0.50220820  0.16801052  0.50119560  1
  Ir  Ir131  1  0.49906348  0.50034734  0.74941152  1
  Ir  Ir132  1  0.16906047  0.16952647  0.49994397  1
  Ir  Ir133  1  0.33219884  0.66531596  0.74865562  1
  Ir  Ir134  1  0.49709943  0.17155741  0.74610146  1
  Ir  Ir135  1  0.33003307  0.66706479  0.50511237  1
  Ir  Ir136  1  0.16128300  0.82890076  0.00332356  1
  Ir  Ir137  1  0.00296756  0.66322738  0.00136146  1
  Ir  Ir138  1  0.83183094  0.50150230  0.24541229  1
  Ir  Ir139  1  0.33928238  0.33425681  0.75588030  1
  Ir  Ir140  1  0.66752453  0.66513906  0.25179986  1
  Ir  Ir141  1  0.50437975  0.83022943  0.74499370  1
  Ir  Ir142  1  0.66365978  0.33704859  0.50025575  1
  Ir  Ir143  1  0.50618218  0.17012720  0.25009475  1
  O  O144  1  0.31847442  0.32792075  0.11577782  1
  O  O145  1  0.30817388  0.32508235  0.63511213  1
  O  O146  1  0.32122633  0.66541437  0.12595995  1
  O  O147  1  0.30004555  0.66788568  0.62820384  1
  O  O148  1  0.29804488  0.99698808  0.12638332  1
  O  O149  1  0.31629183  0.98729674  0.62378480  1
  O  O150  1  0.63462390  0.32840116  0.12580407  1
  O  O151  1  0.64353018  0.33791725  0.62578545  1
  O  O152  1  0.64503146  0.65046293  0.13296569  1
  O  O153  1  0.64677953  0.64267229  0.62057848  1
  O  O154  1  0.63033063  0.98865421  0.12615188  1
  O  O155  1  0.63125859  0.99621965  0.62187996  1
  O  O156  1  0.96406330  0.33414949  0.12586822  1
  O  O157  1  0.98194066  0.33853364  0.61658131  1
  O  O158  1  0.96613880  0.65365189  0.12654950  1
  O  O159  1  0.97958460  0.64822127  0.61841096  1
  O  O160  1  0.95986282  0.99364692  0.12849330  1
  O  O161  1  0.96959230  0.99203973  0.62913551  1
  O  O162  1  0.19904418  0.15610424  0.12160838  1
  O  O163  1  0.19540292  0.16616118  0.62105989  1
  O  O164  1  0.18369863  0.49530520  0.11580566  1
  O  O165  1  0.18542176  0.47493769  0.62613585  1
  O  O166  1  0.18722853  0.82434395  0.12638515  1
  O  O167  1  0.19488786  0.82028300  0.61975269  1
  O  O168  1  0.53649407  0.16418731  0.13159890  1
  O  O169  1  0.52378558  0.15652933  0.62279559  1
  O  O170  1  0.53715624  0.48919202  0.13143826  1
  O  O171  1  0.52989843  0.50377878  0.62409321  1
  O  O172  1  0.53759217  0.82586557  0.13063753  1
  O  O173  1  0.53427811  0.82806710  0.62797362  1
  O  O174  1  0.85123852  0.16449188  0.13336571  1
  O  O175  1  0.84872631  0.16089760  0.62542824  1
  O  O176  1  0.86733092  0.49434328  0.12560029  1
  O  O177  1  0.86173111  0.50085359  0.62467618  1
  O  O178  1  0.85288336  0.81581246  0.12763091  1
  O  O179  1  0.87120482  0.82194888  0.62572783  1
  O  O180  1  0.15732192  0.19189638  0.37963145  1
  O  O181  1  0.14477603  0.17381814  0.87394776  1
  O  O182  1  0.14973445  0.48849504  0.37520005  1
  O  O183  1  0.13281585  0.50836891  0.87802241  1
  O  O184  1  0.14371701  0.83983133  0.37405429  1
  O  O185  1  0.13231337  0.83359005  0.88300909  1
  O  O186  1  0.48124648  0.17116966  0.37623034  1
  O  O187  1  0.46629271  0.18224721  0.86705994  1
  O  O188  1  0.48266974  0.49919744  0.37565420  1
  O  O189  1  0.47492489  0.49626110  0.86917183  1
  O  O190  1  0.48645042  0.83255660  0.37147096  1
  O  O191  1  0.48667927  0.83345547  0.86347968  1
  O  O192  1  0.79231718  0.17552511  0.36788878  1
  O  O193  1  0.81681792  0.16479598  0.86976556  1
  O  O194  1  0.80186643  0.50564513  0.36684335  1
  O  O195  1  0.80057183  0.50153947  0.88514629  1
  O  O196  1  0.80733385  0.84656004  0.37907595  1
  O  O197  1  0.79343730  0.84740635  0.87332884  1
  O  O198  1  0.03845024  0.00569321  0.37555489  1
  O  O199  1  0.01258706  0.00717323  0.86952918  1
  O  O200  1  0.02882252  0.33436717  0.37197434  1
  O  O201  1  0.01719424  0.34455031  0.88311348  1
  O  O202  1  0.01958853  0.66643110  0.37496366  1
  O  O203  1  0.03671574  0.67392624  0.88318012  1
  O  O204  1  0.35187920  -0.00355741  0.37401531  1
  O  O205  1  0.35926416  0.00860388  0.87454283  1
  O  O206  1  0.34883822  0.33077453  0.37538902  1
  O  O207  1  0.37222234  0.34698065  0.87558191  1
  O  O208  1  0.34961565  0.66727084  0.38408452  1
  O  O209  1  0.34916356  0.66549620  0.86727614  1
  O  O210  1  0.69643445  0.01057490  0.38088791  1
  O  O211  1  0.70444392  0.00616370  0.87234094  1
  O  O212  1  0.68687157  0.34867034  0.37514768  1
  O  O213  1  0.68642512  0.34851242  0.87623294  1
  O  O214  1  0.69901304  0.66999476  0.37537232  1
  O  O215  1  0.68506386  0.67545793  0.86480347  1
  O  O216  1  0.08081524  0.08055462  0.02503699  1
  O  O217  1  0.07782652  0.10171983  0.51514207  1
  O  O218  1  0.06586438  0.43182153  0.02152871  1
  O  O219  1  0.06458989  0.42705078  0.52021410  1
  O  O220  1  0.06870388  0.75848017  0.02122597  1
  O  O221  1  0.06821071  0.75652078  0.52790286  1
  O  O222  1  0.40785429  0.09948907  0.03326604  1
  O  O223  1  0.41035628  0.09809746  0.52625707  1
  O  O224  1  0.41311357  0.42065216  0.01969733  1
  O  O225  1  0.41185948  0.43187248  0.51555721  1
  O  O226  1  0.40711569  0.76234723  0.00749347  1
  O  O227  1  0.39676785  0.76155438  0.52491392  1
  O  O228  1  0.73319094  0.10394506  0.03399448  1
  O  O229  1  0.73686538  0.09001948  0.51939524  1
  O  O230  1  0.74001408  0.43233884  0.03281284  1
  O  O231  1  0.72887042  0.43306750  0.51887347  1
  O  O232  1  0.73981475  0.75830550  0.02653352  1
  O  O233  1  0.73041360  0.76014391  0.52797006  1
  O  O234  1  0.08429850  0.26412289  0.01718557  1
  O  O235  1  0.10286712  0.26981617  0.51579238  1
  O  O236  1  0.08866133  0.58533045  0.02615464  1
  O  O237  1  0.09012434  0.59485762  0.52531999  1
  O  O238  1  0.09725224  0.92187903  0.02842084  1
  O  O239  1  0.09111840  0.91341836  0.52236502  1
  O  O240  1  0.43024203  0.26777976  0.02270944  1
  O  O241  1  0.42719339  0.25240528  0.52532731  1
  O  O242  1  0.42306984  0.58552872  0.00897107  1
  O  O243  1  0.42582246  0.59526929  0.51909304  1
  O  O244  1  0.43805302  0.93591061  0.02627268  1
  O  O245  1  0.42879742  0.92597068  0.52692341  1
  O  O246  1  0.75722643  0.27036727  0.02745854  1
  O  O247  1  0.75287115  0.26566116  0.51329863  1
  O  O248  1  0.77031259  0.59311035  0.03190640  1
  O  O249  1  0.75906439  0.59604501  0.50627146  1
  O  O250  1  0.76771698  0.93610282  0.03498310  1
  O  O251  1  0.75599448  0.93373821  0.52847301  1
  O  O252  1  0.23112411  0.06171268  0.27546631  1
  O  O253  1  0.24835551  0.08263703  0.76803689  1
  O  O254  1  0.23427002  0.39678280  0.26394599  1
  O  O255  1  0.25506371  0.41002327  0.77977378  1
  O  O256  1  0.23864139  0.74488463  0.26570094  1
  O  O257  1  0.23591313  0.72803692  0.76900556  1
  O  O258  1  0.57397893  0.08068137  0.27428127  1
  O  O259  1  0.56993125  0.08196641  0.76252013  1
  O  O260  1  0.58148427  0.40999062  0.27447838  1
  O  O261  1  0.56988822  0.40714242  0.77604188  1
  O  O262  1  0.57407270  0.73247388  0.26958461  1
  O  O263  1  0.57430810  0.73716969  0.76687708  1
  O  O264  1  0.88888466  0.07718645  0.27616641  1
  O  O265  1  0.89408828  0.06501896  0.76380433  1
  O  O266  1  0.89694003  0.40404861  0.25822419  1
  O  O267  1  0.90634571  0.40762784  0.77095850  1
  O  O268  1  0.89923391  0.72985406  0.27025331  1
  O  O269  1  0.91333620  0.74546751  0.78138433  1
  O  O270  1  0.27211121  0.23051522  0.24693842  1
  O  O271  1  0.27424327  0.24215255  0.77463132  1
  O  O272  1  0.25625644  0.57423056  0.26038973  1
  O  O273  1  0.26734885  0.57137914  0.77579410  1
  O  O274  1  0.25092051  0.90160958  0.26606521  1
  O  O275  1  0.26047943  0.90163540  0.75678289  1
  O  O276  1  0.60411135  0.23760316  0.27392813  1
  O  O277  1  0.58366313  0.24912207  0.77562368  1
  O  O278  1  0.60770494  0.56472433  0.27422830  1
  O  O279  1  0.59797990  0.56465915  0.76870041  1
  O  O280  1  0.59637751  0.89990213  0.26472716  1
  O  O281  1  0.60136551  0.89410949  0.76433279  1
  O  O282  1  0.92193383  0.24088410  0.26846743  1
  O  O283  1  0.92166421  0.23730517  0.76005303  1
  O  O284  1  0.91819928  0.57572592  0.27528450  1
  O  O285  1  0.93348856  0.56881486  0.77702221  1
  O  O286  1  0.91823758  0.91599582  0.28286045  1
  O  O287  1  0.92855303  0.90911313  0.77589847  1
  O  O288  1  0.26366327  0.23207820  0.49922875  1
  O  O289  1  0.27319664  0.24410589  0.97818416  1
  O  O290  1  0.26130015  0.57650387  0.48970393  1
  O  O291  1  0.25186860  0.57094178  0.96889971  1
  O  O292  1  0.25139584  0.90306249  0.48391300  1
  O  O293  1  0.25043017  0.89822772  0.98537529  1
  O  O294  1  0.59698993  0.23834215  0.47738200  1
  O  O295  1  0.59473791  0.24963605  0.98055240  1
  O  O296  1  0.60295475  0.56701173  0.47932369  1
  O  O297  1  0.61093204  0.55876364  0.98197373  1
  O  O298  1  0.59783173  0.91224038  0.48906300  1
  O  O299  1  0.60914076  0.89558114  0.97751700  1
  O  O300  1  0.93078977  0.24414036  0.48164461  1
  O  O301  1  0.92445269  0.24885809  0.98801936  1
  O  O302  1  0.92665662  0.57482570  0.47654693  1
  O  O303  1  0.93499747  0.56622132  0.97893504  1
  O  O304  1  0.92162509  0.91231013  0.48416676  1
  O  O305  1  0.92896895  0.90071959  0.96552605  1
  O  O306  1  0.22940969  0.07273256  0.47657311  1
  O  O307  1  0.25089713  0.08230675  0.97107035  1
  O  O308  1  0.23021697  0.39260967  0.48722314  1
  O  O309  1  0.25101971  0.41614144  0.96928149  1
  O  O310  1  0.23484881  0.73306801  0.48708531  1
  O  O311  1  0.22665134  0.73512049  0.97652681  1
  O  O312  1  0.57542586  0.07729413  0.47733373  1
  O  O313  1  0.57120191  0.07446307  0.98204349  1
  O  O314  1  0.57472231  0.41276257  0.47968951  1
  O  O315  1  0.57323654  0.40199959  0.97502325  1
  O  O316  1  0.57755033  0.73375858  0.48979791  1
  O  O317  1  0.57713282  0.73819968  0.98030307  1
  O  O318  1  0.89885599  0.07048522  0.47946586  1
  O  O319  1  0.89475756  0.06685003  0.98611329  1
  O  O320  1  0.90994875  0.40323827  0.48071180  1
  O  O321  1  0.90585454  0.41110293  0.98172451  1
  O  O322  1  0.90312018  0.72773168  0.47417741  1
  O  O323  1  0.91589516  0.73683019  0.98140391  1
  O  O324  1  0.08644143  0.26478225  0.23739206  1
  O  O325  1  0.10121532  0.27090008  0.72459047  1
  O  O326  1  0.07828322  0.58615930  0.23055247  1
  O  O327  1  0.10838456  0.60644472  0.72989286  1
  O  O328  1  0.09844738  0.92352808  0.23071912  1
  O  O329  1  0.08314149  0.92709163  0.73039512  1
  O  O330  1  0.44015414  0.26069407  0.22016085  1
  O  O331  1  0.42258447  0.25754275  0.72214011  1
  O  O332  1  0.43561060  0.58210964  0.23774073  1
  O  O333  1  0.42662574  0.59347109  0.73161059  1
  O  O334  1  0.44093641  0.92565789  0.22538583  1
  O  O335  1  0.43862090  0.92371451  0.72085206  1
  O  O336  1  0.76018928  0.26886540  0.21910519  1
  O  O337  1  0.75899174  0.26140518  0.73599263  1
  O  O338  1  0.76535912  0.59926625  0.22600956  1
  O  O339  1  0.75044157  0.59056661  0.73263926  1
  O  O340  1  0.76027581  0.93330868  0.22171106  1
  O  O341  1  0.76116412  0.92781190  0.70867361  1
  O  O342  1  0.07693338  0.08931815  0.22570915  1
  O  O343  1  0.06646984  0.08922487  0.73113818  1
  O  O344  1  0.06056077  0.42498203  0.22254322  1
  O  O345  1  0.06027976  0.44218199  0.73725493  1
  O  O346  1  0.06941190  0.75201532  0.23459313  1
  O  O347  1  0.06953197  0.76505070  0.71880094  1
  O  O348  1  0.41380647  0.10078584  0.22153879  1
  O  O349  1  0.41119655  0.09723481  0.71953017  1
  O  O350  1  0.42307196  0.42269859  0.22767345  1
  O  O351  1  0.40658182  0.42951804  0.73442909  1
  O  O352  1  0.41803562  0.76087556  0.23849227  1
  O  O353  1  0.40128969  0.76573164  0.72357477  1
  O  O354  1  0.73392888  0.10737455  0.22645792  1
  O  O355  1  0.74596679  0.09332670  0.72599542  1
  O  O356  1  0.73902614  0.42984210  0.21843307  1
  O  O357  1  0.72924445  0.43014738  0.73260191  1
  O  O358  1  0.73045776  0.75851621  0.22439815  1
  O  O359  1  0.72736338  0.76004842  0.72188341  1
