# generated using pymatgen
data_BaLaInIrO6
_symmetry_space_group_name_H-M   'P 1'
_cell_length_a   17.53001295
_cell_length_b   17.55527775
_cell_length_c   16.50697072
_cell_angle_alpha   89.97357193
_cell_angle_beta   89.97253273
_cell_angle_gamma   90.01656888
_symmetry_Int_Tables_number   1
_chemical_formula_structural   BaLaInIrO6
_chemical_formula_sum   'Ba36 La36 In36 Ir36 O216'
_cell_volume   5079.92392774
_cell_formula_units_Z   36
loop_
 _symmetry_equiv_pos_site_id
 _symmetry_equiv_pos_as_xyz
  1  'x, y, z'
loop_
 _atom_site_type_symbol
 _atom_site_label
 _atom_site_symmetry_multiplicity
 _atom_site_fract_x
 _atom_site_fract_y
 _atom_site_fract_z
 _atom_site_occupancy
  Ba  Ba0  1  0.49962235  0.33734989  0.12677722  1
  Ba  Ba1  1  0.33645705  0.17472813  0.12443480  1
  Ba  Ba2  1  0.00067280  0.16018739  0.87484835  1
  Ba  Ba3  1  0.16612561  0.33901636  0.62881222  1
  Ba  Ba4  1  0.33522113  0.49083143  0.37509237  1
  Ba  Ba5  1  0.82906794  0.33881421  0.12281609  1
  Ba  Ba6  1  0.49597945  0.67460153  0.12420409  1
  Ba  Ba7  1  0.16870016  0.65632026  0.87435123  1
  Ba  Ba8  1  0.49752050  0.34137991  0.62086060  1
  Ba  Ba9  1  0.49912196  0.32422570  0.37302318  1
  Ba  Ba10  1  0.66348142  0.16054568  0.87375720  1
  Ba  Ba11  1  0.50170493  0.65276332  0.87569169  1
  Ba  Ba12  1  0.67009888  0.17453191  0.12349149  1
  Ba  Ba13  1  0.66496441  0.16032481  0.37335883  1
  Ba  Ba14  1  0.33103799  0.15917691  0.87231778  1
  Ba  Ba15  1  0.50230085  0.00797263  0.12262049  1
  Ba  Ba16  1  0.83101103  0.34483382  0.62656845  1
  Ba  Ba17  1  0.33573554  0.82807133  0.38056948  1
  Ba  Ba18  1  0.66499870  0.49003767  0.87592529  1
  Ba  Ba19  1  1.00097517  0.17453651  0.62696103  1
  Ba  Ba20  1  0.16441980  0.32033821  0.87582821  1
  Ba  Ba21  1  0.66484094  0.50993371  0.12121516  1
  Ba  Ba22  1  0.83082667  0.00545768  0.12286511  1
  Ba  Ba23  1  0.33372973  0.50642857  0.12998793  1
  Ba  Ba24  1  1.00221818  0.84916687  0.12645448  1
  Ba  Ba25  1  0.99834556  0.17542887  0.12328741  1
  Ba  Ba26  1  1.00073613  0.50651653  0.62474487  1
  Ba  Ba27  1  0.16545801  0.33899675  0.12153064  1
  Ba  Ba28  1  -0.00478955  0.49121336  0.87530730  1
  Ba  Ba29  1  0.16647943  0.67490420  0.12739316  1
  Ba  Ba30  1  0.17200831  0.32451402  0.37754642  1
  Ba  Ba31  1  0.16500760  0.00895917  0.62319194  1
  Ba  Ba32  1  0.33648576  0.16047493  0.37533626  1
  Ba  Ba33  1  0.83036061  0.67497473  0.11562375  1
  Ba  Ba34  1  0.83355852  0.65494387  0.37289290  1
  Ba  Ba35  1  0.66607885  0.82692736  0.37286045  1
  La  La36  1  0.16384781  0.01702875  0.12615103  1
  La  La37  1  0.33009506  0.81949574  0.87538965  1
  La  La38  1  0.66969017  0.84094441  0.12394141  1
  La  La39  1  0.33255744  0.18534226  0.62136558  1
  La  La40  1  0.66267182  0.81733196  0.87925054  1
  La  La41  1  0.32653700  0.48238881  0.88123323  1
  La  La42  1  0.00093340  0.48292918  0.37534612  1
  La  La43  1  0.16359833  0.68320863  0.62249722  1
  La  La44  1  1.00940417  0.51172809  0.12818888  1
  La  La45  1  0.17163008  0.99017324  0.37825808  1
  La  La46  1  0.83865799  0.31573694  0.87562213  1
  La  La47  1  0.50230845  0.98660451  0.87814199  1
  La  La48  1  0.17270290  0.65388691  0.37578644  1
  La  La49  1  0.83116280  0.68097077  0.62518394  1
  La  La50  1  0.49667628  0.67936869  0.62207146  1
  La  La51  1  -0.00243768  0.81785495  0.37466202  1
  La  La52  1  -0.00085673  0.15581497  0.37446077  1
  La  La53  1  0.33440149  0.84588860  0.62828817  1
  La  La54  1  -0.00073214  0.82524926  0.88123088  1
  La  La55  1  0.67320745  0.51655273  0.62414907  1
  La  La56  1  0.66135956  0.48621705  0.37353846  1
  La  La57  1  0.34178518  0.84237078  0.11957502  1
  La  La58  1  0.83690466  0.98384870  0.37409739  1
  La  La59  1  0.16601354  0.99816491  0.88179834  1
  La  La60  1  0.50067961  0.32027744  0.87898415  1
  La  La61  1  0.83900887  0.98848654  0.88109448  1
  La  La62  1  0.49317946  0.01142555  0.62207107  1
  La  La63  1  0.83760077  0.65215160  0.87082897  1
  La  La64  1  0.49687761  1.00046024  0.36131411  1
  La  La65  1  0.83543291  0.31940356  0.37449038  1
  La  La66  1  0.50733576  0.64755962  0.37332310  1
  La  La67  1  0.66857275  0.84809027  0.62673846  1
  La  La68  1  0.82706495  0.01746166  0.62986566  1
  La  La69  1  0.67258209  0.18889564  0.62545674  1
  La  La70  1  0.33880615  0.51178333  0.62123388  1
  La  La71  1  1.00408751  0.84825319  0.62638643  1
  In  In72  1  -0.00044831  0.66861565  -0.00179160  1
  In  In73  1  0.66462078  -0.00126857  0.50109414  1
  In  In74  1  -0.00039046  -0.00108022  0.50015490  1
  In  In75  1  0.16846866  0.83517833  0.25286305  1
  In  In76  1  0.50230978  0.16722684  0.24641523  1
  In  In77  1  -0.00003369  0.66704142  0.74524024  1
  In  In78  1  0.83286743  0.49851530  0.00136790  1
  In  In79  1  0.16791696  0.16113087  0.74884910  1
  In  In80  1  0.50167238  0.49904658  0.74746370  1
  In  In81  1  0.33335283  0.66616305  0.74779769  1
  In  In82  1  0.16777933  0.83810430  0.00183665  1
  In  In83  1  0.00028266  0.33064998  0.49976375  1
  In  In84  1  0.50276368  0.16264297  0.50048395  1
  In  In85  1  0.66601937  0.00028718  -0.00456302  1
  In  In86  1  0.83118066  0.83455493  0.75054435  1
  In  In87  1  0.16677609  0.49855639  0.25163330  1
  In  In88  1  0.66869036  0.66672391  0.24781678  1
  In  In89  1  0.83355013  0.50209025  0.49665221  1
  In  In90  1  0.83538913  0.83227632  0.24816707  1
  In  In91  1  0.16582455  0.83794792  0.75096809  1
  In  In92  1  0.33558336  0.33491311  0.74920709  1
  In  In93  1  0.83084931  0.16446028  0.49998276  1
  In  In94  1  0.50069574  0.49749857  0.24774227  1
  In  In95  1  0.33215820  0.66544638  -0.00067813  1
  In  In96  1  0.83401579  0.16288791  0.24958756  1
  In  In97  1  0.50240308  0.83414997  0.75083969  1
  In  In98  1  -0.00027215  0.66564722  0.25137567  1
  In  In99  1  -0.00136587  0.33360047  0.00171423  1
  In  In100  1  0.33546009  0.67097699  0.25495888  1
  In  In101  1  0.32957648  0.00028139  0.24795118  1
  In  In102  1  0.50200065  0.16259071  0.74756869  1
  In  In103  1  0.16654415  0.50281967  0.50552871  1
  In  In104  1  -0.00066680  0.33411355  0.75002628  1
  In  In105  1  0.50198003  0.83352088  0.49890258  1
  In  In106  1  0.66665158  0.67072376  0.50115907  1
  In  In107  1  0.66521950  0.33346079  -0.00129245  1
  Ir  Ir108  1  0.00492515  0.00460838  0.25218618  1
  Ir  Ir109  1  0.49490205  0.49756218  -0.00325001  1
  Ir  Ir110  1  0.49951053  0.83608723  -0.00092289  1
  Ir  Ir111  1  -0.00117811  0.33273150  0.25172894  1
  Ir  Ir112  1  0.16470415  0.83355460  0.50196605  1
  Ir  Ir113  1  0.50444257  0.49891013  0.50229448  1
  Ir  Ir114  1  0.33291848  0.66802423  0.50300982  1
  Ir  Ir115  1  0.82757615  0.16174741  0.75252889  1
  Ir  Ir116  1  -0.00494222  -0.00199803  0.75438536  1
  Ir  Ir117  1  0.16972558  0.16344028  0.00350652  1
  Ir  Ir118  1  0.66988643  -0.00363597  0.25038272  1
  Ir  Ir119  1  0.82747449  0.50174059  0.74780464  1
  Ir  Ir120  1  0.83537747  0.49500263  0.25166020  1
  Ir  Ir121  1  0.00178641  0.67064180  0.50127869  1
  Ir  Ir122  1  0.33083987  -0.00053500  0.50753026  1
  Ir  Ir123  1  0.49559869  0.16583167  -0.00413504  1
  Ir  Ir124  1  0.16696605  0.49779372  -0.00212793  1
  Ir  Ir125  1  0.33479501  0.33283836  0.00155157  1
  Ir  Ir126  1  0.83989325  0.83392328  0.50374430  1
  Ir  Ir127  1  0.66795669  0.33378044  0.74871258  1
  Ir  Ir128  1  0.83253388  0.16305348  -0.00344218  1
  Ir  Ir129  1  0.66369443  0.67085609  -0.00461036  1
  Ir  Ir130  1  0.50121488  0.83749641  0.24734605  1
  Ir  Ir131  1  0.66683867  0.66761253  0.74894496  1
  Ir  Ir132  1  0.82884533  0.83560743  -0.00490136  1
  Ir  Ir133  1  0.16143618  0.16892278  0.25223092  1
  Ir  Ir134  1  0.33531419  -0.00076310  -0.00602909  1
  Ir  Ir135  1  0.66592802  -0.00190887  0.75136088  1
  Ir  Ir136  1  0.66632414  0.33843753  0.50158459  1
  Ir  Ir137  1  0.16878820  0.16498297  0.49675424  1
  Ir  Ir138  1  0.17243303  0.50057343  0.75312925  1
  Ir  Ir139  1  0.67188419  0.33620569  0.25275357  1
  Ir  Ir140  1  0.33272463  0.33274398  0.49802658  1
  Ir  Ir141  1  0.33024244  0.32993227  0.24952154  1
  Ir  Ir142  1  0.00244746  0.00278646  0.00120097  1
  Ir  Ir143  1  0.33642234  -0.00142193  0.74987045  1
  O  O144  1  0.31271688  0.33101810  0.12618802  1
  O  O145  1  0.31813309  0.32691045  0.61710884  1
  O  O146  1  0.31846900  0.67448642  0.12578019  1
  O  O147  1  0.29813605  0.65492107  0.62053219  1
  O  O148  1  0.30265588  0.98675639  0.11549884  1
  O  O149  1  0.30903377  0.98294341  0.63042859  1
  O  O150  1  0.65348440  0.33095554  0.13152988  1
  O  O151  1  0.64516877  0.32712854  0.62499619  1
  O  O152  1  0.64519622  0.67205276  0.11661557  1
  O  O153  1  0.63472442  0.65880958  0.62936235  1
  O  O154  1  0.65305618  0.98445045  0.12747166  1
  O  O155  1  0.63203759  0.98628118  0.63526116  1
  O  O156  1  0.98030565  0.33223749  0.13213130  1
  O  O157  1  0.98092133  0.33447032  0.62561996  1
  O  O158  1  0.97986799  0.65047017  0.12384131  1
  O  O159  1  0.96629518  0.66383203  0.61787553  1
  O  O160  1  0.97908689  1.00513499  0.12713269  1
  O  O161  1  0.96373501  0.99075406  0.63287865  1
  O  O162  1  0.18780929  0.15569321  0.12879634  1
  O  O163  1  0.19759162  0.15904953  0.61652018  1
  O  O164  1  0.18189634  0.49953817  0.11746110  1
  O  O165  1  0.20137728  0.49893706  0.63331842  1
  O  O166  1  0.20404189  0.83569111  0.12664311  1
  O  O167  1  0.19855954  0.82449733  0.62062669  1
  O  O168  1  0.51664892  0.16529407  0.11671729  1
  O  O169  1  0.53808817  0.14745253  0.62439215  1
  O  O170  1  0.51461485  0.49510705  0.11750844  1
  O  O171  1  0.53658728  0.49509384  0.61995909  1
  O  O172  1  0.53248541  0.83075200  0.12305819  1
  O  O173  1  0.53450019  0.81958641  0.62736132  1
  O  O174  1  0.84665241  0.16390482  0.11904084  1
  O  O175  1  0.84958081  0.15504381  0.63170726  1
  O  O176  1  0.87076099  0.49421993  0.13237803  1
  O  O177  1  0.84788134  0.49834238  0.62859301  1
  O  O178  1  0.85225112  0.83292618  0.11575447  1
  O  O179  1  0.86861903  0.82347677  0.62282965  1
  O  O180  1  0.13417224  0.17065255  0.37426302  1
  O  O181  1  0.15427154  0.15493488  0.88247445  1
  O  O182  1  0.13640184  0.51365249  0.37899234  1
  O  O183  1  0.14612309  0.49851358  0.87572881  1
  O  O184  1  0.13118714  0.84944301  0.38464407  1
  O  O185  1  0.13347362  0.85660964  0.87419076  1
  O  O186  1  0.49154630  0.15785366  0.37429845  1
  O  O187  1  0.48139875  0.17676466  0.87539211  1
  O  O188  1  0.48541778  0.50720902  0.38306788  1
  O  O189  1  0.46746606  0.49717852  0.87602003  1
  O  O190  1  0.48523227  0.85855995  0.36959814  1
  O  O191  1  0.46772450  0.84557873  0.87808479  1
  O  O192  1  0.81313367  0.17658034  0.37470767  1
  O  O193  1  0.81063009  0.17095668  0.87400433  1
  O  O194  1  0.79899668  0.50004171  0.36936031  1
  O  O195  1  0.81066806  0.51532051  0.86608019  1
  O  O196  1  0.81718381  0.84528146  0.38363975  1
  O  O197  1  0.79819423  0.84788805  0.87539174  1
  O  O198  1  0.03358416  0.01054404  0.37157757  1
  O  O199  1  0.02932774  0.00202228  0.87818348  1
  O  O200  1  0.02060139  0.34117325  0.36930298  1
  O  O201  1  0.01146044  0.33086585  0.87517019  1
  O  O202  1  0.03545086  0.68029072  0.38422801  1
  O  O203  1  0.01890547  0.68561779  0.87012620  1
  O  O204  1  0.36179655  0.00301798  0.38830274  1
  O  O205  1  0.36911646  0.00656341  0.87108459  1
  O  O206  1  0.34874100  0.32940354  0.37399547  1
  O  O207  1  0.36308039  0.34041159  0.88054669  1
  O  O208  1  0.37220857  0.67413774  0.38758662  1
  O  O209  1  0.35625757  0.68168747  0.87363459  1
  O  O210  1  0.69756678  0.00083558  0.37310608  1
  O  O211  1  0.70162812  0.00300672  0.86720642  1
  O  O212  1  0.69826461  0.34702091  0.37843443  1
  O  O213  1  0.69861715  0.33275236  0.86642399  1
  O  O214  1  0.68407697  0.67232459  0.37590806  1
  O  O215  1  0.69944260  0.67870726  0.87029564  1
  O  O216  1  0.07986370  0.08930979  0.02777805  1
  O  O217  1  0.07496178  0.09711290  0.51004523  1
  O  O218  1  0.07147211  0.43271821  0.02098294  1
  O  O219  1  0.07072827  0.42997667  0.50740564  1
  O  O220  1  0.06799757  0.76861811  0.01044810  1
  O  O221  1  0.06856526  0.76616745  0.52964521  1
  O  O222  1  0.40575248  0.08960536  0.01567344  1
  O  O223  1  0.39934896  0.08925735  0.53587906  1
  O  O224  1  0.39927422  0.43067072  0.01430332  1
  O  O225  1  0.40296029  0.43228243  0.52079852  1
  O  O226  1  0.40788386  0.76957240  0.01926077  1
  O  O227  1  0.39997633  0.75979450  0.53319940  1
  O  O228  1  0.74460588  0.09125561  0.01085265  1
  O  O229  1  0.73079224  0.09609077  0.53064021  1
  O  O230  1  0.73743949  0.42732968  0.01372123  1
  O  O231  1  0.72661062  0.43635402  0.51751661  1
  O  O232  1  0.72847085  0.77069935  0.01427503  1
  O  O233  1  0.74482533  0.76770328  0.53329082  1
  O  O234  1  0.09464932  0.25106900  0.01377590  1
  O  O235  1  0.10045073  0.25391350  0.51510993  1
  O  O236  1  0.09438557  0.58605441  0.01411593  1
  O  O237  1  0.09726714  0.60876503  0.52654270  1
  O  O238  1  0.09907885  0.94094830  0.02266795  1
  O  O239  1  0.09062065  0.91986416  0.52721523  1
  O  O240  1  0.42896153  0.26362195  0.01255246  1
  O  O241  1  0.41969394  0.25414139  0.51541022  1
  O  O242  1  0.42729599  0.58739858  0.01309510  1
  O  O243  1  0.43050471  0.59525038  0.52964685  1
  O  O244  1  0.42417045  0.92507385  0.02209604  1
  O  O245  1  0.42107136  0.92554310  0.53445288  1
  O  O246  1  0.76040761  0.25274203  0.00550525  1
  O  O247  1  0.75647835  0.26588827  0.51613226  1
  O  O248  1  0.75126749  0.59857180  0.00686413  1
  O  O249  1  0.76428008  0.59982211  0.52806303  1
  O  O250  1  0.75568164  0.92034335  0.01662340  1
  O  O251  1  0.77534461  0.92912091  0.52775322  1
  O  O252  1  0.22571143  0.07348153  0.26906116  1
  O  O253  1  0.23840665  0.05835270  0.77267035  1
  O  O254  1  0.24331853  0.40378568  0.26152688  1
  O  O255  1  0.24061760  0.41026718  0.77575995  1
  O  O256  1  0.23769059  0.73944780  0.28628831  1
  O  O257  1  0.24075503  0.74495690  0.76675676  1
  O  O258  1  0.57848993  0.06593146  0.26460507  1
  O  O259  1  0.56859640  0.05877149  0.77643080  1
  O  O260  1  0.58472761  0.40947922  0.27086707  1
  O  O261  1  0.57170849  0.39654855  0.77424211  1
  O  O262  1  0.56267860  0.74245903  0.27179940  1
  O  O263  1  0.58078089  0.73976634  0.77533924  1
  O  O264  1  0.91110130  0.06914835  0.28299832  1
  O  O265  1  0.89268639  0.06226065  0.77337084  1
  O  O266  1  0.90186667  0.39828536  0.27852120  1
  O  O267  1  0.89080669  0.40751724  0.77262514  1
  O  O268  1  0.91132321  0.74452168  0.27508347  1
  O  O269  1  0.89528292  0.73399122  0.76650662  1
  O  O270  1  0.25584477  0.23530443  0.26553340  1
  O  O271  1  0.26332243  0.23670825  0.75210200  1
  O  O272  1  0.25458646  0.58002006  0.27364512  1
  O  O273  1  0.26733472  0.56304544  0.77439559  1
  O  O274  1  0.25296240  0.91702190  0.28531977  1
  O  O275  1  0.27524874  0.90197039  0.77030551  1
  O  O276  1  0.59771512  0.24802620  0.26382128  1
  O  O277  1  0.59962621  0.24133952  0.75962780  1
  O  O278  1  0.59626713  0.57212397  0.27343435  1
  O  O279  1  0.59987191  0.57543492  0.76418445  1
  O  O280  1  0.59607758  0.90708605  0.26436940  1
  O  O281  1  0.60367747  0.90336709  0.77992651  1
  O  O282  1  0.93321364  0.23847535  0.27598985  1
  O  O283  1  0.91229121  0.23836606  0.77015020  1
  O  O284  1  0.92885848  0.55886331  0.27757027  1
  O  O285  1  0.91879203  0.57247960  0.76487804  1
  O  O286  1  0.93632170  0.91211779  0.27777562  1
  O  O287  1  0.92841955  0.90587168  0.78174240  1
  O  O288  1  0.26671827  0.23293154  0.48889845  1
  O  O289  1  0.26208235  0.23790352  0.98450996  1
  O  O290  1  0.26150043  0.58104030  0.47838940  1
  O  O291  1  0.26085311  0.56446524  0.97700286  1
  O  O292  1  0.25484727  0.90953875  0.48112694  1
  O  O293  1  0.26624011  0.91247544  0.96325429  1
  O  O294  1  0.59967784  0.24303128  0.49251591  1
  O  O295  1  0.58267629  0.24283533  0.97886197  1
  O  O296  1  0.59895686  0.56347678  0.48065089  1
  O  O297  1  0.58962052  0.57020274  0.98081022  1
  O  O298  1  0.60920478  0.89201675  0.49974164  1
  O  O299  1  0.58974333  0.90620132  0.97048659  1
  O  O300  1  0.93105003  0.23256618  0.47502575  1
  O  O301  1  0.91761116  0.23711051  0.98260627  1
  O  O302  1  0.93964570  0.57402739  0.47362793  1
  O  O303  1  0.91510407  0.58350072  0.97440313  1
  O  O304  1  0.93346102  0.89750549  0.47608817  1
  O  O305  1  0.92716486  0.90740332  0.97181327  1
  O  O306  1  0.23764737  0.06893963  0.47479495  1
  O  O307  1  0.23813629  0.06514677  0.98238341  1
  O  O308  1  0.24705671  0.40841084  0.48781052  1
  O  O309  1  0.24255653  0.40607375  0.97717789  1
  O  O310  1  0.23369291  0.73429828  0.47965936  1
  O  O311  1  0.24608122  0.75053097  0.97262458  1
  O  O312  1  0.55489342  0.04994485  0.48185181  1
  O  O313  1  0.56462801  0.07159540  0.97558639  1
  O  O314  1  0.57359555  0.40810934  0.47515196  1
  O  O315  1  0.56143808  0.40332196  0.97549470  1
  O  O316  1  0.55658330  0.72455948  0.48336495  1
  O  O317  1  0.57516673  0.74838672  0.97180341  1
  O  O318  1  0.89758637  0.06146127  0.47943968  1
  O  O319  1  0.90408584  0.06765398  0.97702542  1
  O  O320  1  0.90119893  0.40468716  0.47056294  1
  O  O321  1  0.89867197  0.39990898  0.97453052  1
  O  O322  1  0.90829718  0.74012413  0.47742612  1
  O  O323  1  0.89810550  0.74759646  0.96612093  1
  O  O324  1  0.09273856  0.26464731  0.23394637  1
  O  O325  1  0.08903783  0.25095759  0.73837028  1
  O  O326  1  0.08864744  0.58845586  0.23147636  1
  O  O327  1  0.10573035  0.59644574  0.72643851  1
  O  O328  1  0.09838010  0.94208136  0.22768759  1
  O  O329  1  0.08218289  0.92654552  0.72547466  1
  O  O330  1  0.41755083  0.25664727  0.23888156  1
  O  O331  1  0.42763386  0.25629987  0.73178413  1
  O  O332  1  0.43124681  0.59610786  0.24847691  1
  O  O333  1  0.43065303  0.59674896  0.71539950  1
  O  O334  1  0.42628031  0.92221780  0.22594831  1
  O  O335  1  0.43397416  0.93629039  0.72851867  1
  O  O336  1  0.76149922  0.26578450  0.24534169  1
  O  O337  1  0.75748183  0.25615752  0.72640919  1
  O  O338  1  0.76876892  0.58674725  0.22913635  1
  O  O339  1  0.76156914  0.60039665  0.72066074  1
  O  O340  1  0.76242363  0.92872743  0.24128691  1
  O  O341  1  0.75888457  0.93166571  0.71936379  1
  O  O342  1  0.06751620  0.10237209  0.23651103  1
  O  O343  1  0.06763302  0.08440220  0.73491304  1
  O  O344  1  0.06064673  0.43068190  0.23530303  1
  O  O345  1  0.08148752  0.43318967  0.73711516  1
  O  O346  1  0.07076695  0.76648878  0.24041312  1
  O  O347  1  0.07161961  0.76343320  0.71603542  1
  O  O348  1  0.41224591  0.08402774  0.23981089  1
  O  O349  1  0.39932736  0.09200426  0.71961473  1
  O  O350  1  0.40658932  0.41657205  0.24013981  1
  O  O351  1  0.39946327  0.43576693  0.72353298  1
  O  O352  1  0.40683317  0.77398948  0.22801359  1
  O  O353  1  0.40559782  0.76506074  0.72027873  1
  O  O354  1  0.73823645  0.08627984  0.23444331  1
  O  O355  1  0.73107161  0.09190972  0.72076258  1
  O  O356  1  0.74119328  0.42895095  0.23288059  1
  O  O357  1  0.73030413  0.43461779  0.72564126  1
  O  O358  1  0.73564004  0.76593557  0.22468200  1
  O  O359  1  0.73355940  0.76010392  0.72267928  1
