# generated using pymatgen
data_BaLaInIrO6
_symmetry_space_group_name_H-M   'P 1'
_cell_length_a   17.52860979
_cell_length_b   17.57086029
_cell_length_c   16.48143287
_cell_angle_alpha   89.94593118
_cell_angle_beta   89.99895982
_cell_angle_gamma   89.95309413
_symmetry_Int_Tables_number   1
_chemical_formula_structural   BaLaInIrO6
_chemical_formula_sum   'Ba36 La36 In36 Ir36 O216'
_cell_volume   5076.15793076
_cell_formula_units_Z   36
loop_
 _symmetry_equiv_pos_site_id
 _symmetry_equiv_pos_as_xyz
  1  'x, y, z'
loop_
 _atom_site_type_symbol
 _atom_site_label
 _atom_site_symmetry_multiplicity
 _atom_site_fract_x
 _atom_site_fract_y
 _atom_site_fract_z
 _atom_site_occupancy
  Ba  Ba0  1  0.66554044  0.16984696  0.62754005  1
  Ba  Ba1  1  1.00327890  0.50869745  0.62604880  1
  Ba  Ba2  1  -0.00142440  0.15682276  0.87950655  1
  Ba  Ba3  1  0.83077504  0.66013086  0.87711832  1
  Ba  Ba4  1  0.50366808  0.65033179  0.87827285  1
  Ba  Ba5  1  0.16846865  0.33806359  0.12290330  1
  Ba  Ba6  1  -0.00513337  0.16059521  0.37130974  1
  Ba  Ba7  1  0.82959930  0.99196977  0.87797411  1
  Ba  Ba8  1  0.82934879  0.32729131  0.37229033  1
  Ba  Ba9  1  0.99988862  0.50518317  0.12401529  1
  Ba  Ba10  1  0.50521838  0.99121598  0.87355980  1
  Ba  Ba11  1  0.83240056  0.65642800  0.37186887  1
  Ba  Ba12  1  0.49935300  0.01003658  0.62594938  1
  Ba  Ba13  1  0.33836346  0.48960144  0.87465999  1
  Ba  Ba14  1  0.33623774  0.49084939  0.37269331  1
  Ba  Ba15  1  0.66668332  0.84283221  0.12509261  1
  Ba  Ba16  1  0.66398419  0.15520829  0.87408760  1
  Ba  Ba17  1  0.33994852  0.51093396  0.62713579  1
  Ba  Ba18  1  -0.00080537  0.82375863  0.37187019  1
  Ba  Ba19  1  0.99981694  0.84368983  0.12433781  1
  Ba  Ba20  1  0.66361971  0.48911466  0.37714785  1
  Ba  Ba21  1  0.33837324  0.84492378  0.12274133  1
  Ba  Ba22  1  0.50381229  0.99075830  0.37731489  1
  Ba  Ba23  1  0.33734927  0.17791341  0.63020501  1
  Ba  Ba24  1  0.67034167  0.50481325  0.62869346  1
  Ba  Ba25  1  0.32951172  0.15826779  0.87783898  1
  Ba  Ba26  1  0.33295689  0.82586668  0.37633609  1
  Ba  Ba27  1  0.67206694  0.84208938  0.62435388  1
  Ba  Ba28  1  0.17167900  0.67422472  0.12558702  1
  Ba  Ba29  1  0.82930732  0.67556432  0.62457863  1
  Ba  Ba30  1  0.66497141  0.15784019  0.37452520  1
  Ba  Ba31  1  0.99498294  0.83999029  0.62445601  1
  Ba  Ba32  1  0.16751959  0.00333076  0.12172471  1
  Ba  Ba33  1  0.33517210  0.82424806  0.87627060  1
  Ba  Ba34  1  0.16856031  0.65720833  0.37515220  1
  Ba  Ba35  1  0.33301303  0.17820924  0.12404416  1
  La  La36  1  0.65481596  0.81618970  0.87286039  1
  La  La37  1  0.83152643  0.31749912  0.87550563  1
  La  La38  1  0.49331447  0.34935843  0.12501580  1
  La  La39  1  1.00270232  0.17651127  0.12393782  1
  La  La40  1  0.49173873  0.68340060  0.12064164  1
  La  La41  1  0.49544690  0.34617314  0.62701018  1
  La  La42  1  0.49623292  0.68197473  0.63097381  1
  La  La43  1  -0.00052493  0.48700764  0.87710889  1
  La  La44  1  0.50890918  0.65237555  0.37515670  1
  La  La45  1  0.33894749  0.51398944  0.12326777  1
  La  La46  1  0.67177613  0.51853367  0.12361465  1
  La  La47  1  0.16617608  0.34696381  0.62787092  1
  La  La48  1  0.83436876  0.99103214  0.37777686  1
  La  La49  1  0.32846017  0.15747671  0.37429943  1
  La  La50  1  1.00136787  0.18141368  0.62328167  1
  La  La51  1  0.17165571  0.65198077  0.87331850  1
  La  La52  1  0.65975090  0.81644327  0.37905008  1
  La  La53  1  0.16533595  0.33171918  0.37367064  1
  La  La54  1  0.17190201  0.32059846  0.87654324  1
  La  La55  1  0.83057428  0.34685897  0.12299794  1
  La  La56  1  -0.00070032  0.82295349  0.88140497  1
  La  La57  1  0.82912066  0.68636868  0.12632481  1
  La  La58  1  -0.00455969  0.49832180  0.37271574  1
  La  La59  1  0.16208754  0.68300642  0.62518620  1
  La  La60  1  0.66786037  0.18277772  0.12298803  1
  La  La61  1  0.16988132  0.98938021  0.87708429  1
  La  La62  1  0.65621322  0.48141198  0.87660266  1
  La  La63  1  0.82682950  0.34387436  0.62528985  1
  La  La64  1  0.82783473  0.00937510  0.62497042  1
  La  La65  1  0.49063136  0.01771411  0.12022650  1
  La  La66  1  0.50709457  0.32070113  0.37674389  1
  La  La67  1  0.16546446  0.01039897  0.62270836  1
  La  La68  1  0.34063373  0.84627894  0.62428045  1
  La  La69  1  0.17209091  0.98573814  0.37261579  1
  La  La70  1  0.82989490  0.01765796  0.12550720  1
  La  La71  1  0.50173971  0.31717372  0.87343931  1
  In  In72  1  -0.00053573  0.00317089  0.49887908  1
  In  In73  1  0.17081293  0.50027520  0.75066309  1
  In  In74  1  0.00067646  0.66546476  0.50044512  1
  In  In75  1  0.83474557  0.49802915  0.50027929  1
  In  In76  1  0.66669808  -0.00172956  0.75019706  1
  In  In77  1  0.66439859  0.66416706  0.50555989  1
  In  In78  1  0.83405007  0.16715942  0.49934600  1
  In  In79  1  0.66366020  0.33114996  0.50213469  1
  In  In80  1  0.16742334  0.83727019  0.74955205  1
  In  In81  1  0.83100831  0.83383110  0.49639400  1
  In  In82  1  0.83357327  0.83527630  0.75533794  1
  In  In83  1  -0.00138446  0.33335594  -0.00114710  1
  In  In84  1  0.16376175  0.16722378  0.25108080  1
  In  In85  1  0.33950396  0.66538351  0.25210373  1
  In  In86  1  0.83305281  0.49807384  0.75882007  1
  In  In87  1  0.50409793  0.83652070  0.24882078  1
  In  In88  1  -0.00102725  0.33333803  0.75203730  1
  In  In89  1  0.33431077  0.33593453  0.00020468  1
  In  In90  1  0.16680134  0.83145212  -0.00196434  1
  In  In91  1  0.66515300  -0.00097803  0.00476191  1
  In  In92  1  0.33602382  0.00360650  0.24947971  1
  In  In93  1  0.82809241  0.83870919  0.24976514  1
  In  In94  1  0.33733536  0.66536367  0.50117430  1
  In  In95  1  0.17112565  0.49951793  0.50120174  1
  In  In96  1  0.00041135  0.33449064  0.50019164  1
  In  In97  1  -0.00117564  0.66349863  -0.00019639  1
  In  In98  1  -0.00227188  0.33390101  0.24756709  1
  In  In99  1  0.33501503  0.00477686  0.50185075  1
  In  In100  1  -0.00225548  0.66477262  0.24566127  1
  In  In101  1  0.16936538  0.83621797  0.50183664  1
  In  In102  1  0.16773794  0.83206109  0.24828988  1
  In  In103  1  0.00228294  0.66676546  0.75233824  1
  In  In104  1  0.50077062  0.17016068  0.24978195  1
  In  In105  1  0.16637967  0.16544442  0.74786201  1
  In  In106  1  0.66544442  0.32775814  0.75091576  1
  In  In107  1  0.33442560  0.33085225  0.49862401  1
  Ir  Ir108  1  0.66330396  0.66219896  0.24497655  1
  Ir  Ir109  1  0.50662684  0.49775380  0.00191958  1
  Ir  Ir110  1  0.50568613  0.49823667  0.24589697  1
  Ir  Ir111  1  0.66650783  0.00247880  0.49780800  1
  Ir  Ir112  1  0.17011636  0.49526538  0.24535835  1
  Ir  Ir113  1  -0.00406982  0.00323309  -0.00142456  1
  Ir  Ir114  1  0.49846419  0.16945274  0.50357954  1
  Ir  Ir115  1  0.49610350  0.16723129  0.75148727  1
  Ir  Ir116  1  0.66609848  0.00283585  0.24947139  1
  Ir  Ir117  1  0.83157996  0.16826116  0.00262173  1
  Ir  Ir118  1  0.82497747  0.49795951  0.00083824  1
  Ir  Ir119  1  0.83010794  0.83559963  -0.00024626  1
  Ir  Ir120  1  0.33622226  0.00292237  -0.00535843  1
  Ir  Ir121  1  0.16378919  0.16389234  0.00023917  1
  Ir  Ir122  1  0.33390201  0.66669520  0.75420612  1
  Ir  Ir123  1  0.83847844  0.16311017  0.75278376  1
  Ir  Ir124  1  0.82894345  0.16664586  0.24380582  1
  Ir  Ir125  1  0.33532132  0.33300816  0.75287178  1
  Ir  Ir126  1  0.50155367  0.49783210  0.75271565  1
  Ir  Ir127  1  0.66162103  0.66426045  0.75537144  1
  Ir  Ir128  1  0.66424461  0.33328213  0.00347720  1
  Ir  Ir129  1  0.49822610  0.83036551  0.75004499  1
  Ir  Ir130  1  -0.00040418  0.00417254  0.75101948  1
  Ir  Ir131  1  0.66767088  0.66480178  0.00179090  1
  Ir  Ir132  1  0.50239835  0.83090182  -0.00482798  1
  Ir  Ir133  1  -0.00495078  0.00475171  0.24696804  1
  Ir  Ir134  1  0.50030061  0.50019394  0.50208364  1
  Ir  Ir135  1  0.33637281  0.66160194  -0.00477566  1
  Ir  Ir136  1  0.66308436  0.33383135  0.24374338  1
  Ir  Ir137  1  0.16675326  0.16806161  0.50074152  1
  Ir  Ir138  1  0.50323053  0.17006431  -0.00098259  1
  Ir  Ir139  1  0.50186533  0.83206990  0.50371219  1
  Ir  Ir140  1  0.33302394  -0.00100849  0.75459604  1
  Ir  Ir141  1  0.16817908  0.50011041  0.00045493  1
  Ir  Ir142  1  0.33887049  0.33809739  0.25086815  1
  Ir  Ir143  1  0.82779410  0.49730559  0.24160013  1
  O  O144  1  0.32043955  0.33926420  0.13033394  1
  O  O145  1  0.30740101  0.33356078  0.63190272  1
  O  O146  1  0.32435118  0.65326699  0.11617350  1
  O  O147  1  0.30668956  0.66790265  0.63705555  1
  O  O148  1  0.32159666  1.00543927  0.11424947  1
  O  O149  1  0.30582712  0.99329886  0.63346070  1
  O  O150  1  0.63034823  0.32346035  0.12314041  1
  O  O151  1  0.63027710  0.32944412  0.62776081  1
  O  O152  1  0.63334990  0.65796098  0.12165021  1
  O  O153  1  0.63354718  0.66202234  0.63600431  1
  O  O154  1  0.63002113  0.99793849  0.13120265  1
  O  O155  1  0.64855479  0.99976234  0.61866696  1
  O  O156  1  0.96835524  0.32546394  0.12135913  1
  O  O157  1  0.96124138  0.32606516  0.62885103  1
  O  O158  1  0.96158858  0.65635864  0.12080923  1
  O  O159  1  0.97415982  0.66222493  0.62856976  1
  O  O160  1  0.96323911  1.00134737  0.12228550  1
  O  O161  1  0.96548801  0.99999437  0.63334570  1
  O  O162  1  0.18450578  0.16000979  0.11880751  1
  O  O163  1  0.19075802  0.14748593  0.61925058  1
  O  O164  1  0.20319301  0.49200342  0.12087781  1
  O  O165  1  0.19654492  0.47800826  0.62852896  1
  O  O166  1  0.18831322  0.83950938  0.12083135  1
  O  O167  1  0.20705044  0.83089741  0.62917733  1
  O  O168  1  0.53026365  0.16362373  0.11921860  1
  O  O169  1  0.51868653  0.16725447  0.62731507  1
  O  O170  1  0.53639683  0.48353655  0.12350264  1
  O  O171  1  0.52142056  0.48245009  0.62652705  1
  O  O172  1  0.51900146  0.82317034  0.11480463  1
  O  O173  1  0.52287598  0.82254226  0.62858906  1
  O  O174  1  0.86225039  0.15916374  0.12303962  1
  O  O175  1  0.86528895  0.14995003  0.63350403  1
  O  O176  1  0.84931876  0.48713346  0.11998860  1
  O  O177  1  0.85241413  0.48014670  0.63154230  1
  O  O178  1  0.84834032  0.82634502  0.11998941  1
  O  O179  1  0.84253604  0.83158322  0.62648175  1
  O  O180  1  0.14496066  0.19070161  0.38270559  1
  O  O181  1  0.14858914  0.17628340  0.87926059  1
  O  O182  1  0.13937276  0.49435509  0.36541568  1
  O  O183  1  0.13823675  0.51159179  0.88100131  1
  O  O184  1  0.14652386  0.85163526  0.37441372  1
  O  O185  1  0.13724323  0.85065186  0.87384466  1
  O  O186  1  0.47060747  0.17997125  0.38163207  1
  O  O187  1  0.47632413  0.17949137  0.87522526  1
  O  O188  1  0.48394196  0.51722034  0.37326506  1
  O  O189  1  0.48426236  0.49871668  0.87845122  1
  O  O190  1  0.48724758  0.83202439  0.38283683  1
  O  O191  1  0.48277991  0.83448685  0.87288876  1
  O  O192  1  0.81233993  0.17015103  0.36379966  1
  O  O193  1  0.80957365  0.17825465  0.87750027  1
  O  O194  1  0.81005449  0.49777477  0.35923283  1
  O  O195  1  0.78953722  0.50309129  0.88615935  1
  O  O196  1  0.79149143  0.85323548  0.37058033  1
  O  O197  1  0.79332719  0.83874123  0.88352543  1
  O  O198  1  0.03037609  0.00987468  0.36544283  1
  O  O199  1  0.03261622  0.00694597  0.87414078  1
  O  O200  1  0.02963195  0.34177289  0.37088644  1
  O  O201  1  0.03621870  0.33723179  0.87861667  1
  O  O202  1  0.01816248  0.64671844  0.36960960  1
  O  O203  1  0.03518340  0.67531542  0.87780695  1
  O  O204  1  0.35708704  0.02173960  0.37659404  1
  O  O205  1  0.35809472  0.00333425  0.87456833  1
  O  O206  1  0.37032868  0.33429411  0.36926374  1
  O  O207  1  0.36543587  0.33136564  0.87336824  1
  O  O208  1  0.37695537  0.66528604  0.37587050  1
  O  O209  1  0.35736212  0.66453539  0.87465674  1
  O  O210  1  0.69732497  0.00644855  0.37205375  1
  O  O211  1  0.67742362  0.00148344  0.87803890  1
  O  O212  1  0.67762800  0.33285825  0.36542349  1
  O  O213  1  0.69476770  0.33958145  0.88350270  1
  O  O214  1  0.67580083  0.66771175  0.36654514  1
  O  O215  1  0.68308548  0.67765496  0.87944486  1
  O  O216  1  0.06555521  0.09608897  0.02470197  1
  O  O217  1  0.06988325  0.10576232  0.52438077  1
  O  O218  1  0.07726545  0.43048077  0.01276790  1
  O  O219  1  0.08311052  0.41761060  0.52677542  1
  O  O220  1  0.06817639  0.76348830  0.01078582  1
  O  O221  1  0.08086426  0.75736638  0.52270655  1
  O  O222  1  0.41383035  0.09581412  0.02143816  1
  O  O223  1  0.40836516  0.10140768  0.51795113  1
  O  O224  1  0.41165009  0.43282632  0.02594425  1
  O  O225  1  0.41352070  0.42700160  0.51684155  1
  O  O226  1  0.40958913  0.75289008  0.01804603  1
  O  O227  1  0.41278328  0.76314420  0.53384464  1
  O  O228  1  0.74061384  0.09884139  0.03010670  1
  O  O229  1  0.73681793  0.09015631  0.51689051  1
  O  O230  1  0.72943783  0.42886899  0.02928121  1
  O  O231  1  0.74489997  0.41678915  0.51795288  1
  O  O232  1  0.74046651  0.75703111  0.02485613  1
  O  O233  1  0.72864336  0.76494374  0.49969720  1
  O  O234  1  0.08793147  0.24865050  0.02110292  1
  O  O235  1  0.10571822  0.26045420  0.53069110  1
  O  O236  1  0.09995930  0.58886139  0.01847023  1
  O  O237  1  0.10463995  0.59789251  0.52887905  1
  O  O238  1  0.08496188  0.93530609  0.00774187  1
  O  O239  1  0.09892289  0.93952597  0.52517987  1
  O  O240  1  0.43769274  0.26604521  0.01742931  1
  O  O241  1  0.43545481  0.26499059  0.52370172  1
  O  O242  1  0.43525090  0.59078680  0.02610540  1
  O  O243  1  0.44087974  0.59776663  0.52799558  1
  O  O244  1  0.43491401  0.93210672  0.01818776  1
  O  O245  1  0.42744845  0.91890432  0.52139314  1
  O  O246  1  0.75978771  0.26373794  0.02920498  1
  O  O247  1  0.76209945  0.25956133  0.52688764  1
  O  O248  1  0.76164049  0.59677650  0.03077986  1
  O  O249  1  0.75653148  0.58987137  0.51416024  1
  O  O250  1  0.76740485  0.93065888  0.02769851  1
  O  O251  1  0.76054332  0.94122119  0.51628999  1
  O  O252  1  0.23859978  0.08034922  0.28073741  1
  O  O253  1  0.23861557  0.06713741  0.77272819  1
  O  O254  1  0.23907382  0.39982139  0.27196787  1
  O  O255  1  0.24161557  0.39742999  0.77960420  1
  O  O256  1  0.24768526  0.73953002  0.26605186  1
  O  O257  1  0.24115124  0.73231427  0.77784863  1
  O  O258  1  0.57617510  0.07070969  0.26541521  1
  O  O259  1  0.57125846  0.07941340  0.76057675  1
  O  O260  1  0.56488331  0.39737724  0.26835942  1
  O  O261  1  0.56881238  0.40551728  0.77848584  1
  O  O262  1  0.57201696  0.73039133  0.26687994  1
  O  O263  1  0.56816419  0.73683366  0.77103243  1
  O  O264  1  0.89284664  0.06967236  0.26481511  1
  O  O265  1  0.90606456  0.06998773  0.77394892  1
  O  O266  1  0.89511005  0.40459553  0.25340150  1
  O  O267  1  0.90702382  0.40388957  0.79731714  1
  O  O268  1  0.89838508  0.74068555  0.25631989  1
  O  O269  1  0.91579015  0.75229348  0.78486638  1
  O  O270  1  0.26953645  0.24617812  0.27361079  1
  O  O271  1  0.25899359  0.24744498  0.77126358  1
  O  O272  1  0.26444515  0.56287859  0.25330902  1
  O  O273  1  0.26647385  0.57726709  0.77556984  1
  O  O274  1  0.25487414  0.91828828  0.26902854  1
  O  O275  1  0.26073222  0.91479532  0.77629760  1
  O  O276  1  0.59674592  0.24218681  0.26242898  1
  O  O277  1  0.58256705  0.24137028  0.77457811  1
  O  O278  1  0.60177020  0.56372809  0.25767738  1
  O  O279  1  0.59745240  0.56384728  0.77521002  1
  O  O280  1  0.60760423  0.90453905  0.27465416  1
  O  O281  1  0.59335543  0.89669804  0.76828716  1
  O  O282  1  0.91828889  0.23538610  0.25777752  1
  O  O283  1  0.92245539  0.23662589  0.77186606  1
  O  O284  1  0.92233286  0.55946741  0.26468772  1
  O  O285  1  0.93328996  0.56533658  0.78262156  1
  O  O286  1  0.92211958  0.91950711  0.27118520  1
  O  O287  1  0.93965547  0.91063954  0.77859328  1
  O  O288  1  0.26618916  0.22744907  0.47977252  1
  O  O289  1  0.24955596  0.24368007  0.98464679  1
  O  O290  1  0.26804397  0.56919488  0.48308936  1
  O  O291  1  0.26343340  0.56850447  0.98093907  1
  O  O292  1  0.25944865  0.91647648  0.48122205  1
  O  O293  1  0.25956945  0.91787549  0.97592637  1
  O  O294  1  0.58463061  0.24040730  0.47833429  1
  O  O295  1  0.59414962  0.24277593  0.97615737  1
  O  O296  1  0.58688944  0.57118785  0.48463929  1
  O  O297  1  0.60624613  0.56268570  0.98253277  1
  O  O298  1  0.59985803  0.90191054  0.47749083  1
  O  O299  1  0.59610021  0.89663672  0.97876756  1
  O  O300  1  0.93537510  0.23275926  0.49458320  1
  O  O301  1  0.91550324  0.24257075  0.97953832  1
  O  O302  1  0.93245650  0.56511054  0.47714947  1
  O  O303  1  0.92244522  0.55905398  0.97397899  1
  O  O304  1  0.92111689  0.91355192  0.47325029  1
  O  O305  1  0.92601249  0.90317057  0.97403240  1
  O  O306  1  0.22764632  0.07438038  0.47443560  1
  O  O307  1  0.23605361  0.07048222  0.97390228  1
  O  O308  1  0.23709958  0.39469954  0.47339917  1
  O  O309  1  0.23441138  0.40617730  0.97445736  1
  O  O310  1  0.24786993  0.74270034  0.48513538  1
  O  O311  1  0.24258354  0.72936794  0.97419551  1
  O  O312  1  0.57051445  0.07498254  0.48400585  1
  O  O313  1  0.56927807  0.07745153  0.98923346  1
  O  O314  1  0.56306805  0.40419304  0.47783456  1
  O  O315  1  0.57008818  0.40014929  0.97414834  1
  O  O316  1  0.56545683  0.73677434  0.48256223  1
  O  O317  1  0.57417104  0.73778995  0.97828779  1
  O  O318  1  0.89856164  0.06809475  0.47664177  1
  O  O319  1  0.89970391  0.07397364  0.98694691  1
  O  O320  1  0.91366926  0.41112730  0.46688243  1
  O  O321  1  0.88936105  0.40253713  0.97950567  1
  O  O322  1  0.90619517  0.74154829  0.47790122  1
  O  O323  1  0.90161137  0.74771769  0.98138288  1
  O  O324  1  0.08518076  0.25264322  0.22396779  1
  O  O325  1  0.09412010  0.25911840  0.71937324  1
  O  O326  1  0.09986429  0.58209138  0.22617953  1
  O  O327  1  0.10977623  0.60359812  0.73289350  1
  O  O328  1  0.08294622  0.93592939  0.23265730  1
  O  O329  1  0.09611325  0.94393859  0.72776241  1
  O  O330  1  0.43553167  0.27559366  0.22962647  1
  O  O331  1  0.43203153  0.26690454  0.73197971  1
  O  O332  1  0.44084830  0.59059714  0.21996538  1
  O  O333  1  0.43334710  0.59855997  0.72935784  1
  O  O334  1  0.43683657  0.93408639  0.22535020  1
  O  O335  1  0.42087049  0.91969123  0.72571894  1
  O  O336  1  0.75804608  0.26289873  0.21413835  1
  O  O337  1  0.77016460  0.25700273  0.73212123  1
  O  O338  1  0.76081456  0.59484019  0.21715469  1
  O  O339  1  0.75186332  0.59563914  0.73913487  1
  O  O340  1  0.76035530  0.94254460  0.22433394  1
  O  O341  1  0.76671157  0.93348278  0.72877072  1
  O  O342  1  0.06031833  0.09558830  0.22260774  1
  O  O343  1  0.06419672  0.09648935  0.72341838  1
  O  O344  1  0.08150798  0.42552273  0.22972408  1
  O  O345  1  0.07602231  0.42529854  0.73857058  1
  O  O346  1  0.07446896  0.75620162  0.23150569  1
  O  O347  1  0.08110605  0.76029621  0.72471478  1
  O  O348  1  0.40989262  0.09810989  0.22812479  1
  O  O349  1  0.40605122  0.09066564  0.73509072  1
  O  O350  1  0.40802293  0.43430028  0.22234907  1
  O  O351  1  0.41228742  0.42127760  0.72959469  1
  O  O352  1  0.41760284  0.75503135  0.22440203  1
  O  O353  1  0.40304081  0.76090287  0.72497893  1
  O  O354  1  0.73213086  0.09949828  0.21809671  1
  O  O355  1  0.75116857  0.09196394  0.73407602  1
  O  O356  1  0.73230878  0.42658218  0.21509940  1
  O  O357  1  0.74378102  0.41633590  0.73862637  1
  O  O358  1  0.73222797  0.75290655  0.23330252  1
  O  O359  1  0.72879956  0.75660925  0.74559861  1
