# generated using pymatgen
data_BaLaInIrO6
_symmetry_space_group_name_H-M   'P 1'
_cell_length_a   17.51513281
_cell_length_b   17.54459717
_cell_length_c   16.48970278
_cell_angle_alpha   89.96671739
_cell_angle_beta   90.00682264
_cell_angle_gamma   89.95619541
_symmetry_Int_Tables_number   1
_chemical_formula_structural   BaLaInIrO6
_chemical_formula_sum   'Ba36 La36 In36 Ir36 O216'
_cell_volume   5067.21650380
_cell_formula_units_Z   36
loop_
 _symmetry_equiv_pos_site_id
 _symmetry_equiv_pos_as_xyz
  1  'x, y, z'
loop_
 _atom_site_type_symbol
 _atom_site_label
 _atom_site_symmetry_multiplicity
 _atom_site_fract_x
 _atom_site_fract_y
 _atom_site_fract_z
 _atom_site_occupancy
  Ba  Ba0  1  0.33914526  0.82657978  0.37507402  1
  Ba  Ba1  1  0.82952007  0.67675173  0.62123433  1
  Ba  Ba2  1  0.16617898  0.00666450  0.63196501  1
  Ba  Ba3  1  0.16503824  0.67970278  0.12315703  1
  Ba  Ba4  1  0.49806224  0.32730824  0.87540964  1
  Ba  Ba5  1  0.32928302  0.48479970  0.87721702  1
  Ba  Ba6  1  0.17107142  0.65746724  0.37645494  1
  Ba  Ba7  1  0.50189752  0.65686931  0.87661322  1
  Ba  Ba8  1  0.33075597  0.16852829  0.62777979  1
  Ba  Ba9  1  0.66294831  0.16100786  0.37223961  1
  Ba  Ba10  1  0.66294599  0.49332634  0.37617948  1
  Ba  Ba11  1  0.50565618  0.99485980  0.37523757  1
  Ba  Ba12  1  0.16340202  0.67624084  0.62450603  1
  Ba  Ba13  1  0.49914396  0.32838327  0.37867780  1
  Ba  Ba14  1  0.32954347  0.49354848  0.37620498  1
  Ba  Ba15  1  0.16029542  0.34125531  0.12473061  1
  Ba  Ba16  1  0.16391685  0.99162289  0.87738428  1
  Ba  Ba17  1  0.50127430  0.33690670  0.62667799  1
  Ba  Ba18  1  0.33827717  0.16264595  0.37463795  1
  Ba  Ba19  1  0.67107854  0.84488374  0.12309557  1
  Ba  Ba20  1  0.67194492  0.16104568  0.87207622  1
  Ba  Ba21  1  0.50208792  0.33583735  0.12670062  1
  Ba  Ba22  1  1.00230924  0.84468863  0.62212196  1
  Ba  Ba23  1  0.83395501  0.34353763  0.62969059  1
  Ba  Ba24  1  0.83394897  0.67820847  0.12257056  1
  Ba  Ba25  1  0.83274449  0.99389991  0.37305830  1
  Ba  Ba26  1  0.50012214  0.65770469  0.37302364  1
  Ba  Ba27  1  0.83054138  0.33813856  0.12734771  1
  Ba  Ba28  1  0.83205486  0.65952541  0.37008187  1
  Ba  Ba29  1  0.33385273  0.84281049  0.62378024  1
  Ba  Ba30  1  0.66290212  0.50705616  0.62515057  1
  Ba  Ba31  1  0.33498278  0.17526752  0.12361972  1
  Ba  Ba32  1  0.66423088  0.49225987  0.87660688  1
  Ba  Ba33  1  0.00018558  0.82154106  0.87342049  1
  Ba  Ba34  1  0.50060406  0.00899415  0.12228509  1
  Ba  Ba35  1  0.49909205  0.00752444  0.62523784  1
  La  La36  1  0.33940421  0.51501779  0.62548334  1
  La  La37  1  -0.00464760  0.48406682  0.87316350  1
  La  La38  1  0.49308013  0.68091321  0.62530669  1
  La  La39  1  1.00644705  0.17813716  0.12430193  1
  La  La40  1  1.00840435  0.51774044  0.12125390  1
  La  La41  1  1.00907530  0.18180426  0.62915805  1
  La  La42  1  0.33292215  0.15129374  0.87457226  1
  La  La43  1  0.16607161  0.01146468  0.12144841  1
  La  La44  1  0.66416360  0.84090452  0.62136842  1
  La  La45  1  0.66691717  0.18050004  0.61691855  1
  La  La46  1  0.82815795  0.02077613  0.12204061  1
  La  La47  1  1.00413965  0.84909569  0.12263195  1
  La  La48  1  -0.00782084  0.14941130  0.87588640  1
  La  La49  1  1.00203135  0.51470121  0.62534105  1
  La  La50  1  0.66354687  0.82285567  0.87356995  1
  La  La51  1  0.32648370  0.82253201  0.87529117  1
  La  La52  1  0.34106452  0.84722640  0.12516355  1
  La  La53  1  0.17844741  0.98760079  0.37986432  1
  La  La54  1  -0.00476945  0.15398090  0.37448885  1
  La  La55  1  0.84136775  0.98380065  0.87570428  1
  La  La56  1  -0.00737734  0.48839809  0.37407917  1
  La  La57  1  0.17384817  0.30953593  0.87677837  1
  La  La58  1  0.66975601  0.51664728  0.12543890  1
  La  La59  1  0.82966665  0.00929394  0.62623989  1
  La  La60  1  0.83627836  0.31556223  0.38048698  1
  La  La61  1  0.17056877  0.31887831  0.37500216  1
  La  La62  1  0.49680396  0.67740101  0.12586123  1
  La  La63  1  0.15793738  0.34635548  0.62721525  1
  La  La64  1  0.65781161  0.17241583  0.12554059  1
  La  La65  1  -0.00197518  0.81705298  0.37656644  1
  La  La66  1  0.65701608  0.82067391  0.37259861  1
  La  La67  1  0.50228758  0.99109281  0.87277962  1
  La  La68  1  0.33050359  0.51220207  0.12374412  1
  La  La69  1  0.83656452  0.64876366  0.87623878  1
  La  La70  1  0.83592434  0.31630398  0.87490736  1
  La  La71  1  0.17093829  0.65017218  0.87395528  1
  In  In72  1  -0.00228255  0.66543665  0.75204894  1
  In  In73  1  -0.00118045  0.66473441  0.49826958  1
  In  In74  1  0.16574418  0.49783393  0.50056372  1
  In  In75  1  0.83320812  0.83690511  0.25055237  1
  In  In76  1  0.50129950  0.49729709  0.00296899  1
  In  In77  1  0.49872526  0.49973744  0.75038263  1
  In  In78  1  0.49935536  0.16780632  0.24894267  1
  In  In79  1  0.32881257  0.33661612  0.24833823  1
  In  In80  1  0.83196223  0.83690547  0.49689986  1
  In  In81  1  0.16454287  0.83384170  0.75162777  1
  In  In82  1  0.33215997  0.66671782  0.25011739  1
  In  In83  1  0.66798375  0.66829167  0.74835411  1
  In  In84  1  0.32820886  0.33157039  0.74580975  1
  In  In85  1  0.66986549  0.67060394  -0.00030102  1
  In  In86  1  0.49948130  0.16757288  0.50267406  1
  In  In87  1  0.66944301  0.00291980  -0.00559478  1
  In  In88  1  0.16560541  0.83551422  0.49989994  1
  In  In89  1  0.16648747  0.83608970  0.24710176  1
  In  In90  1  0.83482805  0.49416234  0.00343377  1
  In  In91  1  0.49780128  0.49806362  0.50037677  1
  In  In92  1  0.00149832  0.33099710  -0.00311611  1
  In  In93  1  0.33332569  0.00009314  0.24988253  1
  In  In94  1  0.16430375  0.16446746  0.50288015  1
  In  In95  1  0.66961081  0.00020976  0.49993382  1
  In  In96  1  0.66999188  0.33441601  0.25083994  1
  In  In97  1  0.83479841  0.16502860  0.74615159  1
  In  In98  1  0.49886678  0.49801245  0.24726247  1
  In  In99  1  0.00178766  -0.00128569  0.25144224  1
  In  In100  1  0.83211436  0.49906146  0.49942047  1
  In  In101  1  0.33247720  0.66765678  0.75218800  1
  In  In102  1  0.16301434  0.16464520  0.25227695  1
  In  In103  1  -0.00037858  0.66825782  0.24648989  1
  In  In104  1  0.83149771  0.83215285  0.75025205  1
  In  In105  1  0.33234675  0.66773007  0.00136372  1
  In  In106  1  0.50319612  0.16719870  0.75162701  1
  In  In107  1  -0.00268934  0.33502524  0.25101700  1
  Ir  Ir108  1  0.67039856  0.32800833  -0.00199680  1
  Ir  Ir109  1  0.16709139  0.83554616  -0.00040988  1
  Ir  Ir110  1  0.83635515  0.16708730  0.00091856  1
  Ir  Ir111  1  0.84118561  0.16626230  0.50081948  1
  Ir  Ir112  1  0.67388605  0.33433187  0.75241255  1
  Ir  Ir113  1  0.83701477  0.49639619  0.75317133  1
  Ir  Ir114  1  0.66642628  0.66778051  0.24942727  1
  Ir  Ir115  1  0.33650487  -0.00078100  0.75356964  1
  Ir  Ir116  1  0.49986372  0.83862078  0.75498416  1
  Ir  Ir117  1  0.66103972  0.67065812  0.49924825  1
  Ir  Ir118  1  0.83519058  0.16660710  0.25298558  1
  Ir  Ir119  1  0.16289224  0.16335663  0.75480639  1
  Ir  Ir120  1  -0.00447574  0.00282589  0.75079104  1
  Ir  Ir121  1  0.49777263  0.83759096  -0.00260656  1
  Ir  Ir122  1  0.16528033  0.15997455  -0.00296056  1
  Ir  Ir123  1  0.83374464  0.49859249  0.24951880  1
  Ir  Ir124  1  0.83788415  0.83651095  -0.00122104  1
  Ir  Ir125  1  0.33309676  -0.00222906  -0.00406120  1
  Ir  Ir126  1  0.67504084  0.33171128  0.50381236  1
  Ir  Ir127  1  0.33468892  0.66763528  0.50301826  1
  Ir  Ir128  1  0.32704127  0.32998777  -0.00112756  1
  Ir  Ir129  1  0.49709173  0.16688159  -0.00480560  1
  Ir  Ir130  1  0.16286312  0.49417644  0.75258788  1
  Ir  Ir131  1  0.00318038  0.66732027  -0.00388306  1
  Ir  Ir132  1  0.00416513  0.33256419  0.75113920  1
  Ir  Ir133  1  0.00100131  0.33284846  0.50319997  1
  Ir  Ir134  1  -0.00405124  -0.00084014  0.00076345  1
  Ir  Ir135  1  0.66964316  -0.00007135  0.75138888  1
  Ir  Ir136  1  0.50605649  0.83348680  0.24343785  1
  Ir  Ir137  1  0.33529436  -0.00200193  0.50195976  1
  Ir  Ir138  1  0.00036112  0.00611956  0.50067708  1
  Ir  Ir139  1  0.50252060  0.83190038  0.49902899  1
  Ir  Ir140  1  0.67095721  0.00162873  0.24477476  1
  Ir  Ir141  1  0.32365780  0.33201841  0.50191769  1
  Ir  Ir142  1  0.16060401  0.49852412  0.24650202  1
  Ir  Ir143  1  0.16185942  0.49862682  -0.00238613  1
  O  O144  1  0.30694686  0.32797240  0.11635603  1
  O  O145  1  0.29173779  0.32332078  0.62003351  1
  O  O146  1  0.31057028  0.65467895  0.12403987  1
  O  O147  1  0.31456313  0.66758295  0.62309346  1
  O  O148  1  0.30271333  0.98870996  0.11552130  1
  O  O149  1  0.31445039  0.99804786  0.63028095  1
  O  O150  1  0.66141919  0.31026085  0.11687157  1
  O  O151  1  0.65534611  0.31875149  0.62891594  1
  O  O152  1  0.63876113  0.66309924  0.12923855  1
  O  O153  1  0.63362474  0.67317571  0.61929103  1
  O  O154  1  0.65360072  1.00472646  0.12332302  1
  O  O155  1  0.64705215  0.98055516  0.63480616  1
  O  O156  1  0.97936930  0.31708320  0.12251997  1
  O  O157  1  0.97873517  0.31749391  0.62802862  1
  O  O158  1  0.98131062  0.65613745  0.11538376  1
  O  O159  1  0.97633650  0.65028337  0.62653801  1
  O  O160  1  0.96374496  0.98905109  0.11875098  1
  O  O161  1  0.96651449  0.99971139  0.62561244  1
  O  O162  1  0.18509702  0.15195365  0.11706785  1
  O  O163  1  0.17949150  0.16378929  0.63385549  1
  O  O164  1  0.19274522  0.49445212  0.12138398  1
  O  O165  1  0.19788324  0.48388639  0.63429275  1
  O  O166  1  0.20117016  0.83661936  0.11508330  1
  O  O167  1  0.18267087  0.84094302  0.62628945  1
  O  O168  1  0.52175238  0.16423400  0.11465740  1
  O  O169  1  0.53087371  0.16580251  0.62745448  1
  O  O170  1  0.53753705  0.49057838  0.12444265  1
  O  O171  1  0.51240781  0.49303071  0.62379516  1
  O  O172  1  0.52602354  0.82047584  0.11977150  1
  O  O173  1  0.52887903  0.82337799  0.62791160  1
  O  O174  1  0.86672933  0.16206898  0.12797060  1
  O  O175  1  0.87259777  0.15791483  0.62094226  1
  O  O176  1  0.87037275  0.49331459  0.13059399  1
  O  O177  1  0.86440740  0.49713415  0.63195622  1
  O  O178  1  0.86754895  0.83358185  0.11754418  1
  O  O179  1  0.85102086  0.83516150  0.62491558  1
  O  O180  1  0.12906953  0.17748636  0.37993607  1
  O  O181  1  0.13079490  0.16853592  0.87554197  1
  O  O182  1  0.13160397  0.50148410  0.36749841  1
  O  O183  1  0.13061936  0.50820825  0.87496143  1
  O  O184  1  0.13239122  0.85447422  0.37355413  1
  O  O185  1  0.14710812  0.83960202  0.88220069  1
  O  O186  1  0.49269459  0.16963780  0.37720413  1
  O  O187  1  0.47117926  0.16848079  0.87725809  1
  O  O188  1  0.48122522  0.49798356  0.37614257  1
  O  O189  1  0.48132048  0.49257485  0.87730728  1
  O  O190  1  0.48725494  0.83938356  0.37202439  1
  O  O191  1  0.46440416  0.85105567  0.87649854  1
  O  O192  1  0.81177752  0.17269067  0.37771519  1
  O  O193  1  0.82302385  0.16962045  0.87840659  1
  O  O194  1  0.81168493  0.50170360  0.36730292  1
  O  O195  1  0.81696496  0.50701000  0.87254387  1
  O  O196  1  0.79181654  0.84261453  0.37373079  1
  O  O197  1  0.80292191  0.84756227  0.87907449  1
  O  O198  1  0.03564900  0.01889569  0.38160016  1
  O  O199  1  0.01692413  0.01491955  0.87478728  1
  O  O200  1  0.03220068  0.34734375  0.38312503  1
  O  O201  1  0.03737727  0.34400037  0.86981629  1
  O  O202  1  0.02249265  0.67441052  0.37102392  1
  O  O203  1  0.03534461  0.66702867  0.87936263  1
  O  O204  1  0.35277015  0.00002056  0.38274828  1
  O  O205  1  0.36533676  0.00710345  0.87470556  1
  O  O206  1  0.34497196  0.33993758  0.38378837  1
  O  O207  1  0.34239148  0.32982447  0.87960646  1
  O  O208  1  0.35016508  0.66147516  0.38199233  1
  O  O209  1  0.35392290  0.68014152  0.87787754  1
  O  O210  1  0.68355029  0.00127517  0.36611273  1
  O  O211  1  0.70419107  0.00821945  0.86947009  1
  O  O212  1  0.70009775  0.33335576  0.38328170  1
  O  O213  1  0.69991201  0.33891500  0.87463677  1
  O  O214  1  0.68499908  0.68057739  0.37495929  1
  O  O215  1  0.70199951  0.68314483  0.87435338  1
  O  O216  1  0.06707228  0.09213322  0.02478670  1
  O  O217  1  0.05961739  0.10227997  0.52616622  1
  O  O218  1  0.06606096  0.43537585  0.01868574  1
  O  O219  1  0.06493585  0.42430237  0.53388951  1
  O  O220  1  0.06837632  0.77017120  0.02234131  1
  O  O221  1  0.07274538  0.76107548  0.50825787  1
  O  O222  1  0.39938984  0.09883450  0.00732709  1
  O  O223  1  0.40610592  0.08561009  0.51723279  1
  O  O224  1  0.39132160  0.42468796  0.02183108  1
  O  O225  1  0.38876309  0.42592332  0.52665094  1
  O  O226  1  0.40701031  0.76818975  0.02411673  1
  O  O227  1  0.41336583  0.75494203  0.52439017  1
  O  O228  1  0.74214604  0.10252039  0.02602668  1
  O  O229  1  0.75097671  0.09752937  0.53135309  1
  O  O230  1  0.73219433  0.42403169  0.02293856  1
  O  O231  1  0.74354901  0.42079671  0.51943689  1
  O  O232  1  0.74772654  0.76794913  0.01563239  1
  O  O233  1  0.72607007  0.76503356  0.51787545  1
  O  O234  1  0.09411985  0.24895232  0.01459201  1
  O  O235  1  0.09258826  0.26630021  0.52811124  1
  O  O236  1  0.09584166  0.59474349  0.01885902  1
  O  O237  1  0.08884545  0.58326111  0.52545488  1
  O  O238  1  0.09411628  0.93120183  0.02671967  1
  O  O239  1  0.09122226  0.94199753  0.51493179  1
  O  O240  1  0.42405746  0.26268938  0.01561726  1
  O  O241  1  0.41492259  0.26220392  0.51758841  1
  O  O242  1  0.42725272  0.59371971  0.03024584  1
  O  O243  1  0.42288123  0.59680914  0.52934732  1
  O  O244  1  0.42087997  0.92383123  0.02371503  1
  O  O245  1  0.42998150  0.92313578  0.51749153  1
  O  O246  1  0.77391252  0.26665279  0.00142642  1
  O  O247  1  0.76834136  0.25632718  0.52217399  1
  O  O248  1  0.76051282  0.58811598  0.01824140  1
  O  O249  1  0.75076513  0.59794966  0.51308205  1
  O  O250  1  0.77485933  0.93433355  0.01764925  1
  O  O251  1  0.76646634  0.93585136  0.52669188  1
  O  O252  1  0.22868280  0.06520801  0.26925035  1
  O  O253  1  0.24410895  0.07433162  0.77819980  1
  O  O254  1  0.22182295  0.40426663  0.27175079  1
  O  O255  1  0.22050729  0.39591497  0.77302118  1
  O  O256  1  0.24192248  0.74310140  0.26663264  1
  O  O257  1  0.23766309  0.73845452  0.77980783  1
  O  O258  1  0.58159457  0.07030885  0.25558670  1
  O  O259  1  0.57443203  0.06422932  0.77500725  1
  O  O260  1  0.57584021  0.40480183  0.26799782  1
  O  O261  1  0.58317978  0.40278282  0.76069085  1
  O  O262  1  0.57806058  0.74263742  0.26875209  1
  O  O263  1  0.57110343  0.75287923  0.77594260  1
  O  O264  1  0.90552618  0.07747792  0.26541773  1
  O  O265  1  0.90293968  0.06869228  0.77323733  1
  O  O266  1  0.89882985  0.40504309  0.28068392  1
  O  O267  1  0.90820506  0.40000737  0.77959182  1
  O  O268  1  0.90706389  0.74352527  0.26692505  1
  O  O269  1  0.89443522  0.72934365  0.77833650  1
  O  O270  1  0.24943116  0.24640700  0.27244254  1
  O  O271  1  0.25434208  0.23095780  0.78011818  1
  O  O272  1  0.25402425  0.56365396  0.25864169  1
  O  O273  1  0.25030595  0.56884961  0.77081558  1
  O  O274  1  0.25955156  0.90945762  0.26971810  1
  O  O275  1  0.26935951  0.90640027  0.77538494  1
  O  O276  1  0.60172975  0.23440720  0.24701211  1
  O  O277  1  0.60500263  0.24256284  0.76158401  1
  O  O278  1  0.59823463  0.57888766  0.26060108  1
  O  O279  1  0.59225326  0.57894233  0.76532783  1
  O  O280  1  0.60356495  0.90428797  0.26667501  1
  O  O281  1  0.59920805  0.90824877  0.78253492  1
  O  O282  1  0.92405117  0.23709196  0.28327088  1
  O  O283  1  0.93763849  0.23819732  0.77571523  1
  O  O284  1  0.92993790  0.56192563  0.26858371  1
  O  O285  1  0.93107294  0.56093434  0.77562333  1
  O  O286  1  0.93663298  0.90185981  0.27750005  1
  O  O287  1  0.92457250  0.91395632  0.77257647  1
  O  O288  1  0.25381425  0.24373972  0.47612796  1
  O  O289  1  0.25825790  0.23090909  0.97058288  1
  O  O290  1  0.26399834  0.57530867  0.49606608  1
  O  O291  1  0.24996432  0.57176637  0.97811862  1
  O  O292  1  0.25972183  0.91437094  0.47950361  1
  O  O293  1  0.26830832  0.89836448  0.97696330  1
  O  O294  1  0.60397911  0.24380073  0.49492594  1
  O  O295  1  0.60073032  0.22961821  0.98660742  1
  O  O296  1  0.59164873  0.58217867  0.48542265  1
  O  O297  1  0.59434690  0.57808858  0.98887219  1
  O  O298  1  0.59967002  0.89599065  0.48485901  1
  O  O299  1  0.58909359  0.91002541  0.96921135  1
  O  O300  1  0.93440657  0.23750818  0.47158779  1
  O  O301  1  0.93130888  0.23084029  0.97449175  1
  O  O302  1  0.93144007  0.56182050  0.47751053  1
  O  O303  1  0.93671165  0.57269785  0.97314410  1
  O  O304  1  0.93826914  0.91156635  0.47221420  1
  O  O305  1  0.92796238  0.90803109  0.97416665  1
  O  O306  1  0.24113785  0.06760365  0.48321426  1
  O  O307  1  0.24449093  0.07344190  0.97436861  1
  O  O308  1  0.22646329  0.39563832  0.48185472  1
  O  O309  1  0.22730665  0.39632706  0.97593197  1
  O  O310  1  0.24886498  0.74164944  0.48494207  1
  O  O311  1  0.23191222  0.74227681  0.97277247  1
  O  O312  1  0.58315282  0.07787617  0.49325441  1
  O  O313  1  0.56515949  0.07330231  0.97450354  1
  O  O314  1  0.58550304  0.40278555  0.49109580  1
  O  O315  1  0.57947251  0.39376708  0.98750391  1
  O  O316  1  0.57020319  0.74093714  0.47964524  1
  O  O317  1  0.57566167  0.75483705  0.97408865  1
  O  O318  1  0.91015408  0.07694372  0.47554699  1
  O  O319  1  0.89910170  0.06665164  0.97983216  1
  O  O320  1  0.90862187  0.39806069  0.47488383  1
  O  O321  1  0.90584938  0.40141516  0.96683326  1
  O  O322  1  0.90835727  0.74641312  0.47532325  1
  O  O323  1  0.90417036  0.73394435  0.97335443  1
  O  O324  1  0.08433592  0.25529436  0.23181793  1
  O  O325  1  0.09808815  0.26154002  0.72782975  1
  O  O326  1  0.09235821  0.58795116  0.22307904  1
  O  O327  1  0.09436518  0.58243225  0.73207802  1
  O  O328  1  0.09651333  0.93302328  0.20956770  1
  O  O329  1  0.08485392  0.93272682  0.74114354  1
  O  O330  1  0.42239366  0.26134867  0.23985782  1
  O  O331  1  0.42152259  0.25623182  0.73589616  1
  O  O332  1  0.43121402  0.59883270  0.22209671  1
  O  O333  1  0.42593874  0.59838988  0.72231916  1
  O  O334  1  0.42711561  0.91546361  0.22336281  1
  O  O335  1  0.43145091  0.93196522  0.73918006  1
  O  O336  1  0.76923814  0.25898174  0.24624103  1
  O  O337  1  0.76688171  0.26466347  0.74611788  1
  O  O338  1  0.75743719  0.59053357  0.22275611  1
  O  O339  1  0.77141666  0.59166199  0.73955800  1
  O  O340  1  0.76701762  0.93878558  0.22106055  1
  O  O341  1  0.76649520  0.94089633  0.73452674  1
  O  O342  1  0.06415081  0.09718845  0.22031237  1
  O  O343  1  0.06083560  0.10171255  0.73475251  1
  O  O344  1  0.06372463  0.43667288  0.22552033  1
  O  O345  1  0.06706200  0.42883955  0.72361779  1
  O  O346  1  0.06577567  0.77093771  0.22258185  1
  O  O347  1  0.07135442  0.75812597  0.73549790  1
  O  O348  1  0.40939832  0.08807600  0.23242133  1
  O  O349  1  0.40533037  0.08904593  0.74164889  1
  O  O350  1  0.39200996  0.43764583  0.22343588  1
  O  O351  1  0.39173986  0.43301830  0.72937445  1
  O  O352  1  0.41553188  0.76192978  0.22020952  1
  O  O353  1  0.41335720  0.76577092  0.73463547  1
  O  O354  1  0.74122385  0.09723412  0.22002843  1
  O  O355  1  0.73436943  0.09408216  0.71731428  1
  O  O356  1  0.73983996  0.43488345  0.22254258  1
  O  O357  1  0.74376631  0.42904828  0.73507397  1
  O  O358  1  0.73666643  0.75685717  0.23437932  1
  O  O359  1  0.72505274  0.77464488  0.73089930  1
