# generated using pymatgen
data_BaLaInIrO6
_symmetry_space_group_name_H-M   'P 1'
_cell_length_a   17.50690478
_cell_length_b   17.52795546
_cell_length_c   16.47159379
_cell_angle_alpha   90.00680252
_cell_angle_beta   90.01052282
_cell_angle_gamma   89.98888399
_symmetry_Int_Tables_number   1
_chemical_formula_structural   BaLaInIrO6
_chemical_formula_sum   'Ba36 La36 In36 Ir36 O216'
_cell_volume   5054.47712768
_cell_formula_units_Z   36
loop_
 _symmetry_equiv_pos_site_id
 _symmetry_equiv_pos_as_xyz
  1  'x, y, z'
loop_
 _atom_site_type_symbol
 _atom_site_label
 _atom_site_symmetry_multiplicity
 _atom_site_fract_x
 _atom_site_fract_y
 _atom_site_fract_z
 _atom_site_occupancy
  Ba  Ba0  1  0.32953168  0.82561618  0.37503504  1
  Ba  Ba1  1  0.83140602  0.99397729  0.37155801  1
  Ba  Ba2  1  0.99971324  0.84219485  0.62272626  1
  Ba  Ba3  1  0.83267687  0.34116507  0.62738287  1
  Ba  Ba4  1  0.67204379  0.17206476  0.12585357  1
  Ba  Ba5  1  0.49858611  0.01452155  0.62721445  1
  Ba  Ba6  1  0.32967868  0.15297374  0.87691673  1
  Ba  Ba7  1  0.66608749  0.15938358  0.87761087  1
  Ba  Ba8  1  0.49922672  0.99492417  0.87326092  1
  Ba  Ba9  1  0.16550934  0.00923132  0.62460737  1
  Ba  Ba10  1  0.16864993  0.32436341  0.87380496  1
  Ba  Ba11  1  0.49754924  0.65978021  0.87560145  1
  Ba  Ba12  1  0.83535468  0.99390847  0.87787118  1
  Ba  Ba13  1  0.00039511  0.48571365  0.87176067  1
  Ba  Ba14  1  0.33580506  0.50968594  0.12233992  1
  Ba  Ba15  1  -0.00113069  0.82601782  0.87498701  1
  Ba  Ba16  1  0.66625006  0.82940969  0.87636803  1
  Ba  Ba17  1  0.00004311  0.82372772  0.37797331  1
  Ba  Ba18  1  0.49447695  0.67941942  0.11966076  1
  Ba  Ba19  1  0.83152742  0.00262218  0.12429517  1
  Ba  Ba20  1  -0.00218830  0.49372674  0.37379980  1
  Ba  Ba21  1  0.49638280  0.68272800  0.62639495  1
  Ba  Ba22  1  0.66656290  0.84167611  0.62502903  1
  Ba  Ba23  1  1.00231434  0.17966271  0.62676637  1
  Ba  Ba24  1  0.16721455  0.33991918  0.62659777  1
  Ba  Ba25  1  0.83395982  0.33986278  0.12128300  1
  Ba  Ba26  1  1.00141190  0.17651682  0.12526685  1
  Ba  Ba27  1  0.49923989  0.32235101  0.88060072  1
  Ba  Ba28  1  0.83477056  0.67130597  0.12560017  1
  Ba  Ba29  1  0.83000935  0.65975817  0.37727570  1
  Ba  Ba30  1  0.66377856  0.84124490  0.12067625  1
  Ba  Ba31  1  0.33353574  0.15852612  0.37314947  1
  Ba  Ba32  1  0.16909494  0.98927529  0.87873298  1
  Ba  Ba33  1  0.49786613  0.00961523  0.12350096  1
  Ba  Ba34  1  0.66506867  0.15510841  0.37650304  1
  Ba  Ba35  1  0.16425459  0.34618215  0.12256522  1
  La  La36  1  0.16240167  0.67653243  0.62249695  1
  La  La37  1  0.33871735  0.85076974  0.12258066  1
  La  La38  1  -0.00153085  0.15772804  0.87115086  1
  La  La39  1  0.83706680  0.65166885  0.87533789  1
  La  La40  1  0.16734418  0.31635213  0.37634182  1
  La  La41  1  0.34026695  0.51377743  0.62596721  1
  La  La42  1  0.83005529  0.68053323  0.62330217  1
  La  La43  1  0.32872550  0.48677395  0.37520959  1
  La  La44  1  0.83588385  0.32611768  0.36951661  1
  La  La45  1  -0.00658802  0.16034902  0.37733913  1
  La  La46  1  1.00100426  0.50906332  0.12076987  1
  La  La47  1  0.17166016  0.98787647  0.37612459  1
  La  La48  1  0.17069491  0.65291290  0.87570972  1
  La  La49  1  0.32557736  0.49032828  0.87582011  1
  La  La50  1  0.49633864  0.33672826  0.62665443  1
  La  La51  1  0.50534892  0.64899989  0.37258720  1
  La  La52  1  1.00399060  0.85136556  0.12721257  1
  La  La53  1  0.32609304  0.82057852  0.87841181  1
  La  La54  1  0.66413218  0.49136353  0.87681935  1
  La  La55  1  0.50396439  0.31204573  0.37252993  1
  La  La56  1  0.66821827  0.50819228  0.12037618  1
  La  La57  1  0.66994622  0.17655908  0.62919181  1
  La  La58  1  0.16094148  0.67950570  0.12306610  1
  La  La59  1  0.49760400  0.34170932  0.12703990  1
  La  La60  1  0.83958131  0.31795189  0.87557571  1
  La  La61  1  0.33870062  0.17777564  0.11878783  1
  La  La62  1  1.00370448  0.50828079  0.62612545  1
  La  La63  1  0.17331941  0.64899133  0.37232506  1
  La  La64  1  0.67448192  0.51413858  0.62853002  1
  La  La65  1  0.16455483  0.01460429  0.12805725  1
  La  La66  1  0.34225457  0.85731142  0.62865939  1
  La  La67  1  0.50742978  0.98443194  0.37633958  1
  La  La68  1  0.66505261  0.82331129  0.36674668  1
  La  La69  1  0.66122529  0.48229939  0.36945249  1
  La  La70  1  0.32865246  0.16987485  0.63358859  1
  La  La71  1  0.82857136  0.01104021  0.62827006  1
  In  In72  1  0.49254880  0.82997188  0.25098376  1
  In  In73  1  0.83237823  0.16909947  0.50240913  1
  In  In74  1  0.50224422  0.49794599  0.75109727  1
  In  In75  1  0.33479874  0.66736372  0.49765612  1
  In  In76  1  0.83404569  0.49842387  0.50108892  1
  In  In77  1  0.66696132  0.33575900  0.75260940  1
  In  In78  1  0.16961471  0.83121040  0.50052665  1
  In  In79  1  0.66533180  0.66746694  -0.00149259  1
  In  In80  1  0.66619258  -0.00091423  0.75095522  1
  In  In81  1  0.33254748  0.33373603  0.25108704  1
  In  In82  1  0.33359331  0.33015991  0.49934490  1
  In  In83  1  0.33144009  0.66769946  0.74893221  1
  In  In84  1  0.00369291  0.33817725  0.24924726  1
  In  In85  1  0.17017343  0.83213020  0.24746352  1
  In  In86  1  0.33392604  0.33418781  0.00075510  1
  In  In87  1  0.83147299  0.83798213  0.50065739  1
  In  In88  1  0.66388891  0.33430594  0.50237296  1
  In  In89  1  0.33547548  0.00728386  0.49678703  1
  In  In90  1  0.83600495  0.16454913  0.00042313  1
  In  In91  1  0.83606828  0.82998868  -0.00070321  1
  In  In92  1  0.50106791  0.49565171  0.50003367  1
  In  In93  1  0.16745914  0.49597987  0.50009918  1
  In  In94  1  0.33351359  0.33262583  0.74845579  1
  In  In95  1  0.66827177  0.33451985  0.00142314  1
  In  In96  1  0.00448367  0.00180863  0.25374580  1
  In  In97  1  0.00136678  0.66566008  0.25084364  1
  In  In98  1  0.66441330  0.66596030  0.50067519  1
  In  In99  1  0.66601020  0.66850065  0.75262948  1
  In  In100  1  0.66294047  0.66388318  0.24758685  1
  In  In101  1  0.00013775  0.66589874  0.75004091  1
  In  In102  1  0.16880323  0.83162809  0.74940947  1
  In  In103  1  0.16637430  0.16771448  0.00012174  1
  In  In104  1  0.66445089  -0.00120426  0.24927931  1
  In  In105  1  0.83435881  0.83107686  0.24876030  1
  In  In106  1  0.00048398  -0.00045750  0.74734481  1
  In  In107  1  0.83354572  0.16869024  0.25191263  1
  Ir  Ir108  1  0.33320921  0.66237706  0.24753165  1
  Ir  Ir109  1  0.49873879  0.50006480  0.00113942  1
  Ir  Ir110  1  0.16871148  0.49977092  0.74955691  1
  Ir  Ir111  1  0.82942682  0.49607389  0.24584044  1
  Ir  Ir112  1  0.33388604  0.00464400  0.24862699  1
  Ir  Ir113  1  0.66266535  0.33673294  0.25011208  1
  Ir  Ir114  1  0.50093243  0.16443093  0.00364463  1
  Ir  Ir115  1  0.83558962  0.49958458  -0.00180889  1
  Ir  Ir116  1  0.49196326  0.83668268  -0.00337612  1
  Ir  Ir117  1  -0.00062594  0.33385698  0.74963910  1
  Ir  Ir118  1  0.16873581  0.50383790  0.24678979  1
  Ir  Ir119  1  0.33256454  0.00190362  0.75414148  1
  Ir  Ir120  1  0.83397053  0.83231188  0.74974305  1
  Ir  Ir121  1  0.32956799  0.66652239  0.00220782  1
  Ir  Ir122  1  0.33039466  -0.00372270  0.00173696  1
  Ir  Ir123  1  0.50155161  0.16700409  0.50186608  1
  Ir  Ir124  1  0.66278884  -0.00054998  -0.00100080  1
  Ir  Ir125  1  0.49751465  0.49869930  0.24876084  1
  Ir  Ir126  1  0.16820400  0.82857276  0.00370698  1
  Ir  Ir127  1  0.83536318  0.16688317  0.74905403  1
  Ir  Ir128  1  0.00313328  0.66381754  -0.00211772  1
  Ir  Ir129  1  0.00144714  0.00434775  0.49905547  1
  Ir  Ir130  1  0.16478182  0.16639511  0.74876681  1
  Ir  Ir131  1  0.16630648  0.50500422  -0.00082849  1
  Ir  Ir132  1  0.49366083  0.83752571  0.75070910  1
  Ir  Ir133  1  0.00017688  0.33739874  -0.00514007  1
  Ir  Ir134  1  0.00604474  0.00014261  0.00116479  1
  Ir  Ir135  1  0.66270718  -0.00018341  0.50360392  1
  Ir  Ir136  1  0.00209914  0.33494319  0.50053096  1
  Ir  Ir137  1  0.00167349  0.66330131  0.50327346  1
  Ir  Ir138  1  0.16124210  0.16665641  0.49652021  1
  Ir  Ir139  1  0.16927852  0.16636688  0.25369728  1
  Ir  Ir140  1  0.49674582  0.83657118  0.50280299  1
  Ir  Ir141  1  0.83637352  0.49968808  0.75043359  1
  Ir  Ir142  1  0.50124691  0.16722052  0.75137021  1
  Ir  Ir143  1  0.49866752  0.16631210  0.24941731  1
  O  O144  1  0.31450689  0.31951064  0.12708296  1
  O  O145  1  0.31637637  0.30662690  0.62333932  1
  O  O146  1  0.29893040  0.66086588  0.12523245  1
  O  O147  1  0.29767531  0.65139181  0.62453087  1
  O  O148  1  0.30195392  0.99262711  0.12591308  1
  O  O149  1  0.31741051  1.00297588  0.63162010  1
  O  O150  1  0.63402216  0.33642180  0.12975279  1
  O  O151  1  0.63177521  0.32268878  0.62877727  1
  O  O152  1  0.64184282  0.64407044  0.12229815  1
  O  O153  1  0.64267261  0.65052883  0.62737752  1
  O  O154  1  0.64700694  1.00199079  0.11819311  1
  O  O155  1  0.64726852  1.00457790  0.62223303  1
  O  O156  1  0.98527811  0.34245507  0.11622200  1
  O  O157  1  0.97970394  0.33779154  0.62620415  1
  O  O158  1  0.98570666  0.64832544  0.11734354  1
  O  O159  1  0.96874562  0.65188964  0.62247986  1
  O  O160  1  0.98630382  0.99596921  0.12031244  1
  O  O161  1  0.96757649  1.00326071  0.61855306  1
  O  O162  1  0.20126047  0.15844617  0.13432113  1
  O  O163  1  0.19328603  0.16428204  0.62175049  1
  O  O164  1  0.18803743  0.50253421  0.12272770  1
  O  O165  1  0.20190277  0.49636301  0.63015460  1
  O  O166  1  0.20368439  0.81879870  0.12116201  1
  O  O167  1  0.20793776  0.81791460  0.62415654  1
  O  O168  1  0.52482340  0.16651849  0.12699418  1
  O  O169  1  0.53145982  0.17192466  0.62537942  1
  O  O170  1  0.53196969  0.48914146  0.12587669  1
  O  O171  1  0.54085369  0.47839898  0.62370891  1
  O  O172  1  0.50823617  0.83704091  0.11824151  1
  O  O173  1  0.51699123  0.83893234  0.62628962  1
  O  O174  1  0.85172475  0.16780095  0.12566018  1
  O  O175  1  0.85372296  0.15322675  0.62914414  1
  O  O176  1  0.86512843  0.49406305  0.12023460  1
  O  O177  1  0.86909489  0.49279591  0.63184354  1
  O  O178  1  0.87107768  0.82918526  0.12135896  1
  O  O179  1  0.85196527  0.82584476  0.63001692  1
  O  O180  1  0.13096397  0.17428990  0.37493686  1
  O  O181  1  0.13741050  0.16627459  0.87066221  1
  O  O182  1  0.14699428  0.51144443  0.36637931  1
  O  O183  1  0.14553966  0.51364228  0.87477085  1
  O  O184  1  0.15100474  0.84782906  0.37324339  1
  O  O185  1  0.14883990  0.83295698  0.88473671  1
  O  O186  1  0.47861054  0.17416665  0.37617416  1
  O  O187  1  0.47631641  0.16445662  0.87469020  1
  O  O188  1  0.46391928  0.50866786  0.36709700  1
  O  O189  1  0.46223997  0.50135672  0.88385336  1
  O  O190  1  0.47680558  0.84500844  0.38310207  1
  O  O191  1  0.46171613  0.83486284  0.87181633  1
  O  O192  1  0.81358892  0.18946162  0.37872052  1
  O  O193  1  0.81977158  0.17479226  0.86932341  1
  O  O194  1  0.80079630  0.49642138  0.36705852  1
  O  O195  1  0.80378643  0.51000370  0.87370008  1
  O  O196  1  0.79968791  0.83688732  0.37782245  1
  O  O197  1  0.81925370  0.83542316  0.86907689  1
  O  O198  1  0.03773512  0.01214472  0.38137464  1
  O  O199  1  0.02034059  0.00984082  0.87990214  1
  O  O200  1  0.03233194  0.34009987  0.38103180  1
  O  O201  1  0.02100280  0.32859467  0.87149311  1
  O  O202  1  0.03566049  0.66519846  0.38206279  1
  O  O203  1  0.03371624  0.66950048  0.87846759  1
  O  O204  1  0.36877247  0.00758185  0.36772245  1
  O  O205  1  0.35074711  -0.00417302  0.87876879  1
  O  O206  1  0.36774700  0.34354436  0.37406697  1
  O  O207  1  0.35017137  0.34874030  0.87467196  1
  O  O208  1  0.36783076  0.66756292  0.36570864  1
  O  O209  1  0.35036470  0.67600110  0.88229045  1
  O  O210  1  0.67695541  -0.00634178  0.38515523  1
  O  O211  1  0.68076930  -0.00069572  0.87887620  1
  O  O212  1  0.69643585  0.34367816  0.37037525  1
  O  O213  1  0.70423414  0.34966917  0.87593706  1
  O  O214  1  0.67931567  0.68346535  0.37495385  1
  O  O215  1  0.70095046  0.66462246  0.87501158  1
  O  O216  1  0.08178718  0.08454248  0.02544092  1
  O  O217  1  0.07090625  0.09724333  0.51778573  1
  O  O218  1  0.06907288  0.43739214  0.01816670  1
  O  O219  1  0.06528538  0.43050077  0.52350860  1
  O  O220  1  0.07100861  0.76049435  0.02922773  1
  O  O221  1  0.07615151  0.74869958  0.52608835  1
  O  O222  1  0.39858857  0.09456301  0.02317553  1
  O  O223  1  0.40270601  0.10755756  0.52532452  1
  O  O224  1  0.42052966  0.41934545  0.02759026  1
  O  O225  1  0.39854887  0.43120748  0.52816520  1
  O  O226  1  0.39264157  0.76868519  0.01798210  1
  O  O227  1  0.39971846  0.77333230  0.52626344  1
  O  O228  1  0.74119398  0.08318872  0.00980504  1
  O  O229  1  0.73176621  0.09220221  0.52466035  1
  O  O230  1  0.74108831  0.43546495  0.02315331  1
  O  O231  1  0.73027065  0.43500210  0.52348691  1
  O  O232  1  0.74311999  0.75615545  0.01759517  1
  O  O233  1  0.74536727  0.75481536  0.52390374  1
  O  O234  1  0.08900521  0.26470728  0.01354180  1
  O  O235  1  0.09717560  0.26665581  0.51264360  1
  O  O236  1  0.10103073  0.60004668  0.02055546  1
  O  O237  1  0.09326698  0.59271481  0.52812845  1
  O  O238  1  0.09905327  0.92333446  0.03212341  1
  O  O239  1  0.08776072  0.92833557  0.51607719  1
  O  O240  1  0.43054955  0.25371567  0.02795356  1
  O  O241  1  0.44134643  0.26530565  0.51546539  1
  O  O242  1  0.42341976  0.59331398  0.01899199  1
  O  O243  1  0.42666029  0.59167973  0.52151552  1
  O  O244  1  0.41899204  0.92467022  0.02000386  1
  O  O245  1  0.42919806  0.92907081  0.51700895  1
  O  O246  1  0.76213526  0.26015632  0.00544903  1
  O  O247  1  0.74984790  0.25342223  0.53095106  1
  O  O248  1  0.76481366  0.58604124  0.01507448  1
  O  O249  1  0.76448512  0.59346018  0.53051944  1
  O  O250  1  0.74990875  0.92472103  0.01097065  1
  O  O251  1  0.76062765  0.93928956  0.52714893  1
  O  O252  1  0.23602835  0.06940011  0.27509273  1
  O  O253  1  0.23650019  0.07283508  0.76731096  1
  O  O254  1  0.23480212  0.41011268  0.27499089  1
  O  O255  1  0.24153774  0.41477720  0.77007546  1
  O  O256  1  0.23633339  0.72398107  0.26954634  1
  O  O257  1  0.23764352  0.73593408  0.78391615  1
  O  O258  1  0.56082876  0.06989323  0.27253718  1
  O  O259  1  0.57410601  0.08099090  0.76281727  1
  O  O260  1  0.56496926  0.40276337  0.27451941  1
  O  O261  1  0.57946803  0.41140435  0.78741914  1
  O  O262  1  0.55891866  0.73153888  0.27216313  1
  O  O263  1  0.56683051  0.74844857  0.76591475  1
  O  O264  1  0.92179994  0.08599243  0.27755805  1
  O  O265  1  0.90938924  0.08100179  0.76875751  1
  O  O266  1  0.89758878  0.40535717  0.26942124  1
  O  O267  1  0.90052343  0.39974741  0.77418375  1
  O  O268  1  0.90844725  0.73537746  0.27093701  1
  O  O269  1  0.89851594  0.73485216  0.76808338  1
  O  O270  1  0.25110380  0.24338693  0.27817950  1
  O  O271  1  0.25688478  0.23448718  0.76259694  1
  O  O272  1  0.26851468  0.56633761  0.27537758  1
  O  O273  1  0.25891388  0.56793107  0.77729162  1
  O  O274  1  0.26387686  0.91527530  0.26674024  1
  O  O275  1  0.27117665  0.90264818  0.76852470  1
  O  O276  1  0.59047617  0.24336485  0.27488159  1
  O  O277  1  0.59066311  0.23670078  0.76728178  1
  O  O278  1  0.58932126  0.56387584  0.27742268  1
  O  O279  1  0.60001817  0.56860030  0.77609493  1
  O  O280  1  0.58818663  0.90366247  0.27429336  1
  O  O281  1  0.58470086  0.90706015  0.76395203  1
  O  O282  1  0.92861245  0.24847577  0.27850133  1
  O  O283  1  0.92888501  0.23933394  0.77569989  1
  O  O284  1  0.92442880  0.56299382  0.25481305  1
  O  O285  1  0.92387984  0.57094480  0.77166392  1
  O  O286  1  0.93387839  0.90554466  0.26073252  1
  O  O287  1  0.92154037  0.90552083  0.76286897  1
  O  O288  1  0.24967151  0.23769601  0.47566140  1
  O  O289  1  0.26127182  0.23821674  0.98939217  1
  O  O290  1  0.26378340  0.56639680  0.46986800  1
  O  O291  1  0.26221679  0.57310622  0.97239426  1
  O  O292  1  0.25833421  0.91593527  0.48517774  1
  O  O293  1  0.26752102  0.89393704  0.98429112  1
  O  O294  1  0.59027277  0.23480569  0.48243995  1
  O  O295  1  0.58809647  0.23954309  0.98815604  1
  O  O296  1  0.59510206  0.56818299  0.46478528  1
  O  O297  1  0.58982974  0.56834836  0.97524211  1
  O  O298  1  0.59506037  0.90169568  0.47724292  1
  O  O299  1  0.58446667  0.90890581  0.97994837  1
  O  O300  1  0.93411188  0.24456268  0.47813094  1
  O  O301  1  0.93278554  0.24549660  0.97200665  1
  O  O302  1  0.93094792  0.57515744  0.48406956  1
  O  O303  1  0.92969112  0.57170698  0.97495862  1
  O  O304  1  0.92831649  0.91735465  0.48096437  1
  O  O305  1  0.93273262  0.91261828  0.98724973  1
  O  O306  1  0.22894470  0.07418406  0.47441518  1
  O  O307  1  0.24100652  0.06638089  0.99331616  1
  O  O308  1  0.23654004  0.40084472  0.46774269  1
  O  O309  1  0.24261824  0.41952882  0.98140342  1
  O  O310  1  0.23280862  0.72829262  0.47152650  1
  O  O311  1  0.23182489  0.73033475  0.97880130  1
  O  O312  1  0.56326640  0.06452127  0.47991392  1
  O  O313  1  0.57288274  0.07493207  0.98274243  1
  O  O314  1  0.56796273  0.39983320  0.46055180  1
  O  O315  1  0.57596161  0.41654630  0.98208236  1
  O  O316  1  0.56043642  0.74222156  0.47963491  1
  O  O317  1  0.56633544  0.74942443  0.98200226  1
  O  O318  1  0.91546127  0.07969021  0.47519102  1
  O  O319  1  0.92507705  0.08106929  0.97844586  1
  O  O320  1  0.90463588  0.39782965  0.47665714  1
  O  O321  1  0.90160202  0.40314213  0.97297909  1
  O  O322  1  0.91405620  0.73762074  0.48976902  1
  O  O323  1  0.90936638  0.72736487  0.97199104  1
  O  O324  1  0.09985108  0.25855477  0.23656406  1
  O  O325  1  0.09548671  0.26203580  0.73322545  1
  O  O326  1  0.10582996  0.60004621  0.22894746  1
  O  O327  1  0.09836348  0.58805706  0.72276078  1
  O  O328  1  0.10131487  0.93060920  0.22329826  1
  O  O329  1  0.09275474  0.92340830  0.73499943  1
  O  O330  1  0.43340435  0.26018326  0.22853916  1
  O  O331  1  0.43306250  0.25700389  0.72939932  1
  O  O332  1  0.43147095  0.59478217  0.22895620  1
  O  O333  1  0.42097967  0.58775499  0.72820788  1
  O  O334  1  0.41957666  0.92957296  0.23129869  1
  O  O335  1  0.42231978  0.92986930  0.72869658  1
  O  O336  1  0.75450484  0.27112015  0.23568473  1
  O  O337  1  0.75879657  0.25255640  0.73254406  1
  O  O338  1  0.75610746  0.58071784  0.22677443  1
  O  O339  1  0.77190688  0.59269581  0.72433340  1
  O  O340  1  0.75567449  0.92290663  0.23306442  1
  O  O341  1  0.76720124  0.92810570  0.72903672  1
  O  O342  1  0.08674641  0.09337443  0.22791252  1
  O  O343  1  0.07374552  0.09880023  0.73748638  1
  O  O344  1  0.07098914  0.44086658  0.22584195  1
  O  O345  1  0.07058835  0.43173796  0.72533684  1
  O  O346  1  0.07390174  0.76167882  0.21606220  1
  O  O347  1  0.08120727  0.74962735  0.72095151  1
  O  O348  1  0.40032851  0.10205902  0.22334735  1
  O  O349  1  0.40134693  0.10083487  0.73266416  1
  O  O350  1  0.41371297  0.42518474  0.22514748  1
  O  O351  1  0.40876579  0.42370310  0.71498832  1
  O  O352  1  0.39011887  0.76158315  0.22368414  1
  O  O353  1  0.39867552  0.77135531  0.72937371  1
  O  O354  1  0.74133343  0.09106210  0.24485624  1
  O  O355  1  0.74516612  0.09451220  0.72572009  1
  O  O356  1  0.72637683  0.43315454  0.22777787  1
  O  O357  1  0.74163420  0.43679948  0.72683183  1
  O  O358  1  0.73350523  0.75994462  0.23523822  1
  O  O359  1  0.74682711  0.75890958  0.72985295  1
