# generated using pymatgen
data_BaLaInIrO6
_symmetry_space_group_name_H-M   'P 1'
_cell_length_a   17.51560593
_cell_length_b   17.54560136
_cell_length_c   16.50372552
_cell_angle_alpha   89.97646605
_cell_angle_beta   89.99440584
_cell_angle_gamma   89.96698000
_symmetry_Int_Tables_number   1
_chemical_formula_structural   BaLaInIrO6
_chemical_formula_sum   'Ba36 La36 In36 Ir36 O216'
_cell_volume   5071.95398640
_cell_formula_units_Z   36
loop_
 _symmetry_equiv_pos_site_id
 _symmetry_equiv_pos_as_xyz
  1  'x, y, z'
loop_
 _atom_site_type_symbol
 _atom_site_label
 _atom_site_symmetry_multiplicity
 _atom_site_fract_x
 _atom_site_fract_y
 _atom_site_fract_z
 _atom_site_occupancy
  Ba  Ba0  1  1.00147928  0.84360520  0.11912442  1
  Ba  Ba1  1  0.17056079  0.67431685  0.61979505  1
  Ba  Ba2  1  0.66038192  0.48830662  0.38235986  1
  Ba  Ba3  1  0.49584653  0.99365311  0.37645410  1
  Ba  Ba4  1  0.16664333  0.01007670  0.12253677  1
  Ba  Ba5  1  0.66564885  0.48850137  0.87474026  1
  Ba  Ba6  1  -0.00467963  0.48970108  0.87672199  1
  Ba  Ba7  1  0.33557536  0.82632514  0.37057621  1
  Ba  Ba8  1  0.49679522  0.34195966  0.12832865  1
  Ba  Ba9  1  0.33568702  0.83926266  0.61890825  1
  Ba  Ba10  1  0.67117895  0.50761374  0.12956713  1
  Ba  Ba11  1  0.83106474  0.32582944  0.37320150  1
  Ba  Ba12  1  0.16316141  0.67171637  0.12215544  1
  Ba  Ba13  1  0.32929875  0.16042344  0.37792897  1
  Ba  Ba14  1  1.00182422  0.17198705  0.12731893  1
  Ba  Ba15  1  0.33425671  0.51366308  0.62117628  1
  Ba  Ba16  1  0.83557611  0.32581705  0.87672030  1
  Ba  Ba17  1  0.50113335  0.32464853  0.37896587  1
  Ba  Ba18  1  0.83484731  0.66952649  0.12483118  1
  Ba  Ba19  1  0.00042639  0.49090776  0.37701202  1
  Ba  Ba20  1  0.82949789  0.01488215  0.62683565  1
  Ba  Ba21  1  0.49562708  0.65990837  0.37741406  1
  Ba  Ba22  1  0.99823965  0.50340833  0.12552470  1
  Ba  Ba23  1  0.33132808  0.84449705  0.12171066  1
  Ba  Ba24  1  0.83269560  0.33877298  0.12721449  1
  Ba  Ba25  1  0.33012384  0.49340167  0.38312002  1
  Ba  Ba26  1  0.49635235  0.01077753  0.61988439  1
  Ba  Ba27  1  0.83359977  0.65433333  0.87461682  1
  Ba  Ba28  1  0.49732660  0.67503406  0.62216762  1
  Ba  Ba29  1  0.33356541  0.49104577  0.86578019  1
  Ba  Ba30  1  0.16583597  0.33624145  0.13018885  1
  Ba  Ba31  1  0.00001697  0.16007540  0.37397276  1
  Ba  Ba32  1  0.49836849  0.01044453  0.12846963  1
  Ba  Ba33  1  0.33553982  0.17760376  0.12634660  1
  Ba  Ba34  1  0.83335366  0.00562501  0.12725732  1
  Ba  Ba35  1  0.66537430  0.17580670  0.62315810  1
  La  La36  1  0.16822307  0.64940712  0.87427564  1
  La  La37  1  0.34356243  0.18505453  0.62292821  1
  La  La38  1  0.17309178  0.98604591  0.37014610  1
  La  La39  1  0.66715089  0.15329875  0.87520592  1
  La  La40  1  -0.00086043  0.81767906  0.87487637  1
  La  La41  1  0.50620310  0.31759951  0.87444309  1
  La  La42  1  0.33983535  0.50556390  0.13386422  1
  La  La43  1  0.16462821  0.34992977  0.62704787  1
  La  La44  1  1.00026102  0.18803452  0.62916759  1
  La  La45  1  0.65628376  0.82056878  0.36941120  1
  La  La46  1  0.33170182  0.15265870  0.87721852  1
  La  La47  1  0.17048898  0.31884116  0.87439316  1
  La  La48  1  0.66367475  0.81386594  0.87472902  1
  La  La49  1  0.17320660  0.98492321  0.87813404  1
  La  La50  1  0.50518741  0.64784539  0.87179003  1
  La  La51  1  0.33352542  0.81972510  0.87394018  1
  La  La52  1  0.67129339  0.84795083  0.62415912  1
  La  La53  1  0.83985009  0.98659689  0.87560150  1
  La  La54  1  0.67450304  0.18012562  0.12667075  1
  La  La55  1  0.49586792  0.67562091  0.12294826  1
  La  La56  1  0.66492930  0.51349981  0.62623529  1
  La  La57  1  0.00156732  0.82402196  0.37285419  1
  La  La58  1  0.83389203  0.64859948  0.37429460  1
  La  La59  1  0.17146080  0.32000751  0.37385507  1
  La  La60  1  -0.00080264  0.15450253  0.87658971  1
  La  La61  1  0.50220114  0.98234596  0.87745712  1
  La  La62  1  0.49574575  0.34884212  0.62377473  1
  La  La63  1  1.00150023  0.51565750  0.62870243  1
  La  La64  1  0.66150003  0.15457911  0.37774757  1
  La  La65  1  1.00718502  0.84393186  0.62493197  1
  La  La66  1  0.17508430  0.65112114  0.37072722  1
  La  La67  1  0.82772783  0.34593012  0.62213801  1
  La  La68  1  0.82743027  0.67847717  0.62411051  1
  La  La69  1  0.67447088  0.84636755  0.12543268  1
  La  La70  1  0.83581676  0.98806897  0.37650329  1
  La  La71  1  0.16470754  0.01075663  0.62039360  1
  In  In72  1  0.00161403  0.00164039  0.74826581  1
  In  In73  1  0.16529984  0.16742565  0.50752759  1
  In  In74  1  0.33114800  0.66872604  0.24651083  1
  In  In75  1  0.33527547  0.33684316  -0.00214016  1
  In  In76  1  0.66752931  -0.00124313  0.75404037  1
  In  In77  1  0.83122242  0.49792549  0.00107940  1
  In  In78  1  0.66456795  0.33220714  0.25469800  1
  In  In79  1  0.49988507  0.49912367  0.00092709  1
  In  In80  1  0.83350050  0.16898043  0.49959113  1
  In  In81  1  -0.00113502  0.67033903  0.50030543  1
  In  In82  1  0.00141960  0.66805115  0.25392590  1
  In  In83  1  0.50160571  0.83389776  0.74759652  1
  In  In84  1  0.00100506  0.66499471  -0.00090234  1
  In  In85  1  0.66845806  0.66694114  0.49901932  1
  In  In86  1  0.50091457  0.16524017  0.00085981  1
  In  In87  1  0.66551171  0.33049708  -0.00085496  1
  In  In88  1  0.16960986  0.16581612  0.74827048  1
  In  In89  1  -0.00159118  0.00058937  0.49933662  1
  In  In90  1  0.16559764  0.16419992  0.25141245  1
  In  In91  1  0.33540869  0.33404688  0.25467838  1
  In  In92  1  0.50271497  0.83415324  0.24290858  1
  In  In93  1  0.33480602  0.66737990  0.74983788  1
  In  In94  1  0.83539881  0.83281628  0.74813052  1
  In  In95  1  0.17126020  0.49548038  -0.00308898  1
  In  In96  1  0.49809869  0.16546255  0.75014804  1
  In  In97  1  0.33353696  0.00108453  0.24836687  1
  In  In98  1  0.83551626  0.16323478  -0.00018333  1
  In  In99  1  0.33400500  -0.00019461  0.74881715  1
  In  In100  1  0.83258357  0.49856112  0.74647806  1
  In  In101  1  0.16781505  0.49718952  0.24929104  1
  In  In102  1  0.83129608  0.82968500  0.25465948  1
  In  In103  1  0.33578486  0.66545253  -0.00329705  1
  In  In104  1  0.16832431  0.83275047  0.74971430  1
  In  In105  1  0.66685909  -0.00046243  0.49824940  1
  In  In106  1  0.83157267  0.83177087  -0.00143017  1
  In  In107  1  -0.00237807  0.33271541  0.25143395  1
  Ir  Ir108  1  0.49986809  0.49805048  0.50119874  1
  Ir  Ir109  1  0.83520866  0.49758912  0.50227648  1
  Ir  Ir110  1  0.50340538  0.50439295  0.25306078  1
  Ir  Ir111  1  0.16528832  0.16500341  -0.00640676  1
  Ir  Ir112  1  0.33076081  0.66923188  0.49769310  1
  Ir  Ir113  1  0.50322165  0.83326252  0.49610672  1
  Ir  Ir114  1  0.00568536  0.32864973  -0.00455862  1
  Ir  Ir115  1  0.33647702  0.00054130  -0.00375743  1
  Ir  Ir116  1  0.82995252  0.50118974  0.25698648  1
  Ir  Ir117  1  -0.00000206  0.33632301  0.50836173  1
  Ir  Ir118  1  0.16535094  0.83726612  -0.00360867  1
  Ir  Ir119  1  0.83002531  0.16137649  0.25155684  1
  Ir  Ir120  1  0.66672422  -0.00155147  -0.00011795  1
  Ir  Ir121  1  0.00569360  0.00151013  -0.00442510  1
  Ir  Ir122  1  0.50555896  0.16439101  0.25434975  1
  Ir  Ir123  1  0.33540889  0.33622955  0.74913327  1
  Ir  Ir124  1  0.50288576  0.83468781  -0.00246971  1
  Ir  Ir125  1  0.00067573  -0.00233085  0.25221835  1
  Ir  Ir126  1  0.16220009  0.49883527  0.50665121  1
  Ir  Ir127  1  0.16141946  0.49848355  0.74557059  1
  Ir  Ir128  1  0.83208975  0.83065783  0.49873636  1
  Ir  Ir129  1  0.50189863  0.49565228  0.74641611  1
  Ir  Ir130  1  0.00059224  0.33222586  0.74819525  1
  Ir  Ir131  1  0.66534489  0.66611127  0.24810252  1
  Ir  Ir132  1  0.32753124  -0.00373494  0.50008862  1
  Ir  Ir133  1  0.49773199  0.16871008  0.49860569  1
  Ir  Ir134  1  0.65975934  0.66937590  -0.00002736  1
  Ir  Ir135  1  0.83398760  0.17036117  0.75273803  1
  Ir  Ir136  1  0.66904296  0.00127571  0.24823835  1
  Ir  Ir137  1  0.16064309  0.83644546  0.24939350  1
  Ir  Ir138  1  0.66411083  0.33419920  0.50649847  1
  Ir  Ir139  1  -0.00046793  0.66735875  0.74564487  1
  Ir  Ir140  1  0.16578307  0.83701910  0.49750357  1
  Ir  Ir141  1  0.66570031  0.33076272  0.74546287  1
  Ir  Ir142  1  0.33079249  0.33590207  0.50580629  1
  Ir  Ir143  1  0.66447657  0.66462843  0.74843661  1
  O  O144  1  0.32003066  0.34062929  0.12698581  1
  O  O145  1  0.30174407  0.32732703  0.62875672  1
  O  O146  1  0.31505087  0.64675846  0.12080000  1
  O  O147  1  0.32044687  0.67085279  0.61976699  1
  O  O148  1  0.31778626  1.00063598  0.11634152  1
  O  O149  1  0.30085394  0.99244679  0.62013080  1
  O  O150  1  0.64646227  0.31707663  0.12865792  1
  O  O151  1  0.63433366  0.32997067  0.62660711  1
  O  O152  1  0.63169698  0.66314397  0.12408540  1
  O  O153  1  0.64767556  0.65547671  0.62779111  1
  O  O154  1  0.64389846  0.98318430  0.12379740  1
  O  O155  1  0.64641893  0.98636156  0.62526770  1
  O  O156  1  0.98607682  0.32474095  0.11587153  1
  O  O157  1  0.96529161  0.32776787  0.62857717  1
  O  O158  1  0.98690966  0.67186004  0.12718479  1
  O  O159  1  0.96671131  0.66443207  0.62559262  1
  O  O160  1  0.97982386  0.99696730  0.12313051  1
  O  O161  1  0.97426350  0.97542166  0.62385323  1
  O  O162  1  0.18365727  0.16564174  0.11450239  1
  O  O163  1  0.20865545  0.15106013  0.62719225  1
  O  O164  1  0.20420415  0.49355931  0.12216070  1
  O  O165  1  0.18638933  0.48828340  0.62629801  1
  O  O166  1  0.18356137  0.82658871  0.12542500  1
  O  O167  1  0.18435360  0.83028825  0.61752247  1
  O  O168  1  0.53426970  0.16469015  0.13284323  1
  O  O169  1  0.51291025  0.16829422  0.61903233  1
  O  O170  1  0.51966334  0.50395585  0.13310086  1
  O  O171  1  0.52913716  0.48888226  0.62394259  1
  O  O172  1  0.53869246  0.82323812  0.11524753  1
  O  O173  1  0.53315585  0.83414051  0.61749093  1
  O  O174  1  0.85106901  0.15950982  0.13137781  1
  O  O175  1  0.86346526  0.16862564  0.63258522  1
  O  O176  1  0.84507395  0.50274787  0.13621331  1
  O  O177  1  0.86439612  0.48728457  0.62051066  1
  O  O178  1  0.84602378  0.83094879  0.12618567  1
  O  O179  1  0.86934683  0.81873374  0.61830574  1
  O  O180  1  0.15043756  0.17942367  0.38376704  1
  O  O181  1  0.13610302  0.17506553  0.87387965  1
  O  O182  1  0.14872315  0.50937993  0.38871875  1
  O  O183  1  0.14263975  0.50775764  0.86204869  1
  O  O184  1  0.13620225  0.84970497  0.37352853  1
  O  O185  1  0.13511903  0.84885609  0.87794196  1
  O  O186  1  0.47991431  0.16470878  0.37686401  1
  O  O187  1  0.46587475  0.18010145  0.87289455  1
  O  O188  1  0.48071192  0.50321077  0.37838520  1
  O  O189  1  0.48652613  0.50705435  0.86654178  1
  O  O190  1  0.48883952  0.83147095  0.37607566  1
  O  O191  1  0.47086355  0.84374759  0.88094787  1
  O  O192  1  0.80102064  0.16659742  0.36990932  1
  O  O193  1  0.80445078  0.17125616  0.87083381  1
  O  O194  1  0.80840530  0.50943374  0.38180873  1
  O  O195  1  0.81761476  0.49721000  0.87078274  1
  O  O196  1  0.79284664  0.84343422  0.38179318  1
  O  O197  1  0.79903179  0.84450266  0.87430045  1
  O  O198  1  0.03218208  -0.00183141  0.37161049  1
  O  O199  1  0.03537197  0.01390908  0.87625761  1
  O  O200  1  0.03250124  0.33608819  0.39112249  1
  O  O201  1  0.03337823  0.33234281  0.86945051  1
  O  O202  1  0.03683627  0.68125348  0.38106991  1
  O  O203  1  0.03075620  0.67409537  0.86367791  1
  O  O204  1  0.34486553  -0.00110742  0.38162336  1
  O  O205  1  0.36534371  0.01161631  0.87893514  1
  O  O206  1  0.35200585  0.33462427  0.38708954  1
  O  O207  1  0.37057858  0.33893793  0.86546156  1
  O  O208  1  0.34388547  0.66915631  0.37776395  1
  O  O209  1  0.37076280  0.68015205  0.87393234  1
  O  O210  1  0.69830674  0.01187617  0.36823500  1
  O  O211  1  0.70258077  0.01256717  0.88237138  1
  O  O212  1  0.68145174  0.33170592  0.38591847  1
  O  O213  1  0.68555843  0.33352659  0.86308164  1
  O  O214  1  0.69633558  0.67893845  0.37047906  1
  O  O215  1  0.68560933  0.67627570  0.87578436  1
  O  O216  1  0.06904226  0.09897924  0.01053218  1
  O  O217  1  0.06785959  0.09712691  0.53740707  1
  O  O218  1  0.07304794  0.41835331  0.01220064  1
  O  O219  1  0.07083382  0.42835967  0.53663376  1
  O  O220  1  0.07532708  0.76845067  0.00296412  1
  O  O221  1  0.06530711  0.77750947  0.51636409  1
  O  O222  1  0.40115475  0.09455680  0.01242051  1
  O  O223  1  0.39591785  0.09668558  0.52255743  1
  O  O224  1  0.39322817  0.44569369  0.01924511  1
  O  O225  1  0.40933877  0.42234297  0.52615624  1
  O  O226  1  0.41342680  0.76712771  0.02095477  1
  O  O227  1  0.41173340  0.75963612  0.51334895  1
  O  O228  1  0.72804933  0.09318784  0.02290130  1
  O  O229  1  0.73794164  0.09633372  0.51189707  1
  O  O230  1  0.74081924  0.42262448  0.01613579  1
  O  O231  1  0.73521570  0.42885422  0.53230371  1
  O  O232  1  0.72367298  0.76531242  0.01661817  1
  O  O233  1  0.74293261  0.76186725  0.53387548  1
  O  O234  1  0.10282538  0.26275795  0.00561449  1
  O  O235  1  0.08972935  0.26698762  0.53940242  1
  O  O236  1  0.09684352  0.59244832  0.00220199  1
  O  O237  1  0.08581183  0.58459703  0.52804441  1
  O  O238  1  0.09940188  0.93373551  0.01212610  1
  O  O239  1  0.10241687  0.93178075  0.52075229  1
  O  O240  1  0.43164896  0.26531877  0.01024039  1
  O  O241  1  0.42475454  0.26429006  0.52873128  1
  O  O242  1  0.44255952  0.60663072  0.01205650  1
  O  O243  1  0.42715217  0.59212399  0.51544105  1
  O  O244  1  0.43627284  0.93414430  0.01204810  1
  O  O245  1  0.42731882  0.92522571  0.51483438  1
  O  O246  1  0.75718843  0.25048263  0.01974980  1
  O  O247  1  0.76056723  0.27016366  0.52413482  1
  O  O248  1  0.74947537  0.60044829  0.01496059  1
  O  O249  1  0.76722266  0.59181099  0.52507893  1
  O  O250  1  0.75583937  0.92950840  0.01739108  1
  O  O251  1  0.76408983  0.91930148  0.52263794  1
  O  O252  1  0.23655968  0.06847675  0.27226242  1
  O  O253  1  0.23532920  0.06794623  0.78269925  1
  O  O254  1  0.23621483  0.40194808  0.28296487  1
  O  O255  1  0.22954992  0.40053357  0.76630962  1
  O  O256  1  0.22709217  0.74272673  0.26917779  1
  O  O257  1  0.23489839  0.73591668  0.77984386  1
  O  O258  1  0.58117079  0.07432156  0.27499902  1
  O  O259  1  0.57154927  0.07093353  0.78235408  1
  O  O260  1  0.57171032  0.41349909  0.26744206  1
  O  O261  1  0.56476163  0.39327175  0.76301298  1
  O  O262  1  0.57930562  0.73833116  0.26605980  1
  O  O263  1  0.57219894  0.73158780  0.77535549  1
  O  O264  1  0.90043222  0.06475390  0.27632475  1
  O  O265  1  0.90046634  0.07545578  0.78005200  1
  O  O266  1  0.90364375  0.41294302  0.26777352  1
  O  O267  1  0.90843061  0.39862417  0.76040118  1
  O  O268  1  0.90469919  0.74002648  0.29026917  1
  O  O269  1  0.90964354  0.73672739  0.76838348  1
  O  O270  1  0.25606761  0.24352714  0.26762710  1
  O  O271  1  0.26733173  0.24372285  0.77758443  1
  O  O272  1  0.25901984  0.57617184  0.27130283  1
  O  O273  1  0.24910692  0.57464223  0.76190449  1
  O  O274  1  0.25032390  0.90629530  0.26390990  1
  O  O275  1  0.26657883  0.90148663  0.78185610  1
  O  O276  1  0.59747223  0.22968489  0.27524380  1
  O  O277  1  0.59906448  0.23743366  0.77392372  1
  O  O278  1  0.59627655  0.57491895  0.27210980  1
  O  O279  1  0.59809649  0.56574626  0.76200824  1
  O  O280  1  0.60387548  0.90528421  0.26721556  1
  O  O281  1  0.60079455  0.89792912  0.78108055  1
  O  O282  1  0.91670978  0.23620101  0.26765906  1
  O  O283  1  0.93814105  0.23226997  0.77065869  1
  O  O284  1  0.91506985  0.57808213  0.27626708  1
  O  O285  1  0.93313918  0.57401615  0.75525386  1
  O  O286  1  0.92773957  0.90977051  0.27977042  1
  O  O287  1  0.93098270  0.90536027  0.78253464  1
  O  O288  1  0.25893589  0.24880490  0.49010618  1
  O  O289  1  0.25916747  0.23112242  0.97001148  1
  O  O290  1  0.24898528  0.58190214  0.48219557  1
  O  O291  1  0.25519291  0.58127276  0.96257895  1
  O  O292  1  0.25910129  0.90390472  0.47482849  1
  O  O293  1  0.26559610  0.90653409  0.97127857  1
  O  O294  1  0.59681515  0.23554445  0.47911509  1
  O  O295  1  0.59794446  0.23138391  0.96834941  1
  O  O296  1  0.59232604  0.56926957  0.49480909  1
  O  O297  1  0.59388319  0.57952935  0.97731335  1
  O  O298  1  0.59738026  0.90015534  0.47516802  1
  O  O299  1  0.59974143  0.90186515  0.97002653  1
  O  O300  1  0.93336083  0.24272835  0.49113484  1
  O  O301  1  0.93820349  0.23386064  0.97464315  1
  O  O302  1  0.92020748  0.57324230  0.48304976  1
  O  O303  1  0.92013826  0.57574768  0.98815211  1
  O  O304  1  0.92334238  0.89826053  0.46847863  1
  O  O305  1  0.93369673  0.91248337  0.96892831  1
  O  O306  1  0.23045544  0.05779395  0.48346531  1
  O  O307  1  0.23774473  0.06816723  0.97080428  1
  O  O308  1  0.23019739  0.40067722  0.48654728  1
  O  O309  1  0.23527456  0.39733928  0.96277528  1
  O  O310  1  0.23181927  0.73909709  0.47369891  1
  O  O311  1  0.23751607  0.74919651  0.96932593  1
  O  O312  1  0.57333602  0.08128449  0.47932326  1
  O  O313  1  0.57450637  0.06434585  0.97280564  1
  O  O314  1  0.56683966  0.40076170  0.49358407  1
  O  O315  1  0.56414226  0.39841047  0.97682326  1
  O  O316  1  0.57944065  0.74786216  0.47820867  1
  O  O317  1  0.56528586  0.73842892  0.97040863  1
  O  O318  1  0.90039138  0.06756300  0.47354570  1
  O  O319  1  0.90921136  0.06760300  0.97072791  1
  O  O320  1  0.90423518  0.40341239  0.48440277  1
  O  O321  1  0.91598694  0.39825373  0.98849842  1
  O  O322  1  0.89389407  0.73679735  0.47382211  1
  O  O323  1  0.91471970  0.74885323  0.96945623  1
  O  O324  1  0.08868534  0.25619435  0.24757022  1
  O  O325  1  0.09587015  0.26730141  0.72340537  1
  O  O326  1  0.09749309  0.59636999  0.24732073  1
  O  O327  1  0.08959616  0.59137805  0.71989414  1
  O  O328  1  0.09559033  0.93281916  0.23335814  1
  O  O329  1  0.10336662  0.93408708  0.72491951  1
  O  O330  1  0.43364816  0.25329907  0.23967336  1
  O  O331  1  0.42792637  0.27096901  0.72336009  1
  O  O332  1  0.43408510  0.59337057  0.22986774  1
  O  O333  1  0.43351114  0.58939939  0.73766821  1
  O  O334  1  0.42398018  0.92361804  0.23663416  1
  O  O335  1  0.43881906  0.93913956  0.74404081  1
  O  O336  1  0.75737813  0.24816864  0.23165752  1
  O  O337  1  0.76650592  0.26827634  0.72454328  1
  O  O338  1  0.76053289  0.59932979  0.24334652  1
  O  O339  1  0.75967780  0.59709095  0.72054882  1
  O  O340  1  0.75531882  0.92758172  0.23528616  1
  O  O341  1  0.76018724  0.92340162  0.72711912  1
  O  O342  1  0.06945564  0.08568108  0.23672612  1
  O  O343  1  0.06631021  0.10261414  0.72198585  1
  O  O344  1  0.07149377  0.42571845  0.23725625  1
  O  O345  1  0.06695812  0.42768901  0.71887311  1
  O  O346  1  0.06557946  0.77610186  0.24459937  1
  O  O347  1  0.06156700  0.76645259  0.73061121  1
  O  O348  1  0.41534805  0.09545891  0.23905931  1
  O  O349  1  0.39119383  0.10817647  0.73017872  1
  O  O350  1  0.40947212  0.43670075  0.23827424  1
  O  O351  1  0.40888164  0.42633657  0.72058911  1
  O  O352  1  0.41477517  0.75279829  0.22200818  1
  O  O353  1  0.40280921  0.76795837  0.73828668  1
  O  O354  1  0.73319095  0.09650545  0.22647391  1
  O  O355  1  0.74042017  0.10312315  0.73901831  1
  O  O356  1  0.74535599  0.42454143  0.24471199  1
  O  O357  1  0.73279428  0.42433921  0.71669906  1
  O  O358  1  0.72925517  0.76078481  0.22739030  1
  O  O359  1  0.73288604  0.75872141  0.72444598  1
