# generated using pymatgen
data_BaLaInIrO6
_symmetry_space_group_name_H-M   'P 1'
_cell_length_a   17.53939695
_cell_length_b   17.57070365
_cell_length_c   16.50310169
_cell_angle_alpha   90.04431731
_cell_angle_beta   89.98484009
_cell_angle_gamma   89.98471164
_symmetry_Int_Tables_number   1
_chemical_formula_structural   BaLaInIrO6
_chemical_formula_sum   'Ba36 La36 In36 Ir36 O216'
_cell_volume   5085.91650748
_cell_formula_units_Z   36
loop_
 _symmetry_equiv_pos_site_id
 _symmetry_equiv_pos_as_xyz
  1  'x, y, z'
loop_
 _atom_site_type_symbol
 _atom_site_label
 _atom_site_symmetry_multiplicity
 _atom_site_fract_x
 _atom_site_fract_y
 _atom_site_fract_z
 _atom_site_occupancy
  Ba  Ba0  1  0.49976284  0.00485126  0.12589012  1
  Ba  Ba1  1  -0.00093952  0.82890325  0.87569701  1
  Ba  Ba2  1  0.16969808  0.67565380  0.62408382  1
  Ba  Ba3  1  0.50551754  0.32107522  0.87701565  1
  Ba  Ba4  1  0.33091734  0.49359225  0.37367488  1
  Ba  Ba5  1  0.66494771  0.15262572  0.37460965  1
  Ba  Ba6  1  0.66850180  0.84532189  0.12482191  1
  Ba  Ba7  1  0.66402267  0.82090983  0.87317860  1
  Ba  Ba8  1  0.33557441  0.17012738  0.12466820  1
  Ba  Ba9  1  0.66629192  0.17331319  0.62471980  1
  Ba  Ba10  1  0.00173581  0.16519530  0.36963197  1
  Ba  Ba11  1  0.50094576  0.98939838  0.37144803  1
  Ba  Ba12  1  0.33331376  0.50774689  0.62156077  1
  Ba  Ba13  1  0.49950931  0.32399641  0.37419583  1
  Ba  Ba14  1  0.16936098  0.66019106  0.37250481  1
  Ba  Ba15  1  0.16370955  0.67616786  0.12425065  1
  Ba  Ba16  1  0.66577945  0.48095334  0.87497459  1
  Ba  Ba17  1  0.00158671  0.49521608  0.37553370  1
  Ba  Ba18  1  0.33281025  0.50590953  0.12637375  1
  Ba  Ba19  1  0.33606587  0.82741462  0.37283632  1
  Ba  Ba20  1  0.49503523  0.00437948  0.62296944  1
  Ba  Ba21  1  0.16282550  0.34209012  0.12116160  1
  Ba  Ba22  1  0.83581753  0.99293927  0.37892428  1
  Ba  Ba23  1  0.50074913  0.65997483  0.37687569  1
  Ba  Ba24  1  0.32945584  0.15188935  0.87537087  1
  Ba  Ba25  1  0.16548364  0.66475289  0.87434622  1
  Ba  Ba26  1  1.00034782  0.17378293  0.12356513  1
  Ba  Ba27  1  0.33131936  0.83836477  0.62368967  1
  Ba  Ba28  1  0.17051012  0.33000809  0.37031295  1
  Ba  Ba29  1  1.00211150  0.84441666  0.12315018  1
  Ba  Ba30  1  0.32998603  0.84469255  0.12763787  1
  Ba  Ba31  1  0.16713396  0.98991980  0.87944815  1
  Ba  Ba32  1  0.16743074  0.34363624  0.62798389  1
  Ba  Ba33  1  1.00195384  0.50792030  0.12382089  1
  Ba  Ba34  1  0.83469300  0.34215757  0.12717337  1
  Ba  Ba35  1  0.00037626  0.15544700  0.87640291  1
  La  La36  1  0.83999856  0.65390163  0.87756291  1
  La  La37  1  0.84272632  0.31826284  0.37324927  1
  La  La38  1  0.17102564  0.99401350  0.37145431  1
  La  La39  1  0.82859722  0.68321584  0.62353927  1
  La  La40  1  0.49779109  0.98808692  0.87693264  1
  La  La41  1  -0.00532537  0.48385866  0.87581029  1
  La  La42  1  0.82935306  0.68058750  0.12688979  1
  La  La43  1  0.84230569  0.98754305  0.87959408  1
  La  La44  1  0.49164504  0.68164898  0.62435706  1
  La  La45  1  0.49726789  0.34542705  0.62866622  1
  La  La46  1  0.49966273  0.34495298  0.12546104  1
  La  La47  1  0.66920022  0.17894547  0.12504713  1
  La  La48  1  1.01039722  0.51825141  0.62837457  1
  La  La49  1  0.82694495  0.01848314  0.12323522  1
  La  La50  1  0.33377679  0.48543495  0.87676148  1
  La  La51  1  0.50519808  0.65025337  0.87028541  1
  La  La52  1  0.66863268  0.85252025  0.61742801  1
  La  La53  1  0.66987755  0.51342245  0.62497590  1
  La  La54  1  1.00445131  0.17700551  0.62467307  1
  La  La55  1  0.83601366  0.65183798  0.37270958  1
  La  La56  1  0.16359944  0.01179311  0.63073937  1
  La  La57  1  0.67647970  0.51340458  0.13066144  1
  La  La58  1  0.49327656  0.68503666  0.12470649  1
  La  La59  1  0.16491061  0.00986947  0.12337711  1
  La  La60  1  0.82813129  0.34730255  0.62393745  1
  La  La61  1  0.83103670  0.01564831  0.62740051  1
  La  La62  1  0.66383116  0.15517179  0.87514594  1
  La  La63  1  0.83592178  0.31514619  0.87563859  1
  La  La64  1  1.00853378  0.85178846  0.63008834  1
  La  La65  1  0.65776016  0.82387272  0.37028620  1
  La  La66  1  -0.00111977  0.81854196  0.37556339  1
  La  La67  1  0.17256520  0.31929085  0.87740374  1
  La  La68  1  0.32806678  0.82509437  0.87490773  1
  La  La69  1  0.66001445  0.48162298  0.37537459  1
  La  La70  1  0.32947202  0.15329262  0.37655804  1
  La  La71  1  0.34121970  0.17849496  0.62232380  1
  In  In72  1  0.50483659  0.50128314  0.00182767  1
  In  In73  1  0.16321117  0.83813310  0.50116448  1
  In  In74  1  0.33626080  0.66443423  0.75408615  1
  In  In75  1  0.33511523  0.33221613  0.75123587  1
  In  In76  1  0.33692221  0.33093432  0.00003842  1
  In  In77  1  0.83208201  0.50089017  0.74845419  1
  In  In78  1  0.16638582  0.16410291  -0.00073743  1
  In  In79  1  0.16399019  0.83666150  0.24865313  1
  In  In80  1  -0.00248144  0.33572841  0.50262277  1
  In  In81  1  0.66902193  0.00013804  0.75191516  1
  In  In82  1  0.83194892  0.83375268  0.00124211  1
  In  In83  1  0.33396553  0.66856491  0.49689968  1
  In  In84  1  0.16861994  0.16656038  0.50345221  1
  In  In85  1  0.50044950  0.16360962  0.75100015  1
  In  In86  1  0.00199552  0.33521373  0.24752121  1
  In  In87  1  0.83120958  0.49867863  0.00243409  1
  In  In88  1  0.50291376  0.16516975  0.24893205  1
  In  In89  1  0.33657464  0.33118705  0.24623520  1
  In  In90  1  0.66716072  0.00037663  -0.00091142  1
  In  In91  1  -0.00615463  0.67107482  0.50484060  1
  In  In92  1  0.16534378  0.50435985  -0.00459522  1
  In  In93  1  0.66686532  0.33038252  0.50156002  1
  In  In94  1  0.50051196  0.83335855  0.75037456  1
  In  In95  1  0.83102097  0.83283857  0.74678535  1
  In  In96  1  -0.00023485  0.00016060  0.25143902  1
  In  In97  1  0.50525788  0.50361549  0.24930568  1
  In  In98  1  0.66433625  0.66647812  -0.00165129  1
  In  In99  1  -0.00409970  0.33203720  0.74976351  1
  In  In100  1  0.16576527  0.50124997  0.50160294  1
  In  In101  1  -0.00449594  0.66670251  0.24775224  1
  In  In102  1  0.16498958  0.50128131  0.75610702  1
  In  In103  1  0.33527014  0.33145143  0.49855634  1
  In  In104  1  0.66827975  0.66789691  0.50028754  1
  In  In105  1  0.00076904  0.00134951  0.50146408  1
  In  In106  1  0.83364277  0.16694504  0.50144743  1
  In  In107  1  0.83116614  0.83512043  0.25515709  1
  Ir  Ir108  1  0.16844914  0.83419328  -0.00336553  1
  Ir  Ir109  1  0.16502636  0.83630702  0.75363526  1
  Ir  Ir110  1  0.66525956  0.66400299  0.74410985  1
  Ir  Ir111  1  0.16796527  0.50401974  0.24642535  1
  Ir  Ir112  1  -0.00102239  0.33274843  -0.00431176  1
  Ir  Ir113  1  0.50740543  0.49964046  0.74632954  1
  Ir  Ir114  1  0.67111976  0.33170142  0.24929279  1
  Ir  Ir115  1  0.49463191  0.83407006  -0.00142177  1
  Ir  Ir116  1  -0.00216046  0.66779996  -0.00526635  1
  Ir  Ir117  1  -0.00439701  0.00168967  0.75282164  1
  Ir  Ir118  1  -0.00597978  0.66852050  0.75308201  1
  Ir  Ir119  1  0.33518713  0.66895435  0.24339642  1
  Ir  Ir120  1  0.16764224  0.16165566  0.74823701  1
  Ir  Ir121  1  0.33618547  -0.00281590  -0.00079213  1
  Ir  Ir122  1  0.66670694  0.66683670  0.25086172  1
  Ir  Ir123  1  0.82878312  0.16749579  0.24611622  1
  Ir  Ir124  1  0.33976442  0.67157782  0.00018712  1
  Ir  Ir125  1  0.66890917  0.00033667  0.25016652  1
  Ir  Ir126  1  0.66837398  0.33091783  0.74949771  1
  Ir  Ir127  1  0.33163253  -0.00074702  0.49899225  1
  Ir  Ir128  1  0.16906749  0.16287873  0.25070291  1
  Ir  Ir129  1  0.66772102  0.32746205  0.00226746  1
  Ir  Ir130  1  0.33310779  -0.00032194  0.25133854  1
  Ir  Ir131  1  0.50531184  0.83489222  0.49604120  1
  Ir  Ir132  1  0.50849707  0.49824905  0.50242157  1
  Ir  Ir133  1  0.82554031  0.50113297  0.25526511  1
  Ir  Ir134  1  0.32899230  -0.00090738  0.74778711  1
  Ir  Ir135  1  -0.00316988  0.00097315  0.00027523  1
  Ir  Ir136  1  0.50443658  0.16231380  -0.00072133  1
  Ir  Ir137  1  0.83117157  0.83330329  0.50175432  1
  Ir  Ir138  1  0.49986786  0.16248311  0.50116531  1
  Ir  Ir139  1  0.66710394  -0.00165687  0.49836589  1
  Ir  Ir140  1  0.50248056  0.83236210  0.24827741  1
  Ir  Ir141  1  0.82968422  0.16957063  -0.00062847  1
  Ir  Ir142  1  0.82997133  0.50061659  0.50163298  1
  Ir  Ir143  1  0.83315135  0.16693218  0.75361436  1
  O  O144  1  0.31076665  0.32773005  0.12293110  1
  O  O145  1  0.31870244  0.32014409  0.62617358  1
  O  O146  1  0.31339794  0.66732536  0.11999495  1
  O  O147  1  0.32553108  0.66470755  0.62650024  1
  O  O148  1  0.30393079  0.99782279  0.12706704  1
  O  O149  1  0.30019790  0.99357830  0.62397238  1
  O  O150  1  0.63682573  0.31967067  0.12562622  1
  O  O151  1  0.63508147  0.32810584  0.63070379  1
  O  O152  1  0.63216224  0.65403231  0.13190116  1
  O  O153  1  0.62881516  0.65573714  0.62633177  1
  O  O154  1  0.65093181  1.00480422  0.13015674  1
  O  O155  1  0.64608600  0.99488326  0.61872061  1
  O  O156  1  0.98347944  0.33425056  0.11824378  1
  O  O157  1  0.96009496  0.31560345  0.62822107  1
  O  O158  1  0.96731372  0.66392510  0.11568382  1
  O  O159  1  0.96262630  0.65729609  0.63421884  1
  O  O160  1  0.96558117  1.00162904  0.11976894  1
  O  O161  1  0.96581728  0.99176026  0.63443101  1
  O  O162  1  0.18542246  0.15590699  0.12918802  1
  O  O163  1  0.20229274  0.15431590  0.63213572  1
  O  O164  1  0.18041198  0.50527183  0.12460785  1
  O  O165  1  0.18008563  0.50560881  0.63170279  1
  O  O166  1  0.18111075  0.83530019  0.11605033  1
  O  O167  1  0.17963204  0.83636666  0.63489311  1
  O  O168  1  0.53475419  0.15707961  0.11726491  1
  O  O169  1  0.51889913  0.15608312  0.62012927  1
  O  O170  1  0.54308810  0.49273553  0.12562000  1
  O  O171  1  0.53820077  0.48629668  0.62432179  1
  O  O172  1  0.52246570  0.82329493  0.12347803  1
  O  O173  1  0.53147439  0.82727869  0.61829693  1
  O  O174  1  0.85203244  0.15588477  0.12171808  1
  O  O175  1  0.86531849  0.15624072  0.63513622  1
  O  O176  1  0.84927612  0.49781354  0.13479509  1
  O  O177  1  0.86756257  0.48770500  0.61998693  1
  O  O178  1  0.85166068  0.81734256  0.12735426  1
  O  O179  1  0.86879130  0.82249399  0.61987679  1
  O  O180  1  0.15362360  0.15970763  0.37144646  1
  O  O181  1  0.14814557  0.16749416  0.86789975  1
  O  O182  1  0.15391602  0.50159599  0.36703829  1
  O  O183  1  0.12526446  0.51166260  0.87531882  1
  O  O184  1  0.13099325  0.85492191  0.37583900  1
  O  O185  1  0.14813704  0.83373660  0.87537303  1
  O  O186  1  0.47036429  0.16676545  0.38165679  1
  O  O187  1  0.47902001  0.16725319  0.88162040  1
  O  O188  1  0.48719198  0.50221617  0.38220746  1
  O  O189  1  0.47412825  0.50970809  0.86712778  1
  O  O190  1  0.48391137  0.83460990  0.37188701  1
  O  O191  1  0.46694679  0.84476745  0.87957186  1
  O  O192  1  0.81252516  0.17761419  0.36752915  1
  O  O193  1  0.79888343  0.17697282  0.87624951  1
  O  O194  1  0.79312143  0.51366247  0.37995596  1
  O  O195  1  0.80987500  0.51877382  0.87518263  1
  O  O196  1  0.79428462  0.83748970  0.38467207  1
  O  O197  1  0.81239585  0.84775490  0.87302969  1
  O  O198  1  0.03299686  0.00962187  0.37739317  1
  O  O199  1  0.01830997  0.00146444  0.87531663  1
  O  O200  1  0.01361430  0.33609962  0.37316433  1
  O  O201  1  0.02992940  0.33799740  0.87604920  1
  O  O202  1  0.00986262  0.67924961  0.37737963  1
  O  O203  1  0.01812038  0.67630132  0.87260546  1
  O  O204  1  0.35442125  0.01483147  0.37699997  1
  O  O205  1  0.36273755  -0.00135060  0.87386387  1
  O  O206  1  0.34976842  0.33022931  0.37250556  1
  O  O207  1  0.35944931  0.34601433  0.87454660  1
  O  O208  1  0.35330464  0.66827884  0.36346519  1
  O  O209  1  0.37075458  0.68170438  0.88204928  1
  O  O210  1  0.68799953  -0.00898180  0.37235597  1
  O  O211  1  0.70618362  0.01250939  0.87552206  1
  O  O212  1  0.70388323  0.34144971  0.36976940  1
  O  O213  1  0.69974546  0.32901136  0.87653241  1
  O  O214  1  0.69884310  0.68000770  0.37177979  1
  O  O215  1  0.70160599  0.66866425  0.86232764  1
  O  O216  1  0.07482633  0.08407133  0.01908902  1
  O  O217  1  0.07566487  0.09345124  0.53935957  1
  O  O218  1  0.06717461  0.42348075  0.00785294  1
  O  O219  1  0.06182938  0.43376748  0.52790381  1
  O  O220  1  0.07122696  0.76184267  0.01454267  1
  O  O221  1  0.05678690  0.77439014  0.52017557  1
  O  O222  1  0.41031195  0.09282895  0.01710275  1
  O  O223  1  0.39994073  0.09621163  0.52214587  1
  O  O224  1  0.41523795  0.42534328  0.01955070  1
  O  O225  1  0.42351754  0.42239128  0.52366358  1
  O  O226  1  0.40602282  0.76434081  0.02382930  1
  O  O227  1  0.42199523  0.75624580  0.51573861  1
  O  O228  1  0.73703462  0.10390647  0.02219909  1
  O  O229  1  0.74019095  0.08619086  0.51772725  1
  O  O230  1  0.73125826  0.42474427  0.02647399  1
  O  O231  1  0.73803598  0.43416463  0.52822232  1
  O  O232  1  0.73932974  0.75577665  0.01790679  1
  O  O233  1  0.73954866  0.76712376  0.53310119  1
  O  O234  1  0.08691582  0.25980072  0.00823319  1
  O  O235  1  0.08839708  0.25451496  0.52624789  1
  O  O236  1  0.08665194  0.60018343  0.01445587  1
  O  O237  1  0.08216365  0.59237819  0.52152338  1
  O  O238  1  0.09513240  0.93200574  0.02221957  1
  O  O239  1  0.09273305  0.93202640  0.53845190  1
  O  O240  1  0.44112822  0.25657161  0.02547903  1
  O  O241  1  0.43591675  0.25448095  0.52810449  1
  O  O242  1  0.43260993  0.60565806  0.02223782  1
  O  O243  1  0.44288669  0.59053291  0.52527592  1
  O  O244  1  0.43009792  0.93071411  0.01148085  1
  O  O245  1  0.42303560  0.92409478  0.51438150  1
  O  O246  1  0.76080494  0.26105532  0.02074235  1
  O  O247  1  0.76458351  0.26530462  0.52713563  1
  O  O248  1  0.76006800  0.59423474  0.03172412  1
  O  O249  1  0.76514282  0.59543203  0.53040543  1
  O  O250  1  0.76695812  0.93690636  0.02271458  1
  O  O251  1  0.76507615  0.92984092  0.52907423  1
  O  O252  1  0.23908133  0.06862274  0.27314719  1
  O  O253  1  0.23456277  0.06524242  0.76413345  1
  O  O254  1  0.24304613  0.41803656  0.25610991  1
  O  O255  1  0.23553977  0.40209851  0.77970148  1
  O  O256  1  0.24717373  0.74363782  0.25968057  1
  O  O257  1  0.24279501  0.74995086  0.76980815  1
  O  O258  1  0.57859793  0.07044005  0.26615714  1
  O  O259  1  0.57319770  0.07167467  0.78047165  1
  O  O260  1  0.58663489  0.40501627  0.27174458  1
  O  O261  1  0.57087235  0.39886079  0.76286210  1
  O  O262  1  0.57566126  0.74053921  0.27141124  1
  O  O263  1  0.57191342  0.72813607  0.77226895  1
  O  O264  1  0.90120566  0.07906965  0.26131375  1
  O  O265  1  0.89621871  0.06788890  0.77561468  1
  O  O266  1  0.89270182  0.40923153  0.27685312  1
  O  O267  1  0.89658461  0.40161475  0.78080850  1
  O  O268  1  0.89181554  0.73057013  0.27084616  1
  O  O269  1  0.89304728  0.72748308  0.76818124  1
  O  O270  1  0.26278656  0.22783533  0.27220341  1
  O  O271  1  0.25223887  0.23721994  0.76941668  1
  O  O272  1  0.26088436  0.57925537  0.26308956  1
  O  O273  1  0.27151379  0.56649052  0.78175495  1
  O  O274  1  0.25797861  0.91586931  0.27234115  1
  O  O275  1  0.26285006  0.90226942  0.77440688  1
  O  O276  1  0.60254537  0.24141631  0.26422797  1
  O  O277  1  0.60583467  0.23521760  0.77331742  1
  O  O278  1  0.60768241  0.57036154  0.27651800  1
  O  O279  1  0.60276011  0.56747262  0.76574548  1
  O  O280  1  0.60015466  0.90189577  0.26971266  1
  O  O281  1  0.58960590  0.90936071  0.77016800  1
  O  O282  1  0.91389693  0.24548606  0.26093380  1
  O  O283  1  0.91893203  0.23745253  0.77858173  1
  O  O284  1  0.91373888  0.57212451  0.27348259  1
  O  O285  1  0.93211039  0.57293023  0.77667782  1
  O  O286  1  0.93340819  0.89964010  0.27929197  1
  O  O287  1  0.92392722  0.91339910  0.76929353  1
  O  O288  1  0.27474846  0.22293078  0.48837258  1
  O  O289  1  0.25095933  0.24624779  0.97418773  1
  O  O290  1  0.25921300  0.57725569  0.48385001  1
  O  O291  1  0.27536356  0.57701740  0.97520994  1
  O  O292  1  0.25813298  0.91623590  0.47511862  1
  O  O293  1  0.26714165  0.90203197  0.97576592  1
  O  O294  1  0.58968464  0.23355005  0.48263229  1
  O  O295  1  0.60487093  0.22575479  0.98084288  1
  O  O296  1  0.60420650  0.56394828  0.48237990  1
  O  O297  1  0.58979819  0.57894421  0.96598440  1
  O  O298  1  0.60376141  0.90028088  0.48057357  1
  O  O299  1  0.58363478  0.90729786  0.97708198  1
  O  O300  1  0.92171613  0.24344094  0.47733091  1
  O  O301  1  0.92064703  0.24401114  0.97498310  1
  O  O302  1  0.91373100  0.57334333  0.47919295  1
  O  O303  1  0.93094796  0.57471068  0.97203774  1
  O  O304  1  0.92715173  0.89402006  0.47796527  1
  O  O305  1  0.92481395  0.91471378  0.98143883  1
  O  O306  1  0.23962659  0.06446241  0.47949363  1
  O  O307  1  0.24562873  0.06717761  0.99073537  1
  O  O308  1  0.23979690  0.40513163  0.49065082  1
  O  O309  1  0.24047856  0.41218513  0.96705879  1
  O  O310  1  0.24268113  0.74966514  0.48610463  1
  O  O311  1  0.24836843  0.74688283  0.97169037  1
  O  O312  1  0.57304765  0.06747341  0.47980117  1
  O  O313  1  0.57112531  0.07112569  0.96835693  1
  O  O314  1  0.57870935  0.40932945  0.47858196  1
  O  O315  1  0.57772743  0.39543151  0.98908062  1
  O  O316  1  0.58103219  0.75008536  0.47629117  1
  O  O317  1  0.55944064  0.73920000  0.97800105  1
  O  O318  1  0.90304320  0.06911597  0.49756157  1
  O  O319  1  0.89625697  0.07067473  0.97964086  1
  O  O320  1  0.88690852  0.40401101  0.47823791  1
  O  O321  1  0.90729890  0.40404252  0.97202658  1
  O  O322  1  0.88650484  0.73504533  0.47942870  1
  O  O323  1  0.90289326  0.73145505  0.97709111  1
  O  O324  1  0.09678547  0.25186271  0.23615058  1
  O  O325  1  0.09111192  0.24749863  0.72868067  1
  O  O326  1  0.09097558  0.58939586  0.23718124  1
  O  O327  1  0.08430195  0.60318084  0.73071577  1
  O  O328  1  0.10055760  0.93783890  0.22225649  1
  O  O329  1  0.09092916  0.93188590  0.72774386  1
  O  O330  1  0.43797195  0.26094478  0.22155979  1
  O  O331  1  0.43321449  0.25978676  0.72527733  1
  O  O332  1  0.43006496  0.60069409  0.22430385  1
  O  O333  1  0.44788195  0.59714342  0.73153402  1
  O  O334  1  0.42594328  0.92328724  0.23162745  1
  O  O335  1  0.41971063  0.93070004  0.73758011  1
  O  O336  1  0.75452811  0.25440760  0.22179181  1
  O  O337  1  0.77000804  0.26782184  0.73086362  1
  O  O338  1  0.76003407  0.59913228  0.22530806  1
  O  O339  1  0.75835401  0.59743406  0.71367367  1
  O  O340  1  0.76456086  0.93660010  0.22818730  1
  O  O341  1  0.75888074  0.92512124  0.71349473  1
  O  O342  1  0.08083734  0.09313036  0.22969366  1
  O  O343  1  0.07102455  0.09204030  0.72180987  1
  O  O344  1  0.08094900  0.42982207  0.23447227  1
  O  O345  1  0.05777970  0.43509049  0.73306028  1
  O  O346  1  0.06674955  0.76449768  0.24334740  1
  O  O347  1  0.06223001  0.76813485  0.73010987  1
  O  O348  1  0.40563036  0.08744055  0.23775359  1
  O  O349  1  0.39483031  0.09318214  0.72679311  1
  O  O350  1  0.42195208  0.42085308  0.22645875  1
  O  O351  1  0.41673916  0.43124970  0.72874353  1
  O  O352  1  0.41270114  0.75549665  0.22191432  1
  O  O353  1  0.41384387  0.75598628  0.73161506  1
  O  O354  1  0.73642851  0.09452988  0.22244072  1
  O  O355  1  0.74673904  0.09542567  0.72966563  1
  O  O356  1  0.73201053  0.43364664  0.23201608  1
  O  O357  1  0.73451110  0.42506410  0.72004668  1
  O  O358  1  0.73304577  0.75615179  0.22982888  1
  O  O359  1  0.72886039  0.75854968  0.71489361  1
