# generated using pymatgen
data_BaLaInIrO6
_symmetry_space_group_name_H-M   'P 1'
_cell_length_a   17.55422569
_cell_length_b   17.57930411
_cell_length_c   16.52183156
_cell_angle_alpha   89.96585270
_cell_angle_beta   90.02257792
_cell_angle_gamma   89.95596138
_symmetry_Int_Tables_number   1
_chemical_formula_structural   BaLaInIrO6
_chemical_formula_sum   'Ba36 La36 In36 Ir36 O216'
_cell_volume   5098.48690230
_cell_formula_units_Z   36
loop_
 _symmetry_equiv_pos_site_id
 _symmetry_equiv_pos_as_xyz
  1  'x, y, z'
loop_
 _atom_site_type_symbol
 _atom_site_label
 _atom_site_symmetry_multiplicity
 _atom_site_fract_x
 _atom_site_fract_y
 _atom_site_fract_z
 _atom_site_occupancy
  Ba  Ba0  1  0.83742612  0.32169633  0.87451667  1
  Ba  Ba1  1  0.66967176  0.83874674  0.12596088  1
  Ba  Ba2  1  1.00026840  0.51241327  0.62726912  1
  Ba  Ba3  1  0.50175324  0.34075878  0.62624201  1
  Ba  Ba4  1  0.83629617  0.32453386  0.37732046  1
  Ba  Ba5  1  0.67023572  0.83080362  0.37471681  1
  Ba  Ba6  1  0.66353767  0.15570029  0.86722974  1
  Ba  Ba7  1  0.83156129  0.66396879  0.37388345  1
  Ba  Ba8  1  0.16472755  0.32468466  0.87799591  1
  Ba  Ba9  1  0.99581193  0.17276723  0.12756793  1
  Ba  Ba10  1  1.00467987  0.83959149  0.12420810  1
  Ba  Ba11  1  0.66336722  0.49086455  0.87594129  1
  Ba  Ba12  1  0.33352169  0.16073719  0.37418717  1
  Ba  Ba13  1  0.66579371  0.17532290  0.62402128  1
  Ba  Ba14  1  0.83688543  0.67068101  0.12404003  1
  Ba  Ba15  1  -0.00436389  0.15489202  0.37968374  1
  Ba  Ba16  1  0.50129943  0.32421196  0.37734784  1
  Ba  Ba17  1  0.33258949  0.48856205  0.38039559  1
  Ba  Ba18  1  0.50040667  0.33730118  0.12480360  1
  Ba  Ba19  1  1.00334866  0.17692574  0.62688888  1
  Ba  Ba20  1  0.33486363  0.84489905  0.12237176  1
  Ba  Ba21  1  0.67067183  0.82800398  0.87690335  1
  Ba  Ba22  1  0.00205527  0.49267352  0.37355796  1
  Ba  Ba23  1  0.66191955  0.15930130  0.37493152  1
  Ba  Ba24  1  0.66736623  0.84129353  0.62736467  1
  Ba  Ba25  1  0.83082600  0.00378941  0.12513476  1
  Ba  Ba26  1  0.83136848  0.99616334  0.37570591  1
  Ba  Ba27  1  -0.00416744  0.49090758  0.87576531  1
  Ba  Ba28  1  0.50382399  0.66040570  0.37494952  1
  Ba  Ba29  1  0.67090808  0.17333208  0.12119935  1
  Ba  Ba30  1  0.50054353  0.67465844  0.63036675  1
  Ba  Ba31  1  0.49910010  0.00785828  0.11918352  1
  Ba  Ba32  1  0.99267459  0.50257563  0.12180032  1
  Ba  Ba33  1  -0.00028003  0.15375297  0.87694695  1
  Ba  Ba34  1  0.33640004  0.18040450  0.62764893  1
  Ba  Ba35  1  0.16857480  0.99002871  0.86931150  1
  La  La36  1  0.17258447  0.65067708  0.37438210  1
  La  La37  1  0.50902259  0.98934981  0.37579288  1
  La  La38  1  0.65513057  0.48569007  0.37328781  1
  La  La39  1  0.32744638  0.81548641  0.38111552  1
  La  La40  1  0.15392410  0.67999003  0.12011995  1
  La  La41  1  0.15879779  0.01480491  0.12341351  1
  La  La42  1  0.16333772  0.35317171  0.62588233  1
  La  La43  1  0.32701215  0.48536061  0.86883963  1
  La  La44  1  0.82911529  0.68015649  0.62806628  1
  La  La45  1  0.83053100  0.99497387  0.87370162  1
  La  La46  1  0.67143091  0.50813085  0.12851223  1
  La  La47  1  0.17060545  0.98482074  0.37551652  1
  La  La48  1  0.17437253  0.31800962  0.37951118  1
  La  La49  1  0.50273975  0.65402120  0.88367413  1
  La  La50  1  0.33536566  0.51281328  0.62481228  1
  La  La51  1  0.67411485  0.51312368  0.61805980  1
  La  La52  1  0.33825619  0.85286311  0.62961849  1
  La  La53  1  0.16511150  0.01667836  0.62438913  1
  La  La54  1  1.00576491  0.84957205  0.62216081  1
  La  La55  1  0.32848531  0.82126214  0.87447479  1
  La  La56  1  0.49694619  0.01698627  0.62427450  1
  La  La57  1  0.50154978  0.98966778  0.87166780  1
  La  La58  1  0.83204458  0.01374011  0.62475966  1
  La  La59  1  0.16090349  0.68458831  0.62649460  1
  La  La60  1  0.32831881  0.14804262  0.87617992  1
  La  La61  1  0.16701025  0.65003129  0.87129868  1
  La  La62  1  0.83098882  0.34903612  0.62511457  1
  La  La63  1  0.49835429  0.68266411  0.12622688  1
  La  La64  1  0.33825519  0.51329715  0.12170392  1
  La  La65  1  -0.00514854  0.82027150  0.37491659  1
  La  La66  1  0.50487206  0.31412438  0.87155467  1
  La  La67  1  0.16276469  0.34921009  0.12786883  1
  La  La68  1  0.82628050  0.34637760  0.12463691  1
  La  La69  1  -0.00354756  0.82225238  0.87035203  1
  La  La70  1  0.33975799  0.17803528  0.11913128  1
  La  La71  1  0.83713012  0.65314211  0.86979444  1
  In  In72  1  0.49817199  0.49892673  0.75279249  1
  In  In73  1  0.49641595  0.16445188  0.24833330  1
  In  In74  1  0.33395477  0.33314111  -0.00285194  1
  In  In75  1  0.32984017  0.66570782  0.24639929  1
  In  In76  1  0.00037975  0.66513419  -0.00733704  1
  In  In77  1  0.49754590  0.50071557  0.24640417  1
  In  In78  1  0.49924616  0.83415244  -0.00324582  1
  In  In79  1  0.66390792  0.66908435  0.75639131  1
  In  In80  1  0.33258379  0.00186093  0.49669328  1
  In  In81  1  0.32981737  0.33483770  0.24792234  1
  In  In82  1  0.66574323  0.33168491  0.24936395  1
  In  In83  1  0.66726402  -0.00076270  0.50545743  1
  In  In84  1  0.17018816  0.83391638  0.24987431  1
  In  In85  1  0.66464308  0.00040180  0.24992737  1
  In  In86  1  0.17087280  0.17077004  0.75046395  1
  In  In87  1  0.66823158  0.66855137  0.49980651  1
  In  In88  1  0.49512139  0.83382668  0.50383227  1
  In  In89  1  0.49507776  0.83500760  0.25106327  1
  In  In90  1  0.83739175  0.83316958  0.24931499  1
  In  In91  1  0.00074899  0.33283939  0.25117317  1
  In  In92  1  0.83443613  0.83094799  -0.00481109  1
  In  In93  1  0.00393051  0.66432360  0.25129776  1
  In  In94  1  0.83526034  0.50516444  0.49734497  1
  In  In95  1  0.83381542  0.16654762  0.24958079  1
  In  In96  1  0.50044893  0.50073908  0.50401071  1
  In  In97  1  -0.00047253  0.33336339  0.74905351  1
  In  In98  1  0.00080728  0.33021472  0.00108138  1
  In  In99  1  0.00226778  0.33498618  0.50109184  1
  In  In100  1  0.16835278  0.16756312  0.24826423  1
  In  In101  1  0.83337727  0.16408086  -0.00382211  1
  In  In102  1  0.82969509  0.50089329  0.25531075  1
  In  In103  1  0.00127366  -0.00142418  0.74815728  1
  In  In104  1  0.00436675  -0.00108008  0.25220890  1
  In  In105  1  0.33030156  0.66675730  -0.00139760  1
  In  In106  1  0.66744101  0.33415748  0.75118811  1
  In  In107  1  0.33276443  0.66969240  0.74865470  1
  Ir  Ir108  1  0.66421999  -0.00216008  0.74945361  1
  Ir  Ir109  1  0.49913703  0.50061513  0.00152712  1
  Ir  Ir110  1  0.16999826  0.50374611  0.50380340  1
  Ir  Ir111  1  0.17265592  0.50068143  -0.00235824  1
  Ir  Ir112  1  0.00529801  -0.00161449  0.50372561  1
  Ir  Ir113  1  0.16630067  0.83353766  0.50331233  1
  Ir  Ir114  1  0.49315203  0.16432203  0.75128176  1
  Ir  Ir115  1  0.00604613  -0.00601844  -0.00428522  1
  Ir  Ir116  1  0.83531294  0.16565091  0.50787586  1
  Ir  Ir117  1  0.66239652  0.33474608  -0.00310423  1
  Ir  Ir118  1  0.66491812  0.66485043  0.24641760  1
  Ir  Ir119  1  0.32448110  0.66787968  0.50433623  1
  Ir  Ir120  1  0.84443180  0.83341894  0.50635947  1
  Ir  Ir121  1  0.00127007  0.67051768  0.74499586  1
  Ir  Ir122  1  0.33430601  -0.00298120  0.75229191  1
  Ir  Ir123  1  0.49533802  0.83903628  0.75255842  1
  Ir  Ir124  1  0.66432672  0.00070248  -0.00863598  1
  Ir  Ir125  1  0.83180182  0.16187226  0.74667138  1
  Ir  Ir126  1  0.66831401  0.33217082  0.50476596  1
  Ir  Ir127  1  0.17097455  0.50044457  0.24918275  1
  Ir  Ir128  1  0.49720102  0.16521592  -0.00615836  1
  Ir  Ir129  1  0.82508477  0.49978818  -0.00423553  1
  Ir  Ir130  1  0.83927903  0.83382870  0.74660879  1
  Ir  Ir131  1  0.33007172  0.00015369  -0.00013889  1
  Ir  Ir132  1  0.16820903  0.83215626  0.74712130  1
  Ir  Ir133  1  0.00619389  0.67146583  0.50523629  1
  Ir  Ir134  1  0.16713159  0.83404972  -0.00973383  1
  Ir  Ir135  1  0.16698743  0.16621770  0.50262649  1
  Ir  Ir136  1  0.17005390  0.50257475  0.75073448  1
  Ir  Ir137  1  0.32806563  0.33306200  0.50652281  1
  Ir  Ir138  1  0.17304179  0.16199031  0.00027454  1
  Ir  Ir139  1  0.49638464  0.16979330  0.50471494  1
  Ir  Ir140  1  0.33123509  -0.00067831  0.24994052  1
  Ir  Ir141  1  0.33375904  0.33488630  0.75105560  1
  Ir  Ir142  1  0.83341949  0.50408450  0.74938507  1
  Ir  Ir143  1  0.66521569  0.66156364  0.00003027  1
  O  O144  1  0.29763278  0.31928186  0.11949068  1
  O  O145  1  0.29787637  0.33113535  0.63060848  1
  O  O146  1  0.28936982  0.65537714  0.12061806  1
  O  O147  1  0.29445398  0.65751090  0.62366009  1
  O  O148  1  0.29588122  0.99585478  0.12514315  1
  O  O149  1  0.30028442  0.98903449  0.63149130  1
  O  O150  1  0.64706417  0.33714792  0.11420476  1
  O  O151  1  0.65220209  0.33250537  0.62375832  1
  O  O152  1  0.63289394  0.65510721  0.12149943  1
  O  O153  1  0.65071188  0.65578198  0.63101377  1
  O  O154  1  0.64891650  0.99859008  0.11138896  1
  O  O155  1  0.63333910  0.99628533  0.63147651  1
  O  O156  1  0.96682739  0.33810772  0.12215861  1
  O  O157  1  0.96856694  0.33539847  0.62616728  1
  O  O158  1  0.99450412  0.66579168  0.11878828  1
  O  O159  1  0.96884349  0.66885454  0.62519853  1
  O  O160  1  0.99008313  0.99505866  0.11381511  1
  O  O161  1  0.97177971  0.98835065  0.62170224  1
  O  O162  1  0.20484790  0.15161049  0.11841514  1
  O  O163  1  0.18965844  0.15309791  0.62090025  1
  O  O164  1  0.20325172  0.48914311  0.12439201  1
  O  O165  1  0.20098211  0.49364053  0.62726855  1
  O  O166  1  0.18719095  0.81667367  0.11155417  1
  O  O167  1  0.20311495  0.82139308  0.62566721  1
  O  O168  1  0.51660090  0.16236537  0.11195663  1
  O  O169  1  0.51591000  0.15667575  0.62896281  1
  O  O170  1  0.53439097  0.49341371  0.11598755  1
  O  O171  1  0.53662903  0.49993499  0.62774802  1
  O  O172  1  0.51796896  0.82551724  0.12209977  1
  O  O173  1  0.51663380  0.83168180  0.63588060  1
  O  O174  1  0.84492625  0.15740075  0.11991763  1
  O  O175  1  0.85568129  0.15353342  0.62812846  1
  O  O176  1  0.84067103  0.49150681  0.11520819  1
  O  O177  1  0.84990187  0.49263410  0.63053772  1
  O  O178  1  0.85266356  0.82999574  0.11951737  1
  O  O179  1  0.87064306  0.81797258  0.62712555  1
  O  O180  1  0.14636771  0.17703871  0.38447792  1
  O  O181  1  0.15079369  0.16658185  0.88127211  1
  O  O182  1  0.14738074  0.51576962  0.37574638  1
  O  O183  1  0.14373390  0.51218750  0.87531188  1
  O  O184  1  0.13327045  0.84607165  0.38545780  1
  O  O185  1  0.13356859  0.84013362  0.86735162  1
  O  O186  1  0.48307130  0.16954502  0.38558515  1
  O  O187  1  0.46457315  0.17165929  0.87213546  1
  O  O188  1  0.48324715  0.50524269  0.37764574  1
  O  O189  1  0.46198463  0.51360880  0.88374137  1
  O  O190  1  0.46038423  0.84303842  0.37860819  1
  O  O191  1  0.46413801  0.84844474  0.87019358  1
  O  O192  1  0.81511698  0.16652281  0.39089261  1
  O  O193  1  0.81430072  0.15612923  0.86537041  1
  O  O194  1  0.79011660  0.50685252  0.37840921  1
  O  O195  1  0.81097404  0.51603108  0.87135886  1
  O  O196  1  0.82419692  0.83653928  0.38889975  1
  O  O197  1  0.82106269  0.85399836  0.86534887  1
  O  O198  1  0.03747975  0.00079594  0.38574861  1
  O  O199  1  0.01952592  -0.00956274  0.87607053  1
  O  O200  1  0.03900643  0.33722129  0.37856979  1
  O  O201  1  0.01518450  0.33707529  0.87462070  1
  O  O202  1  0.03902916  0.67803175  0.38665632  1
  O  O203  1  0.03277101  0.67536077  0.86413537  1
  O  O204  1  0.36722002  0.00445835  0.36816777  1
  O  O205  1  0.36369199  0.00825707  0.87608125  1
  O  O206  1  0.34766273  0.33549536  0.38606080  1
  O  O207  1  0.36688749  0.34793327  0.87029785  1
  O  O208  1  0.35063040  0.67362579  0.38491075  1
  O  O209  1  0.36580012  0.68050174  0.87292325  1
  O  O210  1  0.67800995  0.00302157  0.38135890  1
  O  O211  1  0.69453040  -0.00039108  0.86880500  1
  O  O212  1  0.68518739  0.33940811  0.38529962  1
  O  O213  1  0.68504082  0.33123984  0.87855963  1
  O  O214  1  0.68126817  0.67015488  0.36697223  1
  O  O215  1  0.69922454  0.66591949  0.88134775  1
  O  O216  1  0.07943633  0.08946744  0.02086956  1
  O  O217  1  0.07740415  0.08994851  0.52857775  1
  O  O218  1  0.08662364  0.42549342  0.02078983  1
  O  O219  1  0.08449169  0.43099992  0.52685391  1
  O  O220  1  0.07787443  0.76438370  0.00388076  1
  O  O221  1  0.07488614  0.76428108  0.53427174  1
  O  O222  1  0.39646985  0.09907582  0.01628793  1
  O  O223  1  0.40946282  0.09594775  0.52191484  1
  O  O224  1  0.40570335  0.43545843  0.02484327  1
  O  O225  1  0.39610457  0.42614703  0.52993100  1
  O  O226  1  0.40976039  0.75425441  0.01773074  1
  O  O227  1  0.38652290  0.76429856  0.52496173  1
  O  O228  1  0.73571730  0.08707027  0.00178477  1
  O  O229  1  0.74953835  0.08874028  0.52787660  1
  O  O230  1  0.73226895  0.42718726  0.02207534  1
  O  O231  1  0.73826675  0.42226283  0.52766671  1
  O  O232  1  0.73886207  0.74784747  0.01548146  1
  O  O233  1  0.75631111  0.75962987  0.52526644  1
  O  O234  1  0.10884783  0.25612433  0.02562864  1
  O  O235  1  0.10551187  0.26295576  0.52723403  1
  O  O236  1  0.10695712  0.59659375  0.01146821  1
  O  O237  1  0.10424017  0.60413588  0.52600795  1
  O  O238  1  0.10487023  0.92969848  0.01948551  1
  O  O239  1  0.10246521  0.93147853  0.53050314  1
  O  O240  1  0.42757745  0.25541602  0.01295120  1
  O  O241  1  0.42425951  0.26413769  0.52127297  1
  O  O242  1  0.43312209  0.59333904  0.02916679  1
  O  O243  1  0.41316736  0.59454339  0.52752819  1
  O  O244  1  0.41915999  0.93103053  0.01087618  1
  O  O245  1  0.42189589  0.92996899  0.53640026  1
  O  O246  1  0.75721590  0.27004868  0.01718017  1
  O  O247  1  0.76908575  0.26256334  0.52920289  1
  O  O248  1  0.74785347  0.58468111  0.02481375  1
  O  O249  1  0.76559006  0.59771192  0.53308012  1
  O  O250  1  0.75530396  0.92903605  0.00123578  1
  O  O251  1  0.77308201  0.92261827  0.53049166  1
  O  O252  1  0.23798537  0.06104511  0.27510718  1
  O  O253  1  0.24977654  0.07376769  0.76880293  1
  O  O254  1  0.22807469  0.40363145  0.27205933  1
  O  O255  1  0.24089306  0.40788675  0.77377501  1
  O  O256  1  0.24102035  0.74118422  0.28500081  1
  O  O257  1  0.23118437  0.73828177  0.77542423  1
  O  O258  1  0.55897105  0.06578496  0.27047862  1
  O  O259  1  0.56151333  0.06456955  0.76826897  1
  O  O260  1  0.57672678  0.41260838  0.27102929  1
  O  O261  1  0.56611137  0.40093191  0.77771003  1
  O  O262  1  0.57447239  0.73400083  0.25555452  1
  O  O263  1  0.56086496  0.74605789  0.78025662  1
  O  O264  1  0.91007325  0.07070545  0.26485819  1
  O  O265  1  0.89584283  0.06259614  0.76264404  1
  O  O266  1  0.90730151  0.40985112  0.26436514  1
  O  O267  1  0.90067972  0.41272109  0.76308305  1
  O  O268  1  0.91680878  0.74502495  0.27516364  1
  O  O269  1  0.90438580  0.73661346  0.77264210  1
  O  O270  1  0.25333625  0.24546254  0.27601052  1
  O  O271  1  0.27281825  0.23928975  0.77798194  1
  O  O272  1  0.26143189  0.56705905  0.26913542  1
  O  O273  1  0.25813236  0.57262473  0.77862933  1
  O  O274  1  0.26900889  0.90401034  0.28311440  1
  O  O275  1  0.26886038  0.89624167  0.77149839  1
  O  O276  1  0.58898929  0.24060732  0.25832687  1
  O  O277  1  0.58142210  0.23847886  0.76571489  1
  O  O278  1  0.59959905  0.57212622  0.26466669  1
  O  O279  1  0.57948329  0.58551491  0.78409822  1
  O  O280  1  0.58289419  0.91123970  0.27538570  1
  O  O281  1  0.58733993  0.91001196  0.77800988  1
  O  O282  1  0.92939232  0.23794770  0.27073727  1
  O  O283  1  0.92253439  0.23032708  0.76349138  1
  O  O284  1  0.92371631  0.57685454  0.26295224  1
  O  O285  1  0.92548032  0.58132066  0.77304876  1
  O  O286  1  0.94012901  0.89994128  0.27368676  1
  O  O287  1  0.93868775  0.89228384  0.75891512  1
  O  O288  1  0.25679906  0.24032706  0.48117280  1
  O  O289  1  0.26758255  0.22670016  0.97676108  1
  O  O290  1  0.25719478  0.57651963  0.48095840  1
  O  O291  1  0.26440527  0.56808258  0.96866563  1
  O  O292  1  0.25919424  0.89984660  0.47477026  1
  O  O293  1  0.26515073  0.90085553  0.97254922  1
  O  O294  1  0.59211876  0.24107974  0.48888811  1
  O  O295  1  0.58711754  0.24195306  0.96936614  1
  O  O296  1  0.60679729  0.56341190  0.48419602  1
  O  O297  1  0.58594304  0.57578828  0.97452299  1
  O  O298  1  0.58261964  0.91461284  0.48277169  1
  O  O299  1  0.58776338  0.91650095  0.97238091  1
  O  O300  1  0.92439481  0.23621996  0.49233061  1
  O  O301  1  0.92695024  0.23675606  0.98098512  1
  O  O302  1  0.93581013  0.58474122  0.48348639  1
  O  O303  1  0.91118924  0.57801370  0.97856286  1
  O  O304  1  0.94405050  0.89867385  0.48498873  1
  O  O305  1  0.94116645  0.90057744  0.97568326  1
  O  O306  1  0.22942093  0.06654367  0.48118379  1
  O  O307  1  0.24074591  0.07005317  0.97735103  1
  O  O308  1  0.23140033  0.40041887  0.48593293  1
  O  O309  1  0.24454823  0.41367259  0.97485189  1
  O  O310  1  0.22934176  0.73676850  0.47587793  1
  O  O311  1  0.23391472  0.74202960  0.96163018  1
  O  O312  1  0.56241973  0.07626558  0.49253204  1
  O  O313  1  0.56629783  0.07026626  0.96804439  1
  O  O314  1  0.58134215  0.40437607  0.48476080  1
  O  O315  1  0.56267226  0.40278161  0.97202739  1
  O  O316  1  0.57348250  0.74250904  0.49085434  1
  O  O317  1  0.57509703  0.73270030  0.97731664  1
  O  O318  1  0.90575932  0.06592103  0.49176247  1
  O  O319  1  0.90898816  0.05693695  0.97515648  1
  O  O320  1  0.90870756  0.41208847  0.48713083  1
  O  O321  1  0.89966197  0.41581242  0.98308880  1
  O  O322  1  0.91801429  0.74356915  0.47857332  1
  O  O323  1  0.90948087  0.74044829  0.95767065  1
  O  O324  1  0.10080505  0.26800595  0.22090433  1
  O  O325  1  0.10250701  0.26719963  0.72523315  1
  O  O326  1  0.11106886  0.59825119  0.23205650  1
  O  O327  1  0.10298186  0.60397727  0.72807873  1
  O  O328  1  0.11026596  0.93513322  0.23201263  1
  O  O329  1  0.10195829  0.92289147  0.71629831  1
  O  O330  1  0.41545222  0.25112620  0.22689049  1
  O  O331  1  0.42920707  0.26678352  0.73842818  1
  O  O332  1  0.42621758  0.59479718  0.21268475  1
  O  O333  1  0.41512855  0.58592376  0.72370324  1
  O  O334  1  0.41924905  0.93426370  0.22933085  1
  O  O335  1  0.42931756  0.93305612  0.72459494  1
  O  O336  1  0.76747071  0.27011987  0.22674886  1
  O  O337  1  0.76747424  0.25934859  0.72845299  1
  O  O338  1  0.74993150  0.59290286  0.22407461  1
  O  O339  1  0.76752463  0.59732640  0.73104715  1
  O  O340  1  0.75566906  0.91965498  0.23997820  1
  O  O341  1  0.76956978  0.93132603  0.72653076  1
  O  O342  1  0.08170462  0.08989080  0.22766440  1
  O  O343  1  0.08287615  0.08571686  0.73343801  1
  O  O344  1  0.08179296  0.43400711  0.22630535  1
  O  O345  1  0.08346942  0.43011495  0.72903793  1
  O  O346  1  0.08213977  0.75552723  0.23276221  1
  O  O347  1  0.07058987  0.76587092  0.71970243  1
  O  O348  1  0.39018897  0.09380382  0.22124396  1
  O  O349  1  0.40516771  0.08766567  0.72914669  1
  O  O350  1  0.39657112  0.43256977  0.22188708  1
  O  O351  1  0.39346780  0.43063780  0.72765659  1
  O  O352  1  0.40770005  0.75462220  0.22998595  1
  O  O353  1  0.39809726  0.77572892  0.73130931  1
  O  O354  1  0.73538830  0.09610151  0.24127207  1
  O  O355  1  0.73972388  0.08534644  0.72361641  1
  O  O356  1  0.73541813  0.42971532  0.22506000  1
  O  O357  1  0.74028209  0.43594677  0.72705059  1
  O  O358  1  0.73952006  0.75041841  0.23537330  1
  O  O359  1  0.74905350  0.76236699  0.73476772  1
