# generated using pymatgen
data_BaLaInIrO6
_symmetry_space_group_name_H-M   'P 1'
_cell_length_a   17.51251762
_cell_length_b   17.53618513
_cell_length_c   16.47973758
_cell_angle_alpha   90.02252604
_cell_angle_beta   90.01423962
_cell_angle_gamma   89.96683245
_symmetry_Int_Tables_number   1
_chemical_formula_structural   BaLaInIrO6
_chemical_formula_sum   'Ba36 La36 In36 Ir36 O216'
_cell_volume   5060.97135133
_cell_formula_units_Z   36
loop_
 _symmetry_equiv_pos_site_id
 _symmetry_equiv_pos_as_xyz
  1  'x, y, z'
loop_
 _atom_site_type_symbol
 _atom_site_label
 _atom_site_symmetry_multiplicity
 _atom_site_fract_x
 _atom_site_fract_y
 _atom_site_fract_z
 _atom_site_occupancy
  Ba  Ba0  1  0.49846407  0.67483642  0.62728280  1
  Ba  Ba1  1  0.33951154  0.51129982  0.62394681  1
  Ba  Ba2  1  0.32908767  0.49091850  0.37148343  1
  Ba  Ba3  1  -0.00095776  0.49077303  0.87601230  1
  Ba  Ba4  1  0.66697590  0.49089441  0.37570895  1
  Ba  Ba5  1  0.33151568  0.17682609  0.12515749  1
  Ba  Ba6  1  0.83763191  0.64899782  0.37051821  1
  Ba  Ba7  1  0.66938781  0.50897376  0.62536566  1
  Ba  Ba8  1  0.33522918  0.50971106  0.12340264  1
  Ba  Ba9  1  0.16061756  0.01684633  0.12774422  1
  Ba  Ba10  1  0.83330775  0.00951789  0.12761189  1
  Ba  Ba11  1  0.49467745  0.32985324  0.37407931  1
  Ba  Ba12  1  0.83429174  0.32684325  0.87493020  1
  Ba  Ba13  1  0.33469529  0.83784471  0.62888468  1
  Ba  Ba14  1  0.33403133  0.16303663  0.37539848  1
  Ba  Ba15  1  0.16669592  0.67299006  0.12474479  1
  Ba  Ba16  1  1.00275503  0.84493205  0.13093702  1
  Ba  Ba17  1  0.33228576  0.49259763  0.87296824  1
  Ba  Ba18  1  0.16352767  0.65619520  0.36888478  1
  Ba  Ba19  1  0.50064455  0.34126899  0.62444182  1
  Ba  Ba20  1  -0.00188530  0.15817413  0.87467671  1
  Ba  Ba21  1  0.83345674  0.67543890  0.12899840  1
  Ba  Ba22  1  -0.00269388  0.48781085  0.37532935  1
  Ba  Ba23  1  0.83569410  0.34291699  0.62696652  1
  Ba  Ba24  1  0.16568421  0.99348804  0.87648783  1
  Ba  Ba25  1  0.82649219  0.67396086  0.62389394  1
  Ba  Ba26  1  0.50010640  0.32689753  0.87510072  1
  Ba  Ba27  1  0.16658975  0.00691887  0.62144990  1
  Ba  Ba28  1  0.49891813  0.99209934  0.87882311  1
  Ba  Ba29  1  0.83291189  0.34018020  0.12361414  1
  Ba  Ba30  1  0.66807599  0.49358998  0.87656151  1
  Ba  Ba31  1  0.49814468  0.34342228  0.12582810  1
  Ba  Ba32  1  0.66545810  0.82485638  0.87640296  1
  Ba  Ba33  1  0.16890891  0.66890819  0.62116581  1
  Ba  Ba34  1  0.99948228  0.50889017  0.62788676  1
  Ba  Ba35  1  0.50048700  0.00499671  0.62688764  1
  La  La36  1  0.49775916  0.01565997  0.12507872  1
  La  La37  1  0.15894037  0.34785559  0.62315871  1
  La  La38  1  1.00623598  0.18272272  0.12563065  1
  La  La39  1  0.50515954  0.65356627  0.87326845  1
  La  La40  1  0.66553240  0.15284154  0.87621248  1
  La  La41  1  0.16879658  0.65858632  0.87392546  1
  La  La42  1  0.33523930  0.84376291  0.12224669  1
  La  La43  1  0.84046481  0.98404100  0.87317971  1
  La  La44  1  0.33384176  0.17765686  0.62512166  1
  La  La45  1  0.67658496  0.85183701  0.12488567  1
  La  La46  1  0.33387170  0.82041113  0.87487377  1
  La  La47  1  0.17540456  0.31353827  0.87491462  1
  La  La48  1  1.00451618  0.51427674  0.12622934  1
  La  La49  1  -0.00504692  0.82100603  0.87495596  1
  La  La50  1  0.49996086  0.98675579  0.37240597  1
  La  La51  1  0.66158088  0.15930801  0.37507444  1
  La  La52  1  0.16395108  0.34583375  0.12819362  1
  La  La53  1  0.49906098  0.67891814  0.12344782  1
  La  La54  1  0.32994788  0.82210704  0.38071615  1
  La  La55  1  0.67169443  0.18444145  0.62608527  1
  La  La56  1  0.17145751  0.31967125  0.37577904  1
  La  La57  1  1.00436375  0.84372969  0.62217176  1
  La  La58  1  0.50464690  0.64893549  0.37815040  1
  La  La59  1  1.00299174  0.18230826  0.62377167  1
  La  La60  1  -0.00542588  0.15090425  0.37585993  1
  La  La61  1  0.83611768  0.64840300  0.87666635  1
  La  La62  1  0.83766909  0.97979420  0.37422347  1
  La  La63  1  0.67259496  0.51000693  0.12523326  1
  La  La64  1  0.83810017  0.32024757  0.37387523  1
  La  La65  1  0.67022123  0.18020496  0.12216578  1
  La  La66  1  0.66331252  0.81838145  0.37210748  1
  La  La67  1  0.16658981  0.98750024  0.37401312  1
  La  La68  1  -0.00541123  0.81418381  0.37328296  1
  La  La69  1  0.66752824  0.84339098  0.63094908  1
  La  La70  1  0.82530402  0.01431984  0.62458807  1
  La  La71  1  0.32907505  0.15850140  0.87271013  1
  In  In72  1  0.33249714  0.00239917  0.25136414  1
  In  In73  1  0.16601406  0.49910950  0.75198761  1
  In  In74  1  0.49912660  0.16772209  -0.00053011  1
  In  In75  1  0.50081312  0.16480619  0.74847335  1
  In  In76  1  0.33489671  0.00196996  0.49895635  1
  In  In77  1  0.33344933  0.33430760  0.00073352  1
  In  In78  1  0.33712466  0.66845267  0.24746542  1
  In  In79  1  0.50271970  0.83442153  0.49842247  1
  In  In80  1  0.83207341  0.16414024  0.74974203  1
  In  In81  1  0.66920632  0.66848695  0.49958402  1
  In  In82  1  -0.00018407  0.00055691  0.00025736  1
  In  In83  1  -0.00241861  0.00056896  0.74410254  1
  In  In84  1  0.32945955  0.33256694  0.50209400  1
  In  In85  1  0.00235033  0.33087249  0.75521752  1
  In  In86  1  0.16734348  0.83451889  0.25195891  1
  In  In87  1  0.66652808  0.66767982  0.24801291  1
  In  In88  1  0.16578675  0.49890579  -0.00134326  1
  In  In89  1  -0.00611861  0.66576869  0.50364966  1
  In  In90  1  0.50311816  0.49750567  0.50059505  1
  In  In91  1  0.16540706  0.49910810  0.49719758  1
  In  In92  1  0.83441339  0.16417650  0.00174611  1
  In  In93  1  0.66840907  0.00474691  0.25092053  1
  In  In94  1  0.33218377  -0.00052882  0.00123090  1
  In  In95  1  0.16676814  0.83379283  0.00008569  1
  In  In96  1  0.66702008  0.33359137  -0.00104863  1
  In  In97  1  0.33576861  0.66823957  0.49602547  1
  In  In98  1  0.16424196  0.83409059  0.75137625  1
  In  In99  1  0.33542262  0.66773501  0.75333790  1
  In  In100  1  0.83336304  0.83066472  0.00054366  1
  In  In101  1  0.66986768  0.00063280  0.49681860  1
  In  In102  1  0.66629330  0.66922945  0.00115291  1
  In  In103  1  0.50112173  0.16442034  0.50187954  1
  In  In104  1  0.83240614  0.49985243  0.74966313  1
  In  In105  1  0.66798317  0.33339031  0.25212612  1
  In  In106  1  0.16298226  0.83289293  0.49766822  1
  In  In107  1  0.33304858  0.33270837  0.74830082  1
  Ir  Ir108  1  0.50186489  0.16656658  0.25105209  1
  Ir  Ir109  1  0.66745431  0.67242384  0.75278790  1
  Ir  Ir110  1  0.67554972  0.32943958  0.49986910  1
  Ir  Ir111  1  0.66983847  -0.00224941  0.75053637  1
  Ir  Ir112  1  -0.00776367  0.00098676  0.49629966  1
  Ir  Ir113  1  -0.00234236  0.66412835  0.24635565  1
  Ir  Ir114  1  0.00012867  0.32728991  0.49536357  1
  Ir  Ir115  1  0.50377667  0.83493440  0.24373347  1
  Ir  Ir116  1  0.50352111  0.83278850  0.00461457  1
  Ir  Ir117  1  0.83376370  0.83574896  0.25309892  1
  Ir  Ir118  1  0.83331704  0.49251893  0.49561006  1
  Ir  Ir119  1  0.15869565  0.17137098  0.25248963  1
  Ir  Ir120  1  0.50535691  0.50163822  0.75439010  1
  Ir  Ir121  1  0.66715542  0.33350588  0.74899897  1
  Ir  Ir122  1  0.83376396  0.83185445  0.74781174  1
  Ir  Ir123  1  0.00038207  0.33136353  0.25178458  1
  Ir  Ir124  1  0.16829246  0.16287471  0.74413397  1
  Ir  Ir125  1  0.16290513  0.49531000  0.24734997  1
  Ir  Ir126  1  0.83460547  0.83698605  0.50114117  1
  Ir  Ir127  1  0.83341291  0.16527441  0.49638774  1
  Ir  Ir128  1  0.83637385  0.49480964  0.24719696  1
  Ir  Ir129  1  0.50241361  0.50397073  0.00158785  1
  Ir  Ir130  1  0.83548379  0.16756830  0.25422203  1
  Ir  Ir131  1  -0.00235436  0.00550167  0.25593888  1
  Ir  Ir132  1  0.33274343  0.00023853  0.75117394  1
  Ir  Ir133  1  0.00241417  0.33406661  0.00627991  1
  Ir  Ir134  1  0.33866500  0.67040697  -0.00003706  1
  Ir  Ir135  1  -0.00552933  0.67211086  0.75437255  1
  Ir  Ir136  1  0.50115651  0.49990555  0.24519723  1
  Ir  Ir137  1  0.66546944  -0.00122257  0.00034488  1
  Ir  Ir138  1  -0.00153955  0.66567714  -0.00049407  1
  Ir  Ir139  1  0.16348827  0.17060850  0.00074497  1
  Ir  Ir140  1  0.83728317  0.50038540  0.00609217  1
  Ir  Ir141  1  0.50230190  0.83744776  0.75762713  1
  Ir  Ir142  1  0.15823105  0.16469809  0.49874508  1
  Ir  Ir143  1  0.32859873  0.33188866  0.24914377  1
  O  O144  1  0.30144668  0.33495918  0.12910809  1
  O  O145  1  0.29402494  0.32094260  0.62615973  1
  O  O146  1  0.31773301  0.67361408  0.11832915  1
  O  O147  1  0.32439264  0.67064837  0.62719791  1
  O  O148  1  0.30923439  0.98194914  0.12815808  1
  O  O149  1  0.31599214  0.98913060  0.63171197  1
  O  O150  1  0.64879875  0.31797792  0.12694812  1
  O  O151  1  0.64890866  0.32260010  0.62388258  1
  O  O152  1  0.63678877  0.65208872  0.12560848  1
  O  O153  1  0.65025039  0.67543628  0.63120946  1
  O  O154  1  0.63787609  0.98956532  0.12270759  1
  O  O155  1  0.65305296  0.98331368  0.62808964  1
  O  O156  1  0.97831203  0.32022767  0.12988062  1
  O  O157  1  0.98360419  0.31817671  0.61578716  1
  O  O158  1  0.97764232  0.65328980  0.12177979  1
  O  O159  1  0.97363351  0.67128402  0.63466162  1
  O  O160  1  0.98059989  1.00567640  0.13534966  1
  O  O161  1  0.95963515  0.98709766  0.61382416  1
  O  O162  1  0.18212374  0.17449795  0.12692843  1
  O  O163  1  0.19485376  0.15952149  0.62174092  1
  O  O164  1  0.18318770  0.48971027  0.12744513  1
  O  O165  1  0.18653953  0.48756266  0.62508604  1
  O  O166  1  0.19739585  0.82902809  0.12644689  1
  O  O167  1  0.18109915  0.82534908  0.62454681  1
  O  O168  1  0.53410934  0.15834353  0.13188705  1
  O  O169  1  0.54052069  0.15712377  0.62576309  1
  O  O170  1  0.53347802  0.50058528  0.12285313  1
  O  O171  1  0.51980671  0.50311447  0.63427244  1
  O  O172  1  0.54157998  0.81933568  0.12429725  1
  O  O173  1  0.53000825  0.83332423  0.63452206  1
  O  O174  1  0.86948502  0.16322492  0.13562615  1
  O  O175  1  0.86593700  0.15404194  0.61563665  1
  O  O176  1  0.86670853  0.49872185  0.12679279  1
  O  O177  1  0.84703192  0.50115351  0.61724540  1
  O  O178  1  0.85255024  0.83785900  0.13212889  1
  O  O179  1  0.86618540  0.83039208  0.62366147  1
  O  O180  1  0.12796139  0.17957331  0.37627071  1
  O  O181  1  0.14353612  0.17442175  0.87285227  1
  O  O182  1  0.14639233  0.49286624  0.36518788  1
  O  O183  1  0.14534058  0.52144144  0.87725357  1
  O  O184  1  0.12598280  0.84782557  0.37378374  1
  O  O185  1  0.12965960  0.83450080  0.87618432  1
  O  O186  1  0.48481240  0.17257187  0.36949496  1
  O  O187  1  0.46656690  0.16439791  0.87260505  1
  O  O188  1  0.48099588  0.50473297  0.36435453  1
  O  O189  1  0.48119482  0.51309090  0.87957943  1
  O  O190  1  0.47006096  0.84792630  0.35911617  1
  O  O191  1  0.47101713  0.83979888  0.88346148  1
  O  O192  1  0.80027151  0.17753778  0.37549765  1
  O  O193  1  0.80210857  0.16884062  0.87413970  1
  O  O194  1  0.81549604  0.48215819  0.36980003  1
  O  O195  1  0.81889780  0.50679368  0.88458645  1
  O  O196  1  0.80156838  0.84243058  0.37836285  1
  O  O197  1  0.81203395  0.84384745  0.86732347  1
  O  O198  1  0.02739811  0.01336356  0.37719439  1
  O  O199  1  0.01393131  0.00423989  0.87091498  1
  O  O200  1  0.03130745  0.33265947  0.37257037  1
  O  O201  1  0.03489554  0.33286989  0.88682922  1
  O  O202  1  0.00944985  0.67189196  0.36822444  1
  O  O203  1  0.02764056  0.67846384  0.87744701  1
  O  O204  1  0.36927337  0.01234847  0.37138830  1
  O  O205  1  0.34931712  0.01872235  0.87151375  1
  O  O206  1  0.34220215  0.33008652  0.36906435  1
  O  O207  1  0.34822142  0.32174817  0.87417775  1
  O  O208  1  0.37405971  0.67953538  0.36713872  1
  O  O209  1  0.36921999  0.67589562  0.88290901  1
  O  O210  1  0.70598497  0.02121693  0.37311393  1
  O  O211  1  0.70109916  0.00991917  0.87684803  1
  O  O212  1  0.70092152  0.32893358  0.37916052  1
  O  O213  1  0.68642927  0.33704089  0.86898349  1
  O  O214  1  0.69119494  0.68169246  0.37161355  1
  O  O215  1  0.69710304  0.67088054  0.87401785  1
  O  O216  1  0.06714150  0.10702207  0.02210663  1
  O  O217  1  0.05466186  0.10051336  0.51751945  1
  O  O218  1  0.06762215  0.42489200  0.03127262  1
  O  O219  1  0.06766365  0.41525637  0.51862709  1
  O  O220  1  0.06730847  0.75386530  0.01753466  1
  O  O221  1  0.05739745  0.76935638  0.51219729  1
  O  O222  1  0.41558874  0.08262832  0.02761070  1
  O  O223  1  0.39790522  0.10054978  0.52854394  1
  O  O224  1  0.41172854  0.43404933  0.01199073  1
  O  O225  1  0.40838533  0.42433001  0.51143147  1
  O  O226  1  0.40629067  0.76784263  0.02487027  1
  O  O227  1  0.40113203  0.77352108  0.50490673  1
  O  O228  1  0.72790882  0.09327008  0.02362091  1
  O  O229  1  0.73997684  0.10113993  0.52764522  1
  O  O230  1  0.74256374  0.43347314  0.02600002  1
  O  O231  1  0.74314084  0.42234457  0.51581907  1
  O  O232  1  0.73436156  0.76586170  0.02833730  1
  O  O233  1  0.73653129  0.77652664  0.52227003  1
  O  O234  1  0.09738217  0.26770794  0.02748390  1
  O  O235  1  0.09339915  0.25995831  0.52505982  1
  O  O236  1  0.08556334  0.59222811  0.01941225  1
  O  O237  1  0.08579813  0.58998706  0.51102786  1
  O  O238  1  0.09368322  0.92838417  0.02108342  1
  O  O239  1  0.08163640  0.93409628  0.51646460  1
  O  O240  1  0.42400723  0.25852697  0.02128442  1
  O  O241  1  0.42063075  0.25416051  0.51950711  1
  O  O242  1  0.43658777  0.60401181  0.02234725  1
  O  O243  1  0.43575914  0.59869004  0.50243258  1
  O  O244  1  0.43744832  0.92284098  0.03172177  1
  O  O245  1  0.44040260  0.93726630  0.50058914  1
  O  O246  1  0.75679196  0.25212176  0.02265186  1
  O  O247  1  0.76841222  0.25834756  0.52077316  1
  O  O248  1  0.76210849  0.58774852  0.02186921  1
  O  O249  1  0.76194120  0.58356063  0.50511137  1
  O  O250  1  0.75480738  0.92829406  0.01646733  1
  O  O251  1  0.77672544  0.93541475  0.51656024  1
  O  O252  1  0.22588063  0.07780116  0.27513973  1
  O  O253  1  0.23832548  0.06870145  0.76551701  1
  O  O254  1  0.22849235  0.39688378  0.26739460  1
  O  O255  1  0.23300133  0.39718090  0.77757570  1
  O  O256  1  0.25121193  0.74890116  0.27621594  1
  O  O257  1  0.24181076  0.74365009  0.78578552  1
  O  O258  1  0.56837700  0.07311805  0.27357731  1
  O  O259  1  0.58569205  0.07271599  0.77779704  1
  O  O260  1  0.57196703  0.41081702  0.26381999  1
  O  O261  1  0.57611044  0.40781830  0.76677382  1
  O  O262  1  0.56587133  0.74184799  0.27279480  1
  O  O263  1  0.56909667  0.74032071  0.77681145  1
  O  O264  1  0.90025837  0.07208427  0.28255584  1
  O  O265  1  0.89012809  0.05681679  0.76079959  1
  O  O266  1  0.90362153  0.39610307  0.27113437  1
  O  O267  1  0.91034324  0.40956738  0.76425752  1
  O  O268  1  0.90958553  0.74524125  0.27073132  1
  O  O269  1  0.89752967  0.73794305  0.78234436  1
  O  O270  1  0.25212637  0.24196415  0.27250454  1
  O  O271  1  0.26038433  0.22547078  0.77077811  1
  O  O272  1  0.25147738  0.57102448  0.25871929  1
  O  O273  1  0.25356141  0.58171618  0.77136414  1
  O  O274  1  0.25899584  0.91121935  0.28747333  1
  O  O275  1  0.26820785  0.90594130  0.77828050  1
  O  O276  1  0.59810822  0.23150464  0.27144109  1
  O  O277  1  0.60183528  0.23876417  0.76944673  1
  O  O278  1  0.58779095  0.57176288  0.26669506  1
  O  O279  1  0.59331832  0.58303982  0.77774962  1
  O  O280  1  0.59649632  0.90267482  0.27475327  1
  O  O281  1  0.59983689  0.90578742  0.76685666  1
  O  O282  1  0.93109885  0.23662692  0.28175823  1
  O  O283  1  0.93138838  0.23375300  0.75430556  1
  O  O284  1  0.92976725  0.56539124  0.25921574  1
  O  O285  1  0.92262995  0.58406436  0.77498435  1
  O  O286  1  0.93082818  0.90792681  0.28136601  1
  O  O287  1  0.92647693  0.89483942  0.77069143  1
  O  O288  1  0.24709863  0.23278711  0.48172678  1
  O  O289  1  0.25537046  0.23535583  0.97481426  1
  O  O290  1  0.25915128  0.57424616  0.48212415  1
  O  O291  1  0.26402899  0.58327588  0.98266640  1
  O  O292  1  0.25645389  0.91266203  0.47022465  1
  O  O293  1  0.27313231  0.89685542  0.97788202  1
  O  O294  1  0.61063052  0.23403818  0.48460286  1
  O  O295  1  0.59976411  0.23199339  0.97530969  1
  O  O296  1  0.59309952  0.57648725  0.48125537  1
  O  O297  1  0.58999838  0.57441971  0.98362103  1
  O  O298  1  0.60674323  0.89956277  0.47288620  1
  O  O299  1  0.59897501  0.89932361  0.98994574  1
  O  O300  1  0.92931682  0.23310437  0.47009430  1
  O  O301  1  0.93400293  0.24267859  0.99058004  1
  O  O302  1  0.91880263  0.56641636  0.48402841  1
  O  O303  1  0.92601793  0.57588732  0.98038784  1
  O  O304  1  0.93118448  0.90215109  0.46958254  1
  O  O305  1  0.92626865  0.90188697  0.97418958  1
  O  O306  1  0.22266820  0.07201693  0.47368635  1
  O  O307  1  0.23758483  0.08242131  0.98449851  1
  O  O308  1  0.22623696  0.39362110  0.48113706  1
  O  O309  1  0.22936122  0.39758841  0.98150021  1
  O  O310  1  0.24254631  0.74592873  0.46785445  1
  O  O311  1  0.24586490  0.73615320  0.97105583  1
  O  O312  1  0.57259429  0.06934657  0.46659950  1
  O  O313  1  0.57953606  0.07046521  0.98418514  1
  O  O314  1  0.58467746  0.39933680  0.48503637  1
  O  O315  1  0.57214227  0.41350872  0.98595807  1
  O  O316  1  0.57243610  0.74028562  0.46671986  1
  O  O317  1  0.56196258  0.73558365  0.98054733  1
  O  O318  1  0.89680811  0.06854010  0.46949785  1
  O  O319  1  0.89583979  0.06395097  0.97762229  1
  O  O320  1  0.90300580  0.39374235  0.47582848  1
  O  O321  1  0.90973891  0.40575464  0.98560818  1
  O  O322  1  0.89772837  0.74426164  0.47908799  1
  O  O323  1  0.90579399  0.73294195  0.97298183  1
  O  O324  1  0.09479873  0.26696837  0.22618303  1
  O  O325  1  0.10447722  0.25738938  0.72593546  1
  O  O326  1  0.08673082  0.58526995  0.22237017  1
  O  O327  1  0.08546391  0.60422194  0.73855945  1
  O  O328  1  0.09052942  0.93891315  0.24027687  1
  O  O329  1  0.08428180  0.92242114  0.71979755  1
  O  O330  1  0.42658921  0.25957946  0.23185390  1
  O  O331  1  0.41951549  0.25123485  0.71798444  1
  O  O332  1  0.43622338  0.59492815  0.22375279  1
  O  O333  1  0.43527547  0.59186213  0.74741894  1
  O  O334  1  0.43986718  0.92753332  0.21848793  1
  O  O335  1  0.43001869  0.93260054  0.74107028  1
  O  O336  1  0.76848293  0.25767852  0.23710229  1
  O  O337  1  0.75330253  0.25838378  0.72831765  1
  O  O338  1  0.76044330  0.58299939  0.22855697  1
  O  O339  1  0.75802103  0.59973585  0.74359894  1
  O  O340  1  0.76182943  0.92504765  0.23785138  1
  O  O341  1  0.76615851  0.92614087  0.72144442  1
  O  O342  1  0.05807713  0.10802317  0.23711513  1
  O  O343  1  0.06924897  0.10215862  0.72033783  1
  O  O344  1  0.06810760  0.42393705  0.22071290  1
  O  O345  1  0.07649235  0.41956918  0.72823605  1
  O  O346  1  0.07063185  0.75360480  0.23812854  1
  O  O347  1  0.05519412  0.76621531  0.73591366  1
  O  O348  1  0.41586628  0.09308096  0.22398633  1
  O  O349  1  0.39605334  0.09400831  0.72688027  1
  O  O350  1  0.40384418  0.42420457  0.22940029  1
  O  O351  1  0.41619134  0.42907872  0.73953268  1
  O  O352  1  0.41530349  0.76769444  0.21196614  1
  O  O353  1  0.41171614  0.76925717  0.74908760  1
  O  O354  1  0.73870877  0.10571224  0.22472835  1
  O  O355  1  0.73384180  0.09053759  0.72067410  1
  O  O356  1  0.74077033  0.43162754  0.22509800  1
  O  O357  1  0.73741303  0.42291871  0.73538587  1
  O  O358  1  0.73635641  0.77125959  0.22943599  1
  O  O359  1  0.73530387  0.76808193  0.72724748  1
