# generated using pymatgen
data_BaLaInIrO6
_symmetry_space_group_name_H-M   'P 1'
_cell_length_a   17.53741913
_cell_length_b   17.58037890
_cell_length_c   16.51932935
_cell_angle_alpha   89.96973310
_cell_angle_beta   90.02678543
_cell_angle_gamma   90.05352797
_symmetry_Int_Tables_number   1
_chemical_formula_structural   BaLaInIrO6
_chemical_formula_sum   'Ba36 La36 In36 Ir36 O216'
_cell_volume   5093.14483709
_cell_formula_units_Z   36
loop_
 _symmetry_equiv_pos_site_id
 _symmetry_equiv_pos_as_xyz
  1  'x, y, z'
loop_
 _atom_site_type_symbol
 _atom_site_label
 _atom_site_symmetry_multiplicity
 _atom_site_fract_x
 _atom_site_fract_y
 _atom_site_fract_z
 _atom_site_occupancy
  Ba  Ba0  1  0.33418069  0.17700398  0.62573414  1
  Ba  Ba1  1  0.83079571  0.00924758  0.12835602  1
  Ba  Ba2  1  0.66589466  0.83499001  0.62124215  1
  Ba  Ba3  1  0.83001011  0.67241184  0.62205226  1
  Ba  Ba4  1  0.50164588  0.65616418  0.87670711  1
  Ba  Ba5  1  1.00070787  0.83642531  0.61928387  1
  Ba  Ba6  1  0.50127196  0.67771499  0.12244735  1
  Ba  Ba7  1  0.50115425  0.34399198  0.12494588  1
  Ba  Ba8  1  -0.00148625  0.82170470  0.37286447  1
  Ba  Ba9  1  0.33300213  0.49506791  0.87291825  1
  Ba  Ba10  1  0.50258763  0.65546470  0.37111442  1
  Ba  Ba11  1  0.17022781  0.65608820  0.38151191  1
  Ba  Ba12  1  0.99885224  0.50606177  0.12890544  1
  Ba  Ba13  1  0.82680759  0.99264720  0.37769858  1
  Ba  Ba14  1  0.83467100  0.32954804  0.37629762  1
  Ba  Ba15  1  0.49617841  0.67642979  0.62439661  1
  Ba  Ba16  1  0.66657523  0.84398079  0.12359497  1
  Ba  Ba17  1  0.66939971  0.17607078  0.61987032  1
  Ba  Ba18  1  0.16791212  0.34221724  0.12443986  1
  Ba  Ba19  1  0.83050363  0.34643865  0.62226190  1
  Ba  Ba20  1  0.67117038  0.51512321  0.12491831  1
  Ba  Ba21  1  0.66484871  0.15735666  0.37399973  1
  Ba  Ba22  1  0.50421515  0.98926622  0.37657114  1
  Ba  Ba23  1  0.16723043  0.32408613  0.87713861  1
  Ba  Ba24  1  0.16393546  0.32591503  0.37013065  1
  Ba  Ba25  1  0.16510804  0.99275563  0.87382275  1
  Ba  Ba26  1  0.66525060  0.82468289  0.37174713  1
  Ba  Ba27  1  0.16767111  0.67236076  0.62923423  1
  Ba  Ba28  1  0.83342476  0.00675050  0.62200842  1
  Ba  Ba29  1  0.66908619  0.50778216  0.62333911  1
  Ba  Ba30  1  1.00275039  0.17259136  0.62625401  1
  Ba  Ba31  1  0.16540155  0.65866654  0.87623671  1
  Ba  Ba32  1  0.83174942  0.66221065  0.37593112  1
  Ba  Ba33  1  0.16298075  0.00927597  0.11890150  1
  Ba  Ba34  1  0.82630614  0.35062722  0.12654493  1
  Ba  Ba35  1  0.16505392  0.00756473  0.62406968  1
  La  La36  1  -0.00513139  0.48663013  0.87391129  1
  La  La37  1  0.50523249  0.32380954  0.87017867  1
  La  La38  1  0.33071234  0.14920665  0.37522416  1
  La  La39  1  0.50622757  0.98370282  0.88179969  1
  La  La40  1  1.00517481  0.18136201  0.12753559  1
  La  La41  1  0.66719616  0.49162167  0.37223422  1
  La  La42  1  0.32965203  0.81774375  0.37658421  1
  La  La43  1  0.32850836  0.15507741  0.87932912  1
  La  La44  1  0.16811492  0.98216141  0.37713004  1
  La  La45  1  -0.00168587  0.14596233  0.87776373  1
  La  La46  1  0.82816655  0.67762964  0.12758308  1
  La  La47  1  0.33051428  0.48404149  0.37377796  1
  La  La48  1  0.66120173  0.48417833  0.87599917  1
  La  La49  1  0.83489841  0.98193506  0.87593077  1
  La  La50  1  0.34197354  0.84732199  0.12221714  1
  La  La51  1  1.00241145  0.51009539  0.62211445  1
  La  La52  1  0.34135632  0.84860362  0.62311074  1
  La  La53  1  0.16134970  0.68068850  0.12877352  1
  La  La54  1  -0.00054145  0.82014470  0.87278564  1
  La  La55  1  0.50867302  0.31981209  0.36972973  1
  La  La56  1  0.83673826  0.31630157  0.87275331  1
  La  La57  1  0.83634796  0.65081944  0.87601956  1
  La  La58  1  -0.00779859  0.15100792  0.37861249  1
  La  La59  1  0.49391484  0.01533829  0.62338113  1
  La  La60  1  0.66982704  0.18386383  0.12831864  1
  La  La61  1  0.66561640  0.15114640  0.87741259  1
  La  La62  1  0.33782901  0.18383326  0.12595238  1
  La  La63  1  0.99865873  0.84221809  0.12570425  1
  La  La64  1  -0.00333239  0.49207693  0.37445446  1
  La  La65  1  0.49700561  0.01716398  0.13136128  1
  La  La66  1  0.33705962  0.51395159  0.62305780  1
  La  La67  1  0.66154351  0.81750258  0.87852970  1
  La  La68  1  0.32658951  0.81700932  0.87448538  1
  La  La69  1  0.16191443  0.34898687  0.62606705  1
  La  La70  1  0.49690232  0.35151154  0.61792827  1
  La  La71  1  0.33876773  0.51117619  0.12595953  1
  In  In72  1  -0.00191154  0.66646547  0.74930619  1
  In  In73  1  0.83212484  0.83447079  0.24686467  1
  In  In74  1  0.00024318  0.33397385  0.25023150  1
  In  In75  1  0.16728287  0.83532489  0.00063746  1
  In  In76  1  0.66765894  0.32930781  0.74750921  1
  In  In77  1  0.50246098  0.16708293  -0.00064529  1
  In  In78  1  0.00256717  -0.00140997  0.49868921  1
  In  In79  1  0.16578043  0.50061440  0.75211970  1
  In  In80  1  0.33375640  0.66534332  0.25039795  1
  In  In81  1  0.00178831  0.33305656  0.50145470  1
  In  In82  1  0.16624405  0.16402869  0.24986912  1
  In  In83  1  0.49929453  0.83447232  0.75264769  1
  In  In84  1  0.16858697  0.50239844  0.25011282  1
  In  In85  1  0.33677784  -0.00018082  0.75544505  1
  In  In86  1  0.33543042  0.33307213  0.74875932  1
  In  In87  1  0.33185634  -0.00174873  0.24949441  1
  In  In88  1  0.16680663  0.16953372  0.49811801  1
  In  In89  1  0.66111653  -0.00099904  0.50302003  1
  In  In90  1  0.49969608  0.49892580  0.74886181  1
  In  In91  1  0.17082215  0.82873680  0.50378229  1
  In  In92  1  0.33093788  0.66700760  0.00181434  1
  In  In93  1  -0.00251412  -0.00371222  0.75000255  1
  In  In94  1  0.83336316  0.16344224  0.00027806  1
  In  In95  1  0.83225381  0.83287605  0.49955041  1
  In  In96  1  -0.00175397  0.33198415  -0.00139355  1
  In  In97  1  0.83426717  0.16768416  0.25098909  1
  In  In98  1  0.50180030  0.49993783  0.00223550  1
  In  In99  1  0.66720082  0.66426617  0.75221435  1
  In  In100  1  0.16831717  0.16786312  0.75132018  1
  In  In101  1  0.66520275  -0.00180336  0.75372303  1
  In  In102  1  -0.00127127  0.33149311  0.74903036  1
  In  In103  1  0.66197879  0.66433283  0.49758314  1
  In  In104  1  0.49702525  0.17083427  0.50059289  1
  In  In105  1  0.00147857  -0.00030589  0.24717619  1
  In  In106  1  -0.00156960  0.66404962  0.00357282  1
  In  In107  1  0.33581668  0.33626656  -0.00016873  1
  Ir  Ir108  1  0.49849036  0.83524119  0.24551270  1
  Ir  Ir109  1  0.33812754  0.00125950  0.00257149  1
  Ir  Ir110  1  0.17000569  0.83190595  0.75128471  1
  Ir  Ir111  1  0.82839328  0.50138168  -0.00383542  1
  Ir  Ir112  1  -0.00186894  0.66513289  0.24897249  1
  Ir  Ir113  1  0.34132725  0.33116560  0.25493345  1
  Ir  Ir114  1  0.33714298  0.66494817  0.49971458  1
  Ir  Ir115  1  0.83121519  0.50003005  0.75495849  1
  Ir  Ir116  1  0.50065088  0.16835658  0.75455512  1
  Ir  Ir117  1  0.67313531  0.67012332  -0.00020984  1
  Ir  Ir118  1  -0.00427488  -0.00493754  -0.00182191  1
  Ir  Ir119  1  0.83366168  0.50067527  0.49871954  1
  Ir  Ir120  1  0.16672628  0.50116388  0.00252443  1
  Ir  Ir121  1  0.17046496  0.83004098  0.24852798  1
  Ir  Ir122  1  0.67128196  0.33364558  -0.00211547  1
  Ir  Ir123  1  0.33451954  0.33606344  0.49580644  1
  Ir  Ir124  1  0.49969294  0.16986447  0.24806493  1
  Ir  Ir125  1  0.49932069  0.83869359  0.00282499  1
  Ir  Ir126  1  0.49953646  0.49852505  0.25132800  1
  Ir  Ir127  1  0.33560422  -0.00262250  0.49713090  1
  Ir  Ir128  1  0.49613622  0.49675413  0.49364264  1
  Ir  Ir129  1  0.16778091  0.16239649  0.00230391  1
  Ir  Ir130  1  0.66496017  0.66601418  0.24498757  1
  Ir  Ir131  1  0.83086684  0.50518026  0.25039271  1
  Ir  Ir132  1  0.65796900  0.00153726  0.24397672  1
  Ir  Ir133  1  0.00257216  0.65922203  0.49687675  1
  Ir  Ir134  1  0.83194736  0.83242473  -0.00400550  1
  Ir  Ir135  1  0.66448893  0.33732958  0.24931840  1
  Ir  Ir136  1  0.83062840  0.83261450  0.75728653  1
  Ir  Ir137  1  0.33185440  0.67055055  0.74631233  1
  Ir  Ir138  1  0.82929486  0.16557520  0.75261311  1
  Ir  Ir139  1  0.49373813  0.83285035  0.49737928  1
  Ir  Ir140  1  0.83146810  0.16918860  0.50045649  1
  Ir  Ir141  1  0.66661849  0.00039593  0.00117629  1
  Ir  Ir142  1  0.17098527  0.49944047  0.49996979  1
  Ir  Ir143  1  0.66401926  0.33693366  0.49453182  1
  O  O144  1  0.31752175  0.32005517  0.13466783  1
  O  O145  1  0.29985087  0.33008187  0.61248261  1
  O  O146  1  0.29887672  0.65408675  0.12719784  1
  O  O147  1  0.31675057  0.65224476  0.62196676  1
  O  O148  1  0.31197537  0.98549573  0.12073636  1
  O  O149  1  0.31803602  0.98856831  0.61952229  1
  O  O150  1  0.64805948  0.32043646  0.12302941  1
  O  O151  1  0.63656910  0.33304604  0.61635693  1
  O  O152  1  0.64852386  0.66816064  0.12150845  1
  O  O153  1  0.64771665  0.66331330  0.62563778  1
  O  O154  1  0.63145147  0.99787412  0.12083604  1
  O  O155  1  0.62805926  0.99484194  0.63212853  1
  O  O156  1  0.97484267  0.32388812  0.12194505  1
  O  O157  1  0.97664469  0.33329657  0.62502130  1
  O  O158  1  0.96665718  0.66342244  0.12921022  1
  O  O159  1  0.98076567  0.65289556  0.61829629  1
  O  O160  1  0.97908186  0.98142333  0.11637667  1
  O  O161  1  0.98483932  0.99375329  0.62641275  1
  O  O162  1  0.20421780  0.16025073  0.12019255  1
  O  O163  1  0.18803877  0.15864440  0.62391694  1
  O  O164  1  0.20108126  0.49921957  0.12151242  1
  O  O165  1  0.20183137  0.49233898  0.61758194  1
  O  O166  1  0.20156108  0.82405006  0.12858458  1
  O  O167  1  0.20381308  0.83336953  0.63191473  1
  O  O168  1  0.53368932  0.16118249  0.12757553  1
  O  O169  1  0.52004944  0.15417648  0.63354024  1
  O  O170  1  0.52362229  0.49839376  0.13266278  1
  O  O171  1  0.51995490  0.49136462  0.61409147  1
  O  O172  1  0.52118330  0.83436976  0.12460554  1
  O  O173  1  0.51036949  0.83324014  0.61868865  1
  O  O174  1  0.86499278  0.16565600  0.12384895  1
  O  O175  1  0.85157971  0.16405036  0.63026238  1
  O  O176  1  0.85079498  0.50811356  0.12245944  1
  O  O177  1  0.86330080  0.50038255  0.62948204  1
  O  O178  1  0.86190162  0.82074659  0.11511303  1
  O  O179  1  0.85151357  0.82942590  0.63870390  1
  O  O180  1  0.13127832  0.17346117  0.37307504  1
  O  O181  1  0.13571492  0.16674142  0.88525682  1
  O  O182  1  0.13751643  0.50132321  0.38260586  1
  O  O183  1  0.13288902  0.50434592  0.88306618  1
  O  O184  1  0.15376257  0.83741223  0.36938065  1
  O  O185  1  0.13809734  0.83155774  0.87151391  1
  O  O186  1  0.46737060  0.17723409  0.37023208  1
  O  O187  1  0.46879303  0.18360704  0.87293664  1
  O  O188  1  0.46700847  0.49806019  0.37233566  1
  O  O189  1  0.48491250  0.48989126  0.87612987  1
  O  O190  1  0.46550910  0.83478236  0.37081810  1
  O  O191  1  0.46445975  0.84532048  0.88457068  1
  O  O192  1  0.81203995  0.17128250  0.38170590  1
  O  O193  1  0.80014281  0.17359759  0.87171139  1
  O  O194  1  0.80319465  0.50384601  0.37424688  1
  O  O195  1  0.79657051  0.50995000  0.87594082  1
  O  O196  1  0.81754594  0.83031780  0.37078192  1
  O  O197  1  0.79949086  0.84327861  0.87788379  1
  O  O198  1  0.03502826  0.01090936  0.37058316  1
  O  O199  1  0.01399350  0.00349485  0.87925768  1
  O  O200  1  0.01537278  0.35565590  0.37746893  1
  O  O201  1  0.01793287  0.35166099  0.87476204  1
  O  O202  1  0.02313470  0.65881629  0.37220399  1
  O  O203  1  0.01575198  0.68100478  0.87780462  1
  O  O204  1  0.35698202  0.00618155  0.37724458  1
  O  O205  1  0.37178910  0.01391246  0.88550523  1
  O  O206  1  0.37277679  0.34607134  0.37616913  1
  O  O207  1  0.37214647  0.34102047  0.87510776  1
  O  O208  1  0.35419608  0.68111293  0.37874473  1
  O  O209  1  0.35143380  0.67949974  0.86798503  1
  O  O210  1  0.67317455  0.00254555  0.36481150  1
  O  O211  1  0.69846415  0.01324410  0.88330881  1
  O  O212  1  0.68510770  0.35175912  0.37160631  1
  O  O213  1  0.69829624  0.34343022  0.87853575  1
  O  O214  1  0.67788560  0.66081412  0.36457471  1
  O  O215  1  0.70092480  0.67843875  0.88173653  1
  O  O216  1  0.06096747  0.09449661  0.01888906  1
  O  O217  1  0.06851195  0.09913464  0.50887931  1
  O  O218  1  0.07703611  0.43137134  0.01696610  1
  O  O219  1  0.08014604  0.43452586  0.52957256  1
  O  O220  1  0.07303231  0.75914732  0.03144096  1
  O  O221  1  0.07732696  0.74678499  0.51130147  1
  O  O222  1  0.40565244  0.09156427  0.03303709  1
  O  O223  1  0.40249445  0.09028596  0.51492722  1
  O  O224  1  0.40236165  0.43243366  0.03202005  1
  O  O225  1  0.40017631  0.43102053  0.52260203  1
  O  O226  1  0.40421615  0.77166743  0.02334321  1
  O  O227  1  0.39689172  0.76744215  0.51954934  1
  O  O228  1  0.72611910  0.09997786  0.02316047  1
  O  O229  1  0.74431271  0.09542398  0.51317172  1
  O  O230  1  0.73200300  0.43383918  0.01210247  1
  O  O231  1  0.73584419  0.43044502  0.51009180  1
  O  O232  1  0.74290296  0.76212456  0.02236535  1
  O  O233  1  0.74310085  0.75179899  0.50920247  1
  O  O234  1  0.09178659  0.24609454  0.02514861  1
  O  O235  1  0.10758213  0.27497182  0.52209803  1
  O  O236  1  0.10035690  0.59488034  0.02859869  1
  O  O237  1  0.09408331  0.58441985  0.52539244  1
  O  O238  1  0.08569062  0.92362018  0.01593456  1
  O  O239  1  0.10453681  0.92640929  0.50315211  1
  O  O240  1  0.42301835  0.25307762  0.02423649  1
  O  O241  1  0.42951220  0.27277517  0.52187758  1
  O  O242  1  0.42281849  0.59214162  0.01783277  1
  O  O243  1  0.42642201  0.58771637  0.51955022  1
  O  O244  1  0.43375725  0.93400220  0.03025873  1
  O  O245  1  0.42873469  0.92929110  0.52504930  1
  O  O246  1  0.75991606  0.26367197  0.01467790  1
  O  O247  1  0.75618356  0.26549720  0.51535347  1
  O  O248  1  0.77067584  0.60534881  0.01670864  1
  O  O249  1  0.75883955  0.58460562  0.51185165  1
  O  O250  1  0.76508796  0.93202539  0.01343649  1
  O  O251  1  0.75160214  0.92399882  0.51725591  1
  O  O252  1  0.23708886  0.06757757  0.27967466  1
  O  O253  1  0.24897837  0.07626457  0.77654215  1
  O  O254  1  0.25412338  0.40282530  0.27050931  1
  O  O255  1  0.23917434  0.40673674  0.76285674  1
  O  O256  1  0.23502839  0.73837567  0.26540970  1
  O  O257  1  0.24138367  0.74352817  0.77214028  1
  O  O258  1  0.56094584  0.06994515  0.25724506  1
  O  O259  1  0.56570336  0.07520951  0.78819965  1
  O  O260  1  0.57060152  0.40796711  0.27768106  1
  O  O261  1  0.56962800  0.39654257  0.76736235  1
  O  O262  1  0.56998374  0.73949754  0.26277447  1
  O  O263  1  0.57600185  0.74465690  0.77499802  1
  O  O264  1  0.90726084  0.07343733  0.27359680  1
  O  O265  1  0.89363204  0.07114928  0.77831706  1
  O  O266  1  0.90398702  0.41915313  0.26587080  1
  O  O267  1  0.89575061  0.40674010  0.77935067  1
  O  O268  1  0.90776028  0.73180296  0.25820021  1
  O  O269  1  0.89886386  0.73936955  0.77884981  1
  O  O270  1  0.27960098  0.23270023  0.27087419  1
  O  O271  1  0.27192910  0.23400522  0.77951547  1
  O  O272  1  0.26756945  0.56533899  0.27843826  1
  O  O273  1  0.26210225  0.58050527  0.75885635  1
  O  O274  1  0.26516852  0.89485537  0.27207664  1
  O  O275  1  0.26653722  0.89756455  0.77435796  1
  O  O276  1  0.59244614  0.24408578  0.27009901  1
  O  O277  1  0.59479258  0.23223050  0.78163485  1
  O  O278  1  0.59530782  0.56547012  0.27107769  1
  O  O279  1  0.59972166  0.56524138  0.77517063  1
  O  O280  1  0.58953511  0.90567870  0.26322011  1
  O  O281  1  0.59349051  0.90668452  0.79231363  1
  O  O282  1  0.93247974  0.23597165  0.27650662  1
  O  O283  1  0.92511470  0.23032707  0.77929216  1
  O  O284  1  0.93089946  0.57023495  0.27370433  1
  O  O285  1  0.92460128  0.56596134  0.77880405  1
  O  O286  1  0.93419155  0.89894271  0.24898797  1
  O  O287  1  0.92493964  0.89758748  0.78222684  1
  O  O288  1  0.27649307  0.23864161  0.46783648  1
  O  O289  1  0.26192324  0.23081248  0.98202017  1
  O  O290  1  0.27160450  0.56603246  0.47843033  1
  O  O291  1  0.25409905  0.56994766  0.98285897  1
  O  O292  1  0.27261673  0.90251379  0.47641893  1
  O  O293  1  0.27257230  0.90759147  0.97716061  1
  O  O294  1  0.58985462  0.25069183  0.47459850  1
  O  O295  1  0.60437482  0.23844183  0.97608425  1
  O  O296  1  0.59073214  0.56128908  0.47289056  1
  O  O297  1  0.60594674  0.57536246  0.97657760  1
  O  O298  1  0.58319976  0.90043774  0.48257449  1
  O  O299  1  0.59705730  0.90622269  0.97369142  1
  O  O300  1  0.92565802  0.23518950  0.48004267  1
  O  O301  1  0.92666494  0.23569727  0.96443626  1
  O  O302  1  0.93360926  0.56395249  0.47953101  1
  O  O303  1  0.92362802  0.56646147  0.97013310  1
  O  O304  1  0.92511396  0.90790075  0.48259685  1
  O  O305  1  0.92975542  0.89716820  0.97183152  1
  O  O306  1  0.24313282  0.06516409  0.46999959  1
  O  O307  1  0.24871590  0.07428994  0.97449688  1
  O  O308  1  0.24506333  0.41070475  0.46926314  1
  O  O309  1  0.23720363  0.41143468  0.98238326  1
  O  O310  1  0.25005819  0.73893735  0.48412438  1
  O  O311  1  0.24465532  0.74682177  0.97873848  1
  O  O312  1  0.57004071  0.07690283  0.49196390  1
  O  O313  1  0.57124115  0.06562822  0.97790519  1
  O  O314  1  0.56400693  0.40254937  0.47245645  1
  O  O315  1  0.57760503  0.39881873  0.97476891  1
  O  O316  1  0.56248231  0.74220966  0.48322492  1
  O  O317  1  0.57803755  0.74581040  0.97557810  1
  O  O318  1  0.90421865  0.08307550  0.48054304  1
  O  O319  1  0.90247415  0.06298307  0.97392229  1
  O  O320  1  0.90895531  0.41732930  0.48356647  1
  O  O321  1  0.89359642  0.40800262  0.97161662  1
  O  O322  1  0.91771820  0.73343990  0.48721071  1
  O  O323  1  0.89746385  0.74018439  0.97359086  1
  O  O324  1  0.09259015  0.25631763  0.22335730  1
  O  O325  1  0.10369348  0.27004681  0.72949265  1
  O  O326  1  0.09575456  0.60419965  0.22761015  1
  O  O327  1  0.08652367  0.58854020  0.73093835  1
  O  O328  1  0.10351365  0.92026485  0.23373258  1
  O  O329  1  0.09922916  0.91885544  0.73681148  1
  O  O330  1  0.43506812  0.26500003  0.23570205  1
  O  O331  1  0.44451326  0.26679332  0.72529582  1
  O  O332  1  0.42771949  0.58622509  0.22795896  1
  O  O333  1  0.41955169  0.59462129  0.73363782  1
  O  O334  1  0.43124419  0.92790921  0.22243121  1
  O  O335  1  0.43646758  0.93628327  0.73053018  1
  O  O336  1  0.75035151  0.25994923  0.23078809  1
  O  O337  1  0.76848048  0.26278865  0.73956651  1
  O  O338  1  0.76318920  0.60058384  0.22742310  1
  O  O339  1  0.77087918  0.59603920  0.74369217  1
  O  O340  1  0.74947143  0.93111634  0.23275027  1
  O  O341  1  0.76814231  0.92921440  0.74482295  1
  O  O342  1  0.06855164  0.09614570  0.21367312  1
  O  O343  1  0.06692634  0.09640042  0.75233228  1
  O  O344  1  0.07806514  0.42777351  0.23721824  1
  O  O345  1  0.06666294  0.43335680  0.72336199  1
  O  O346  1  0.07138654  0.76180372  0.21991727  1
  O  O347  1  0.07678968  0.76345935  0.73505517  1
  O  O348  1  0.40543697  0.10124222  0.22396367  1
  O  O349  1  0.41297846  0.09912770  0.73615335  1
  O  O350  1  0.40220422  0.43248885  0.23091457  1
  O  O351  1  0.40719287  0.42613249  0.71124640  1
  O  O352  1  0.40282158  0.77006181  0.22749284  1
  O  O353  1  0.39506622  0.76803678  0.73125995  1
  O  O354  1  0.72565884  0.09550396  0.22537661  1
  O  O355  1  0.73342466  0.10196832  0.74101051  1
  O  O356  1  0.73305084  0.43572093  0.23795711  1
  O  O357  1  0.73820316  0.43386235  0.74092299  1
  O  O358  1  0.74101335  0.75130552  0.22486218  1
  O  O359  1  0.73811679  0.76850821  0.74516381  1
