# generated using pymatgen
data_BaLaInIrO6
_symmetry_space_group_name_H-M   'P 1'
_cell_length_a   17.53270135
_cell_length_b   17.55433002
_cell_length_c   16.51906622
_cell_angle_alpha   90.04723457
_cell_angle_beta   90.01554113
_cell_angle_gamma   90.04284601
_symmetry_Int_Tables_number   1
_chemical_formula_structural   BaLaInIrO6
_chemical_formula_sum   'Ba36 La36 In36 Ir36 O216'
_cell_volume   5084.14938669
_cell_formula_units_Z   36
loop_
 _symmetry_equiv_pos_site_id
 _symmetry_equiv_pos_as_xyz
  1  'x, y, z'
loop_
 _atom_site_type_symbol
 _atom_site_label
 _atom_site_symmetry_multiplicity
 _atom_site_fract_x
 _atom_site_fract_y
 _atom_site_fract_z
 _atom_site_occupancy
  Ba  Ba0  1  0.83191425  0.66200163  0.87617247  1
  Ba  Ba1  1  0.33788502  0.17143245  0.12485106  1
  Ba  Ba2  1  0.67030969  0.51203550  0.12797986  1
  Ba  Ba3  1  -0.00080596  0.15871068  0.87305256  1
  Ba  Ba4  1  0.49684045  0.00978025  0.12476147  1
  Ba  Ba5  1  0.66378645  0.48472939  0.37632589  1
  Ba  Ba6  1  0.66635323  0.50980970  0.62585008  1
  Ba  Ba7  1  0.16455647  0.99036628  0.87112622  1
  Ba  Ba8  1  0.16441477  0.32185280  0.87507324  1
  Ba  Ba9  1  1.00015862  0.83434843  0.12190451  1
  Ba  Ba10  1  0.99814466  0.50731163  0.12536820  1
  Ba  Ba11  1  -0.00148036  0.49181182  0.37083172  1
  Ba  Ba12  1  0.33498341  0.15843014  0.37715776  1
  Ba  Ba13  1  0.50027086  0.01430704  0.62462494  1
  Ba  Ba14  1  0.66394183  0.15019411  0.86797533  1
  Ba  Ba15  1  1.00269727  0.17364147  0.62441635  1
  Ba  Ba16  1  0.16999980  0.00298905  0.12540748  1
  Ba  Ba17  1  0.66532092  0.84593523  0.62287533  1
  Ba  Ba18  1  0.66870486  0.17205101  0.62173358  1
  Ba  Ba19  1  0.66253673  0.82766897  0.37591038  1
  Ba  Ba20  1  0.33327039  0.82656875  0.87210077  1
  Ba  Ba21  1  0.83336137  0.67633334  0.13107668  1
  Ba  Ba22  1  0.16967103  0.67130751  0.12446520  1
  Ba  Ba23  1  0.50815201  0.65784006  0.37669272  1
  Ba  Ba24  1  0.67032706  0.84899008  0.12641496  1
  Ba  Ba25  1  0.82612640  0.34454840  0.62271425  1
  Ba  Ba26  1  0.00252631  0.49663143  0.87235680  1
  Ba  Ba27  1  0.33514770  0.17448170  0.62369358  1
  Ba  Ba28  1  0.33325001  0.82991322  0.37441379  1
  Ba  Ba29  1  0.16935601  0.33736438  0.12297225  1
  Ba  Ba30  1  0.00203680  0.82670266  0.87714341  1
  Ba  Ba31  1  0.32748928  0.48998397  0.87448962  1
  Ba  Ba32  1  0.66688821  0.15484425  0.37476676  1
  Ba  Ba33  1  0.83235123  0.32298119  0.37049542  1
  Ba  Ba34  1  0.16759475  0.68009728  0.63048307  1
  Ba  Ba35  1  0.16409068  0.99429282  0.38092383  1
  La  La36  1  0.50408067  0.98659366  0.87152654  1
  La  La37  1  0.84150038  0.31833729  0.86825427  1
  La  La38  1  -0.00253894  0.81559466  0.37869581  1
  La  La39  1  0.82603664  0.01265184  0.62368538  1
  La  La40  1  0.33819255  0.85412955  0.62593811  1
  La  La41  1  -0.00568502  0.15495857  0.36231188  1
  La  La42  1  0.34423731  0.51742216  0.12463307  1
  La  La43  1  0.82912376  0.34605643  0.12416572  1
  La  La44  1  0.83017899  0.68044383  0.62956839  1
  La  La45  1  0.49510801  0.68928389  0.12696707  1
  La  La46  1  0.82984678  0.99162287  0.37545352  1
  La  La47  1  0.16963390  0.65293404  0.37599155  1
  La  La48  1  0.66658056  0.17689633  0.12501183  1
  La  La49  1  0.50707973  0.99114559  0.37332883  1
  La  La50  1  0.33153970  0.48800107  0.37875604  1
  La  La51  1  0.50999117  0.65153557  0.87323742  1
  La  La52  1  1.00140505  0.51270025  0.62125038  1
  La  La53  1  0.49402760  0.68835915  0.62708914  1
  La  La54  1  0.50889807  0.31429506  0.37553529  1
  La  La55  1  0.33257931  0.84948749  0.12603385  1
  La  La56  1  0.50210366  0.31065258  0.87427176  1
  La  La57  1  0.16398154  0.34899803  0.62405215  1
  La  La58  1  0.66249062  0.48139688  0.87484327  1
  La  La59  1  1.00468287  0.84859921  0.63031833  1
  La  La60  1  0.66302673  0.82419161  0.87511600  1
  La  La61  1  0.34171056  0.51827378  0.62663914  1
  La  La62  1  0.16947824  0.32141345  0.37763712  1
  La  La63  1  0.50559171  0.33353007  0.62574744  1
  La  La64  1  0.82732350  0.01109705  0.12209468  1
  La  La65  1  0.16490029  0.01147684  0.62729725  1
  La  La66  1  0.16788171  0.65762611  0.88875423  1
  La  La67  1  0.83942358  0.98688274  0.87422878  1
  La  La68  1  0.49106192  0.34632474  0.12729192  1
  La  La69  1  0.83144320  0.65228521  0.37791787  1
  La  La70  1  1.00586197  0.17931506  0.11940078  1
  La  La71  1  0.32798786  0.14866471  0.87516396  1
  In  In72  1  0.82882011  0.49957816  0.25208349  1
  In  In73  1  0.33595025  0.33322162  0.25494992  1
  In  In74  1  0.33563949  0.33096544  -0.00182866  1
  In  In75  1  0.33525788  0.00108243  0.25507944  1
  In  In76  1  -0.00031403  0.33330815  0.24658647  1
  In  In77  1  -0.00304798  -0.00206306  0.00210836  1
  In  In78  1  0.83484804  0.16508730  0.49619159  1
  In  In79  1  0.49944325  0.49960028  0.50134899  1
  In  In80  1  0.66484925  0.66750025  0.00216821  1
  In  In81  1  -0.00133691  0.66514674  -0.00081615  1
  In  In82  1  -0.00177173  -0.00306718  0.50003533  1
  In  In83  1  0.17232905  0.49798935  0.25142505  1
  In  In84  1  0.00003749  0.33228374  0.49802726  1
  In  In85  1  0.82945390  0.83413030  0.00082278  1
  In  In86  1  0.49859815  0.49551020  0.75041448  1
  In  In87  1  0.17052677  0.49792347  0.00254629  1
  In  In88  1  0.33319139  0.67194340  0.50189495  1
  In  In89  1  0.16530095  0.16478088  0.24977540  1
  In  In90  1  0.16876122  0.16273146  -0.00038939  1
  In  In91  1  -0.00156933  0.33533275  0.74347765  1
  In  In92  1  0.66822079  0.32885117  0.75087836  1
  In  In93  1  0.34118240  0.67168011  -0.00188838  1
  In  In94  1  0.16875935  0.50420424  0.74467236  1
  In  In95  1  0.16530065  0.16850510  0.50047996  1
  In  In96  1  0.66497384  0.32951087  -0.00083510  1
  In  In97  1  0.33601020  0.66874240  0.25560001  1
  In  In98  1  0.00120585  0.66689216  0.25327361  1
  In  In99  1  -0.00448937  0.33484623  -0.00292397  1
  In  In100  1  0.50246156  0.49962689  -0.00142616  1
  In  In101  1  0.33551435  0.33552771  0.50206077  1
  In  In102  1  -0.00021425  0.67047445  0.74792806  1
  In  In103  1  0.83612362  0.83286662  0.50211798  1
  In  In104  1  0.66705302  0.66628492  0.50381479  1
  In  In105  1  0.16319073  0.83325909  0.25495457  1
  In  In106  1  0.82902349  0.16567518  -0.00043954  1
  In  In107  1  0.49835862  0.83659836  0.49958990  1
  Ir  Ir108  1  0.33484734  0.00047449  0.50287107  1
  Ir  Ir109  1  0.66856737  -0.00288399  0.75157120  1
  Ir  Ir110  1  0.50101578  0.16217069  -0.00334067  1
  Ir  Ir111  1  0.50658356  0.16600049  0.24809306  1
  Ir  Ir112  1  0.49474910  0.16467633  0.75012025  1
  Ir  Ir113  1  0.83210453  0.16050157  0.74885055  1
  Ir  Ir114  1  0.66436285  0.33093553  0.49672233  1
  Ir  Ir115  1  0.50159070  0.16665052  0.50027464  1
  Ir  Ir116  1  0.82779037  0.50424372  0.75077738  1
  Ir  Ir117  1  0.17186627  0.16334416  0.74845830  1
  Ir  Ir118  1  0.50012861  0.83750053  -0.00195484  1
  Ir  Ir119  1  0.49962405  0.83443787  0.75434696  1
  Ir  Ir120  1  0.83023333  0.83731744  0.25649696  1
  Ir  Ir121  1  0.66677191  0.00218966  0.50006848  1
  Ir  Ir122  1  0.50276615  0.50099110  0.24794719  1
  Ir  Ir123  1  0.66100435  0.32787474  0.24745671  1
  Ir  Ir124  1  0.17146154  0.83440699  0.74845060  1
  Ir  Ir125  1  0.33774223  0.67181371  0.75009465  1
  Ir  Ir126  1  0.16793229  0.50300622  0.50243462  1
  Ir  Ir127  1  0.83546733  0.50140999  0.50485497  1
  Ir  Ir128  1  0.16466571  0.83415275  0.50782019  1
  Ir  Ir129  1  0.17305113  0.83437051  -0.00337648  1
  Ir  Ir130  1  -0.01008232  -0.00280766  0.24959391  1
  Ir  Ir131  1  0.82514664  0.49987749  -0.00502672  1
  Ir  Ir132  1  -0.00265248  -0.00231391  0.74852299  1
  Ir  Ir133  1  0.83102548  0.83626465  0.74829821  1
  Ir  Ir134  1  0.00059018  0.66570781  0.50363808  1
  Ir  Ir135  1  0.83181574  0.16042114  0.24532201  1
  Ir  Ir136  1  0.66597098  0.66991122  0.75102115  1
  Ir  Ir137  1  0.33536227  -0.00019095  0.74893424  1
  Ir  Ir138  1  0.50335085  0.83801617  0.24543724  1
  Ir  Ir139  1  0.34022720  -0.00316682  -0.00524541  1
  Ir  Ir140  1  0.33242728  0.33003665  0.74754871  1
  Ir  Ir141  1  0.66424231  0.00143636  -0.00130335  1
  Ir  Ir142  1  0.66426843  0.67060165  0.25119857  1
  Ir  Ir143  1  0.66767146  0.00268710  0.24736210  1
  O  O144  1  0.32501683  0.32487788  0.12862642  1
  O  O145  1  0.30114486  0.32616310  0.62989460  1
  O  O146  1  0.32385610  0.66167165  0.12835816  1
  O  O147  1  0.31461804  0.66258313  0.63206969  1
  O  O148  1  0.32759826  0.99085517  0.11779966  1
  O  O149  1  0.30391378  0.99579903  0.62653996  1
  O  O150  1  0.62938876  0.32387928  0.12853292  1
  O  O151  1  0.64180660  0.33149607  0.62052917  1
  O  O152  1  0.63375911  0.66754121  0.13061431  1
  O  O153  1  0.63375980  0.66587235  0.63474673  1
  O  O154  1  0.64183696  1.00766384  0.12334341  1
  O  O155  1  0.64644657  1.00306729  0.62573015  1
  O  O156  1  0.95976628  0.31756780  0.12208986  1
  O  O157  1  0.97315378  0.33000976  0.62170650  1
  O  O158  1  0.98493320  0.66903752  0.12697571  1
  O  O159  1  0.96602947  0.66259973  0.62051856  1
  O  O160  1  0.96113887  0.98564000  0.13214707  1
  O  O161  1  0.96600439  0.98717317  0.63029138  1
  O  O162  1  0.18959371  0.15829875  0.12469171  1
  O  O163  1  0.18847747  0.15297762  0.63003618  1
  O  O164  1  0.21136678  0.49899610  0.12801016  1
  O  O165  1  0.20592188  0.49224393  0.61922386  1
  O  O166  1  0.19465231  0.83025234  0.11802786  1
  O  O167  1  0.20056412  0.83286377  0.62817898  1
  O  O168  1  0.53210435  0.15997659  0.12240373  1
  O  O169  1  0.52131054  0.16968800  0.62568783  1
  O  O170  1  0.52629222  0.48394473  0.13012233  1
  O  O171  1  0.51901545  0.47222607  0.62790654  1
  O  O172  1  0.52450065  0.82902579  0.12054039  1
  O  O173  1  0.51718153  0.82975698  0.63504982  1
  O  O174  1  0.86357157  0.15145336  0.12843705  1
  O  O175  1  0.85088962  0.15074772  0.62863803  1
  O  O176  1  0.84217138  0.48751908  0.11680211  1
  O  O177  1  0.86206536  0.49844411  0.62885646  1
  O  O178  1  0.84638531  0.83528345  0.13672622  1
  O  O179  1  0.86541554  0.82692096  0.63061747  1
  O  O180  1  0.12786935  0.17356652  0.37552491  1
  O  O181  1  0.15284033  0.15976629  0.86675493  1
  O  O182  1  0.14472701  0.51448161  0.38688349  1
  O  O183  1  0.15537367  0.51904524  0.86911439  1
  O  O184  1  0.13357304  0.84235817  0.38987182  1
  O  O185  1  0.15112704  0.83604007  0.87072041  1
  O  O186  1  0.48337395  0.17691956  0.37326190  1
  O  O187  1  0.46714678  0.17156459  0.87408817  1
  O  O188  1  0.47224599  0.50562090  0.36711999  1
  O  O189  1  0.47548754  0.51761617  0.87185318  1
  O  O190  1  0.48608049  0.84765687  0.36767484  1
  O  O191  1  0.48150187  0.84691351  0.87589951  1
  O  O192  1  0.81499058  0.15626086  0.36473276  1
  O  O193  1  0.81213807  0.16949326  0.86697974  1
  O  O194  1  0.81347862  0.51264790  0.38435622  1
  O  O195  1  0.79498417  0.50975005  0.87191088  1
  O  O196  1  0.80992272  0.85085593  0.37522826  1
  O  O197  1  0.79803935  0.84683024  0.86622026  1
  O  O198  1  0.01197950  0.01421530  0.36874427  1
  O  O199  1  0.01493376  0.00130971  0.86738123  1
  O  O200  1  0.03133510  0.33491731  0.37376446  1
  O  O201  1  0.00926380  0.33761689  0.86766365  1
  O  O202  1  0.03272773  0.67488408  0.38706818  1
  O  O203  1  0.02997668  0.66712477  0.87119299  1
  O  O204  1  0.36783652  -0.00245142  0.38342000  1
  O  O205  1  0.36613068  0.00588025  0.87060705  1
  O  O206  1  0.37683343  0.34689015  0.37713996  1
  O  O207  1  0.36827643  0.33354243  0.86470655  1
  O  O208  1  0.36222126  0.67682927  0.37913817  1
  O  O209  1  0.37329565  0.67491106  0.86743425  1
  O  O210  1  0.69454229  -0.00094640  0.37356090  1
  O  O211  1  0.69731594  -0.00662823  0.87501876  1
  O  O212  1  0.68393761  0.32698826  0.37173314  1
  O  O213  1  0.70298269  0.33216039  0.87492842  1
  O  O214  1  0.69421877  0.67313083  0.37234349  1
  O  O215  1  0.68164747  0.68473996  0.86924740  1
  O  O216  1  0.06700207  0.09187686  0.02139808  1
  O  O217  1  0.07970465  0.08268840  0.52180433  1
  O  O218  1  0.07075175  0.42659298  0.01645535  1
  O  O219  1  0.07663766  0.43627419  0.52899886  1
  O  O220  1  0.08723969  0.76243930  0.00646441  1
  O  O221  1  0.06391290  0.76847898  0.52723178  1
  O  O222  1  0.40435685  0.09615094  0.00462507  1
  O  O223  1  0.40671798  0.09575521  0.51562737  1
  O  O224  1  0.40625434  0.43088387  0.02777527  1
  O  O225  1  0.39055679  0.44226733  0.51799678  1
  O  O226  1  0.40629969  0.77507081  0.02689140  1
  O  O227  1  0.40276437  0.76808683  0.53183664  1
  O  O228  1  0.72643368  0.09651840  0.02194424  1
  O  O229  1  0.74027789  0.08718061  0.51521365  1
  O  O230  1  0.73155665  0.43494518  0.00743515  1
  O  O231  1  0.73819549  0.43055648  0.51555331  1
  O  O232  1  0.72830819  0.76961157  0.00379060  1
  O  O233  1  0.74984758  0.75343966  0.52698276  1
  O  O234  1  0.08501729  0.25118508  0.01502087  1
  O  O235  1  0.10360754  0.27086000  0.52672134  1
  O  O236  1  0.09675563  0.59573538  0.00918576  1
  O  O237  1  0.09490882  0.59538612  0.52735065  1
  O  O238  1  0.09786513  0.92053441  0.01189637  1
  O  O239  1  0.09867047  0.92427107  0.53638350  1
  O  O240  1  0.44381816  0.26229627  0.01592310  1
  O  O241  1  0.43925879  0.26542509  0.52014071  1
  O  O242  1  0.44097605  0.60345549  0.02576766  1
  O  O243  1  0.43086181  0.59915523  0.53600063  1
  O  O244  1  0.43776605  0.93410203  0.00468317  1
  O  O245  1  0.42058908  0.92835820  0.52339709  1
  O  O246  1  0.75542169  0.25785411  0.03835525  1
  O  O247  1  0.75637499  0.26024588  0.50940954  1
  O  O248  1  0.76293393  0.59455324  0.01641599  1
  O  O249  1  0.77421559  0.59772271  0.52359315  1
  O  O250  1  0.75958106  0.93997275  0.02078431  1
  O  O251  1  0.76280206  0.93427591  0.52057905  1
  O  O252  1  0.24147797  0.07230639  0.27038118  1
  O  O253  1  0.24463339  0.07076635  0.76986980  1
  O  O254  1  0.24506610  0.40817058  0.29602160  1
  O  O255  1  0.24138666  0.39707303  0.76256826  1
  O  O256  1  0.23141029  0.73385151  0.27748896  1
  O  O257  1  0.23866698  0.73657942  0.77575106  1
  O  O258  1  0.57098008  0.06802912  0.27162293  1
  O  O259  1  0.56624078  0.06644133  0.77268367  1
  O  O260  1  0.56498071  0.39517882  0.27062572  1
  O  O261  1  0.57101524  0.39934257  0.78145468  1
  O  O262  1  0.57163675  0.74367640  0.26304053  1
  O  O263  1  0.56810721  0.73874071  0.77644773  1
  O  O264  1  0.89177978  0.06138633  0.26894535  1
  O  O265  1  0.90026548  0.06457597  0.77095903  1
  O  O266  1  0.90112744  0.40506531  0.25593866  1
  O  O267  1  0.89224856  0.41118616  0.77214888  1
  O  O268  1  0.89540139  0.74514240  0.28543652  1
  O  O269  1  0.90112316  0.74630351  0.76461382  1
  O  O270  1  0.25025936  0.24939016  0.28094722  1
  O  O271  1  0.26677965  0.23171754  0.77413259  1
  O  O272  1  0.27317050  0.56699336  0.28037718  1
  O  O273  1  0.26965726  0.58169552  0.76263571  1
  O  O274  1  0.26162011  0.90353703  0.25461301  1
  O  O275  1  0.26887466  0.90407873  0.75833428  1
  O  O276  1  0.59918717  0.23190644  0.26141136  1
  O  O277  1  0.58193876  0.23765719  0.76771347  1
  O  O278  1  0.59658070  0.57353508  0.26968301  1
  O  O279  1  0.60096387  0.57618500  0.77682418  1
  O  O280  1  0.59218569  0.91583998  0.27204138  1
  O  O281  1  0.59524689  0.90603369  0.77928038  1
  O  O282  1  0.92328143  0.22644919  0.26824330  1
  O  O283  1  0.91713120  0.23639802  0.76401596  1
  O  O284  1  0.91462127  0.58383236  0.27263944  1
  O  O285  1  0.91593343  0.57371607  0.76160660  1
  O  O286  1  0.92331921  0.90355967  0.28594555  1
  O  O287  1  0.92108204  0.90875178  0.77445057  1
  O  O288  1  0.25718356  0.24769720  0.47519226  1
  O  O289  1  0.27015601  0.22961717  0.97391405  1
  O  O290  1  0.26218994  0.56970931  0.47937203  1
  O  O291  1  0.26284288  0.58250824  0.98209507  1
  O  O292  1  0.26486596  0.90177869  0.49281916  1
  O  O293  1  0.27463805  0.90016111  0.99448399  1
  O  O294  1  0.59435592  0.23742975  0.47952454  1
  O  O295  1  0.59206951  0.22854100  0.97912301  1
  O  O296  1  0.59634242  0.57004002  0.48664768  1
  O  O297  1  0.60071702  0.56982655  0.96852182  1
  O  O298  1  0.58872491  0.91898567  0.48322774  1
  O  O299  1  0.59811762  0.90430736  0.97240979  1
  O  O300  1  0.93504902  0.22776558  0.47160015  1
  O  O301  1  0.91451625  0.24451687  0.97250619  1
  O  O302  1  0.93444334  0.56786767  0.48816884  1
  O  O303  1  0.91716059  0.56514723  0.98364743  1
  O  O304  1  0.94106032  0.89102925  0.48614011  1
  O  O305  1  0.91749660  0.91097584  0.97533844  1
  O  O306  1  0.24666903  0.07149494  0.48833446  1
  O  O307  1  0.24989877  0.06437218  0.97899786  1
  O  O308  1  0.22962521  0.40839504  0.47737638  1
  O  O309  1  0.24136864  0.40217922  0.97884500  1
  O  O310  1  0.22750067  0.74037305  0.48089644  1
  O  O311  1  0.24046023  0.74294826  0.97726381  1
  O  O312  1  0.56868342  0.06977593  0.47577835  1
  O  O313  1  0.56576565  0.06363420  0.97234457  1
  O  O314  1  0.56621942  0.39312922  0.48063210  1
  O  O315  1  0.56880297  0.39829209  0.96779973  1
  O  O316  1  0.57314872  0.74378280  0.49568302  1
  O  O317  1  0.55888983  0.73923287  0.97999481  1
  O  O318  1  0.89410805  0.05756929  0.48647152  1
  O  O319  1  0.89207501  0.06427653  0.98306651  1
  O  O320  1  0.90239500  0.41167962  0.48280166  1
  O  O321  1  0.88388744  0.40209957  0.97871482  1
  O  O322  1  0.90780335  0.72897177  0.47338725  1
  O  O323  1  0.90782325  0.74396116  0.98687462  1
  O  O324  1  0.08058421  0.24754310  0.21881674  1
  O  O325  1  0.10430587  0.25510572  0.72659775  1
  O  O326  1  0.10175741  0.59860976  0.24999583  1
  O  O327  1  0.08117511  0.58607988  0.71625414  1
  O  O328  1  0.08348166  0.93414781  0.23712092  1
  O  O329  1  0.09567958  0.92775425  0.72091777  1
  O  O330  1  0.44391832  0.26262849  0.23310137  1
  O  O331  1  0.43190044  0.26519372  0.72782261  1
  O  O332  1  0.44099506  0.59408940  0.22146888  1
  O  O333  1  0.43169401  0.60425788  0.72505062  1
  O  O334  1  0.42925214  0.92278764  0.23331216  1
  O  O335  1  0.42778978  0.92747908  0.72942754  1
  O  O336  1  0.76185545  0.25660173  0.22000339  1
  O  O337  1  0.76123779  0.25040797  0.73179821  1
  O  O338  1  0.75315663  0.59841856  0.23998923  1
  O  O339  1  0.76101861  0.60395729  0.72492918  1
  O  O340  1  0.76668921  0.93847117  0.23170067  1
  O  O341  1  0.76492921  0.93164043  0.72554007  1
  O  O342  1  0.04980777  0.09243633  0.22703691  1
  O  O343  1  0.07976114  0.08418033  0.72273199  1
  O  O344  1  0.07864824  0.42417526  0.22948038  1
  O  O345  1  0.07712042  0.42565334  0.71418333  1
  O  O346  1  0.06072412  0.77235492  0.25189548  1
  O  O347  1  0.07471547  0.77138161  0.72729626  1
  O  O348  1  0.41608202  0.09655057  0.23949933  1
  O  O349  1  0.40209803  0.09508111  0.73720524  1
  O  O350  1  0.40919499  0.43702080  0.22467005  1
  O  O351  1  0.39575880  0.42329340  0.72178364  1
  O  O352  1  0.41250819  0.76797647  0.22208048  1
  O  O353  1  0.40548258  0.76611702  0.72335029  1
  O  O354  1  0.73732932  0.09403710  0.21688824  1
  O  O355  1  0.74319846  0.08393297  0.72652406  1
  O  O356  1  0.73520799  0.41458973  0.23223805  1
  O  O357  1  0.73672569  0.43503007  0.74060344  1
  O  O358  1  0.73529650  0.76451981  0.23431627  1
  O  O359  1  0.73996345  0.76244099  0.72517923  1
