# generated using pymatgen
data_BaLaInIrO6
_symmetry_space_group_name_H-M   'P 1'
_cell_length_a   17.51801700
_cell_length_b   17.54439893
_cell_length_c   16.47598178
_cell_angle_alpha   89.96860959
_cell_angle_beta   90.00311355
_cell_angle_gamma   89.94848564
_symmetry_Int_Tables_number   1
_chemical_formula_structural   BaLaInIrO6
_chemical_formula_sum   'Ba36 La36 In36 Ir36 O216'
_cell_volume   5063.77615106
_cell_formula_units_Z   36
loop_
 _symmetry_equiv_pos_site_id
 _symmetry_equiv_pos_as_xyz
  1  'x, y, z'
loop_
 _atom_site_type_symbol
 _atom_site_label
 _atom_site_symmetry_multiplicity
 _atom_site_fract_x
 _atom_site_fract_y
 _atom_site_fract_z
 _atom_site_occupancy
  Ba  Ba0  1  0.66846325  0.82614397  0.87513432  1
  Ba  Ba1  1  0.83411900  0.01197323  0.62844765  1
  Ba  Ba2  1  1.00353492  0.84480033  0.62815688  1
  Ba  Ba3  1  0.16497065  0.67637282  0.12185934  1
  Ba  Ba4  1  0.83609775  0.33900126  0.62216274  1
  Ba  Ba5  1  0.66679850  0.84069050  0.12367454  1
  Ba  Ba6  1  0.49841529  0.31660243  0.37282630  1
  Ba  Ba7  1  1.00458790  0.84226001  0.12536508  1
  Ba  Ba8  1  0.16488120  0.65932510  0.87465210  1
  Ba  Ba9  1  0.33315082  0.84359189  0.12579931  1
  Ba  Ba10  1  0.16517357  0.32425594  0.88240916  1
  Ba  Ba11  1  -0.00240474  0.49254885  0.87851726  1
  Ba  Ba12  1  0.50049508  0.33882319  0.12592934  1
  Ba  Ba13  1  0.50358814  0.00562226  0.62565925  1
  Ba  Ba14  1  1.00430329  0.51123060  0.12543458  1
  Ba  Ba15  1  -0.00230828  0.15563172  0.37778431  1
  Ba  Ba16  1  0.16369902  0.99313540  0.37484605  1
  Ba  Ba17  1  0.33428218  0.17011820  0.62580971  1
  Ba  Ba18  1  0.15949933  0.34110810  0.62519463  1
  Ba  Ba19  1  0.82806632  0.34318035  0.12749903  1
  Ba  Ba20  1  0.33219037  0.83839240  0.62271877  1
  Ba  Ba21  1  0.50134920  0.67419888  0.62409126  1
  Ba  Ba22  1  0.16785279  0.66417815  0.36913243  1
  Ba  Ba23  1  0.33096042  0.82660433  0.37472257  1
  Ba  Ba24  1  0.66859599  0.49385520  0.87124931  1
  Ba  Ba25  1  0.33114695  0.49250498  0.37640319  1
  Ba  Ba26  1  1.00146264  0.17466477  0.62358835  1
  Ba  Ba27  1  0.33248886  0.15217584  0.88130139  1
  Ba  Ba28  1  0.65938690  0.48725135  0.37869915  1
  Ba  Ba29  1  0.83958544  0.66004056  0.87753470  1
  Ba  Ba30  1  -0.00262063  0.49345556  0.37255578  1
  Ba  Ba31  1  0.00015924  0.82298674  0.37647401  1
  Ba  Ba32  1  0.33481647  0.50894448  0.12299033  1
  Ba  Ba33  1  0.66450056  0.15591345  0.37273574  1
  Ba  Ba34  1  0.16419200  0.34212044  0.12719142  1
  Ba  Ba35  1  0.49760048  0.99099590  0.87407113  1
  La  La36  1  0.50543075  0.65718934  0.87449027  1
  La  La37  1  0.33565207  0.51390086  0.62842790  1
  La  La38  1  0.16218339  0.00797225  0.12698128  1
  La  La39  1  0.49612422  0.68131900  0.12377581  1
  La  La40  1  0.17193132  0.99034053  0.87437130  1
  La  La41  1  0.16906630  0.67291068  0.60709104  1
  La  La42  1  1.00239697  0.51640880  0.62311703  1
  La  La43  1  0.17207978  0.31652451  0.37306408  1
  La  La44  1  0.66120459  0.15523016  0.87716212  1
  La  La45  1  0.83474163  0.68347041  0.12667997  1
  La  La46  1  0.32570956  0.48367300  0.87418078  1
  La  La47  1  0.83319331  0.31239406  0.37918287  1
  La  La48  1  0.66623039  0.82553397  0.37530632  1
  La  La49  1  1.00777103  0.17661822  0.12590241  1
  La  La50  1  0.49667887  0.99584328  0.37834582  1
  La  La51  1  0.84173502  0.98387302  0.87225197  1
  La  La52  1  0.67175297  0.52142714  0.12424278  1
  La  La53  1  0.50165169  0.31760928  0.87819476  1
  La  La54  1  0.67314551  0.84492961  0.62464783  1
  La  La55  1  0.82732119  0.68149566  0.62263383  1
  La  La56  1  0.84250824  0.65371439  0.37208914  1
  La  La57  1  0.66679258  0.17989189  0.12499679  1
  La  La58  1  0.49435769  0.34294107  0.62368676  1
  La  La59  1  0.15669422  0.01469850  0.62456792  1
  La  La60  1  0.32963224  0.16001967  0.37326239  1
  La  La61  1  0.67023487  0.18022931  0.62463498  1
  La  La62  1  0.84128005  0.31702309  0.87626202  1
  La  La63  1  0.50369219  0.65459809  0.36863850  1
  La  La64  1  0.67047718  0.51549936  0.62307745  1
  La  La65  1  -0.00075220  0.81646934  0.87887101  1
  La  La66  1  0.32980923  0.82371589  0.87533577  1
  La  La67  1  0.33455035  0.17927269  0.12128611  1
  La  La68  1  -0.00043043  0.15711875  0.86901168  1
  La  La69  1  0.49523794  0.01335589  0.12136403  1
  La  La70  1  0.84386053  0.98634474  0.37799726  1
  La  La71  1  0.83354394  0.01302133  0.12664776  1
  In  In72  1  0.00014619  0.33404287  0.49608654  1
  In  In73  1  0.50067883  0.49886468  -0.00203887  1
  In  In74  1  0.83407783  0.16349347  0.24965066  1
  In  In75  1  0.16622786  0.83287135  0.75247273  1
  In  In76  1  0.33243071  -0.00229634  0.74764105  1
  In  In77  1  0.50110245  0.16666665  0.74842499  1
  In  In78  1  0.16589119  0.83639041  0.49984137  1
  In  In79  1  0.50157545  0.83520584  0.49879539  1
  In  In80  1  0.83638800  0.83697614  0.00258606  1
  In  In81  1  0.66704234  0.00039499  0.00259136  1
  In  In82  1  0.66926548  0.33680534  -0.00426347  1
  In  In83  1  0.66664188  0.33443926  0.25103246  1
  In  In84  1  -0.00149590  0.33646635  0.74898147  1
  In  In85  1  0.50188185  0.49901879  0.24773892  1
  In  In86  1  0.50029229  0.83824553  0.25021218  1
  In  In87  1  0.33189541  0.33408512  0.24872855  1
  In  In88  1  -0.00219128  0.33476775  0.25321794  1
  In  In89  1  0.83499489  0.16286174  -0.00056117  1
  In  In90  1  0.33495699  0.66629837  0.49701292  1
  In  In91  1  0.83077746  0.49581976  0.49757538  1
  In  In92  1  0.16748865  0.50150144  0.00160742  1
  In  In93  1  0.16636494  0.50254632  0.74669766  1
  In  In94  1  0.83515337  0.49838682  0.74749208  1
  In  In95  1  0.66913266  0.67028655  0.49643917  1
  In  In96  1  0.67022325  0.67082205  0.25222113  1
  In  In97  1  0.66912494  0.00088708  0.75182694  1
  In  In98  1  0.16892765  0.16838521  0.75342423  1
  In  In99  1  0.66738951  -0.00050451  0.25000515  1
  In  In100  1  0.00095836  0.66810169  0.74497651  1
  In  In101  1  0.50045597  0.49648449  0.75213089  1
  In  In102  1  0.66844959  0.67036658  0.75112940  1
  In  In103  1  0.49998467  0.49765364  0.50346180  1
  In  In104  1  -0.00295776  0.33271975  0.00209161  1
  In  In105  1  0.33055306  0.33195376  0.50367067  1
  In  In106  1  0.16733600  0.83518693  0.24811150  1
  In  In107  1  0.33472379  0.66515350  0.75348319  1
  Ir  Ir108  1  -0.00612782  0.66651095  0.49623950  1
  Ir  Ir109  1  0.16522944  0.50298418  0.25333276  1
  Ir  Ir110  1  0.82995394  0.50443539  0.24554315  1
  Ir  Ir111  1  0.33119605  -0.00245598  0.00499478  1
  Ir  Ir112  1  0.16365794  0.50045312  0.49601585  1
  Ir  Ir113  1  0.66649903  0.33093694  0.74992324  1
  Ir  Ir114  1  0.49586724  0.15994073  0.24818769  1
  Ir  Ir115  1  0.67238808  -0.00156073  0.49893542  1
  Ir  Ir116  1  0.00370918  0.00029095  -0.00182600  1
  Ir  Ir117  1  0.66589402  0.66931266  0.00006694  1
  Ir  Ir118  1  0.33651731  0.66703791  0.24361078  1
  Ir  Ir119  1  0.16628748  0.83785808  -0.00145793  1
  Ir  Ir120  1  0.33321173  0.00604341  0.49657399  1
  Ir  Ir121  1  -0.00210353  0.66832789  0.00413675  1
  Ir  Ir122  1  0.50331402  0.16258208  0.49878251  1
  Ir  Ir123  1  0.50136720  0.83285880  0.75167700  1
  Ir  Ir124  1  0.16646495  0.15885189  0.00638666  1
  Ir  Ir125  1  -0.00328355  0.66604804  0.25064909  1
  Ir  Ir126  1  0.33490429  0.32831764  -0.00209281  1
  Ir  Ir127  1  -0.00227651  0.00096784  0.50163642  1
  Ir  Ir128  1  0.83767105  0.83640437  0.74703227  1
  Ir  Ir129  1  0.33348027  0.00646380  0.24718608  1
  Ir  Ir130  1  0.83011242  0.50542238  0.00548311  1
  Ir  Ir131  1  0.82787703  0.16317693  0.50385763  1
  Ir  Ir132  1  0.33490095  0.33191874  0.75080217  1
  Ir  Ir133  1  0.16770840  0.16002773  0.24876991  1
  Ir  Ir134  1  0.33910756  0.67209058  -0.00000471  1
  Ir  Ir135  1  0.82743878  0.16748289  0.74988004  1
  Ir  Ir136  1  0.49795318  0.83267857  -0.00311086  1
  Ir  Ir137  1  0.83608245  0.83643273  0.25155119  1
  Ir  Ir138  1  0.66234849  0.32712016  0.50581764  1
  Ir  Ir139  1  0.83322116  0.83714710  0.49946980  1
  Ir  Ir140  1  -0.00370376  -0.00157156  0.24739364  1
  Ir  Ir141  1  0.00112489  0.00337150  0.75375600  1
  Ir  Ir142  1  0.49858869  0.16486080  0.00129297  1
  Ir  Ir143  1  0.16793034  0.16128037  0.49475391  1
  O  O144  1  0.31316131  0.31776833  0.11922030  1
  O  O145  1  0.30936552  0.32236668  0.63227282  1
  O  O146  1  0.31309686  0.66898780  0.12049552  1
  O  O147  1  0.30083265  0.65805847  0.62684587  1
  O  O148  1  0.30085285  1.00229635  0.12678885  1
  O  O149  1  0.29969318  1.00252215  0.61570285  1
  O  O150  1  0.65025653  0.31823346  0.12214323  1
  O  O151  1  0.62992192  0.31707123  0.62961173  1
  O  O152  1  0.63648410  0.66613246  0.12041454  1
  O  O153  1  0.65297216  0.67848810  0.62423081  1
  O  O154  1  0.62904836  0.99290757  0.12495567  1
  O  O155  1  0.65311033  0.98579642  0.62074214  1
  O  O156  1  0.97903713  0.31516252  0.12801098  1
  O  O157  1  0.98622588  0.32885356  0.62110683  1
  O  O158  1  0.96998349  0.66929097  0.12879904  1
  O  O159  1  0.96547586  0.66188268  0.61471323  1
  O  O160  1  0.96882996  0.99659798  0.12237594  1
  O  O161  1  0.98040708  1.00278048  0.62782170  1
  O  O162  1  0.19819071  0.14801481  0.12800977  1
  O  O163  1  0.18325228  0.15105765  0.61733552  1
  O  O164  1  0.18444407  0.50290568  0.13361324  1
  O  O165  1  0.19519536  0.49882922  0.61466077  1
  O  O166  1  0.18211836  0.83634726  0.11891650  1
  O  O167  1  0.17771482  0.81561168  0.62645085  1
  O  O168  1  0.52887304  0.15296187  0.12543764  1
  O  O169  1  0.53271198  0.16083893  0.61959508  1
  O  O170  1  0.53633044  0.49832450  0.12036484  1
  O  O171  1  0.53843479  0.47897979  0.62878097  1
  O  O172  1  0.51851249  0.82362950  0.11893716  1
  O  O173  1  0.53482279  0.83213702  0.63056004  1
  O  O174  1  0.87358149  0.15119708  0.12482887  1
  O  O175  1  0.85213744  0.16707486  0.62653225  1
  O  O176  1  0.85372772  0.49907392  0.12539791  1
  O  O177  1  0.86962624  0.48996403  0.62025771  1
  O  O178  1  0.85685234  0.82459406  0.13172181  1
  O  O179  1  0.85723329  0.82257379  0.62187633  1
  O  O180  1  0.14581067  0.17449310  0.37074696  1
  O  O181  1  0.13791388  0.16009235  0.88744783  1
  O  O182  1  0.14387145  0.50834119  0.37335227  1
  O  O183  1  0.15321959  0.50037860  0.87516795  1
  O  O184  1  0.15081078  0.83679990  0.37331875  1
  O  O185  1  0.13469317  0.85302368  0.88199590  1
  O  O186  1  0.46824087  0.16069121  0.37155775  1
  O  O187  1  0.47964996  0.17829107  0.88056428  1
  O  O188  1  0.48214756  0.51653724  0.37639497  1
  O  O189  1  0.46312148  0.51564464  0.87651530  1
  O  O190  1  0.47695417  0.86176754  0.37403973  1
  O  O191  1  0.46780778  0.83528275  0.87438160  1
  O  O192  1  0.81176701  0.16504081  0.38344834  1
  O  O193  1  0.79826659  0.17222786  0.86839387  1
  O  O194  1  0.80691647  0.51797045  0.36521657  1
  O  O195  1  0.81588213  0.51011833  0.88546766  1
  O  O196  1  0.80478010  0.84893766  0.37576154  1
  O  O197  1  0.82199078  0.84135330  0.87012710  1
  O  O198  1  0.01563810  -0.00057336  0.37433760  1
  O  O199  1  0.03424378  0.01347973  0.87669437  1
  O  O200  1  0.03777830  0.33384910  0.37439323  1
  O  O201  1  0.01309516  0.33101837  0.87605870  1
  O  O202  1  0.01630252  0.66464634  0.37371634  1
  O  O203  1  0.00934125  0.67352078  0.88180501  1
  O  O204  1  0.36357485  0.01653029  0.37046167  1
  O  O205  1  0.34823158  -0.00424206  0.88562205  1
  O  O206  1  0.34533965  0.32277031  0.37637441  1
  O  O207  1  0.36534622  0.34227780  0.87338905  1
  O  O208  1  0.36551436  0.66493817  0.36413420  1
  O  O209  1  0.37028440  0.68026675  0.88265184  1
  O  O210  1  0.70369246  0.00309377  0.38005486  1
  O  O211  1  0.70351685  0.01204609  0.87791321  1
  O  O212  1  0.69567951  0.33024597  0.38591210  1
  O  O213  1  0.70493191  0.33690104  0.86603647  1
  O  O214  1  0.70994916  0.68377567  0.37483709  1
  O  O215  1  0.69037023  0.67054676  0.88070028  1
  O  O216  1  0.07263720  0.09079642  0.03252610  1
  O  O217  1  0.07760429  0.08571944  0.52038824  1
  O  O218  1  0.07797886  0.42099976  0.01725365  1
  O  O219  1  0.06983633  0.43791826  0.51956727  1
  O  O220  1  0.06694901  0.76780706  0.00619748  1
  O  O221  1  0.06901757  0.75071619  0.51631270  1
  O  O222  1  0.40351473  0.09133094  0.03111960  1
  O  O223  1  0.40583049  0.09945922  0.50870990  1
  O  O224  1  0.40596293  0.41645328  0.01291702  1
  O  O225  1  0.40446390  0.42245915  0.53355746  1
  O  O226  1  0.40720459  0.76417104  0.01987816  1
  O  O227  1  0.41213936  0.75841100  0.51429000  1
  O  O228  1  0.73797375  0.09719765  0.03333509  1
  O  O229  1  0.73266429  0.09624483  0.52639535  1
  O  O230  1  0.73318755  0.44439343  0.02358525  1
  O  O231  1  0.72445952  0.42495327  0.52724814  1
  O  O232  1  0.74263955  0.75495984  0.01939260  1
  O  O233  1  0.74150989  0.77193934  0.52359590  1
  O  O234  1  0.09444241  0.24503697  0.02668918  1
  O  O235  1  0.09718726  0.24961830  0.50845337  1
  O  O236  1  0.08791344  0.59797867  0.01290293  1
  O  O237  1  0.08852192  0.59443237  0.52355160  1
  O  O238  1  0.10182559  0.93590404  0.02194752  1
  O  O239  1  0.09192676  0.93363577  0.52396640  1
  O  O240  1  0.42293220  0.25101228  0.02175051  1
  O  O241  1  0.43648121  0.25624905  0.52329251  1
  O  O242  1  0.43202589  0.60659601  0.02342103  1
  O  O243  1  0.41505995  0.58172682  0.52912421  1
  O  O244  1  0.43088211  0.93124870  0.02400051  1
  O  O245  1  0.42351654  0.93741392  0.51314970  1
  O  O246  1  0.76129984  0.25935238  0.01178891  1
  O  O247  1  0.75527192  0.25497898  0.52405763  1
  O  O248  1  0.76156190  0.60224481  0.03166588  1
  O  O249  1  0.76203339  0.59335444  0.52845507  1
  O  O250  1  0.77161194  0.93547986  0.02182294  1
  O  O251  1  0.76505924  0.92972180  0.52246975  1
  O  O252  1  0.24489268  0.07744867  0.27546950  1
  O  O253  1  0.23051259  0.06618337  0.76772103  1
  O  O254  1  0.22960325  0.40637096  0.27236761  1
  O  O255  1  0.24547832  0.40077565  0.76893343  1
  O  O256  1  0.24988060  0.74140610  0.25780846  1
  O  O257  1  0.24967323  0.74736027  0.78162358  1
  O  O258  1  0.56000210  0.06596430  0.26963976  1
  O  O259  1  0.58200517  0.08050328  0.77661433  1
  O  O260  1  0.57343377  0.40289059  0.27084082  1
  O  O261  1  0.56984848  0.39089765  0.77660048  1
  O  O262  1  0.57200210  0.74120275  0.27472106  1
  O  O263  1  0.56842959  0.74228526  0.77779187  1
  O  O264  1  0.90010160  0.06025680  0.26869513  1
  O  O265  1  0.90096296  0.07365089  0.78055103  1
  O  O266  1  0.89195012  0.40837199  0.27281267  1
  O  O267  1  0.89167816  0.39514394  0.77507543  1
  O  O268  1  0.89907315  0.73446136  0.27035777  1
  O  O269  1  0.90137436  0.74350120  0.75743719  1
  O  O270  1  0.25645282  0.23343030  0.26775843  1
  O  O271  1  0.26911304  0.24042238  0.77248745  1
  O  O272  1  0.26279082  0.57560898  0.26535174  1
  O  O273  1  0.27048811  0.56190212  0.77174229  1
  O  O274  1  0.26345484  0.91762675  0.26462672  1
  O  O275  1  0.26030200  0.90604542  0.77926024  1
  O  O276  1  0.58606642  0.22859831  0.25922503  1
  O  O277  1  0.60361684  0.23824017  0.77821386  1
  O  O278  1  0.59304984  0.58080608  0.27089763  1
  O  O279  1  0.58971976  0.57866354  0.76674459  1
  O  O280  1  0.60425099  0.90136610  0.27626210  1
  O  O281  1  0.59148254  0.90432959  0.76567629  1
  O  O282  1  0.91739928  0.24611716  0.28041255  1
  O  O283  1  0.91965987  0.23174801  0.77618655  1
  O  O284  1  0.92133009  0.57635278  0.26770808  1
  O  O285  1  0.93468710  0.56938611  0.75631650  1
  O  O286  1  0.92683462  0.90616603  0.27280861  1
  O  O287  1  0.93225220  0.90750354  0.77729209  1
  O  O288  1  0.25640399  0.23406483  0.47478651  1
  O  O289  1  0.26071834  0.22955966  0.99002242  1
  O  O290  1  0.25011811  0.57217449  0.48302969  1
  O  O291  1  0.27303187  0.57843369  0.97720295  1
  O  O292  1  0.26271120  0.91793853  0.48327023  1
  O  O293  1  0.26156743  0.90379445  0.97588413  1
  O  O294  1  0.59896445  0.22819109  0.48844838  1
  O  O295  1  0.59116758  0.23434343  0.97718021  1
  O  O296  1  0.59237036  0.57694901  0.49114222  1
  O  O297  1  0.59401317  0.58264933  0.97817099  1
  O  O298  1  0.60837821  0.90393049  0.47956310  1
  O  O299  1  0.58719798  0.90313631  0.98026082  1
  O  O300  1  0.91406336  0.23782458  0.48208914  1
  O  O301  1  0.93054644  0.23083887  0.97098408  1
  O  O302  1  0.92287385  0.57909967  0.47838637  1
  O  O303  1  0.92802466  0.57419234  0.99052664  1
  O  O304  1  0.92432458  0.91146345  0.47859492  1
  O  O305  1  0.93745394  0.90886136  0.97016223  1
  O  O306  1  0.24780077  0.08044739  0.46932230  1
  O  O307  1  0.23174765  0.06119542  0.98449454  1
  O  O308  1  0.22617123  0.40398446  0.47508943  1
  O  O309  1  0.25315495  0.40780904  0.98219391  1
  O  O310  1  0.24003469  0.74031303  0.48786896  1
  O  O311  1  0.24377334  0.74772127  0.97351373  1
  O  O312  1  0.57279642  0.06310847  0.47583774  1
  O  O313  1  0.57231189  0.07992734  0.97962062  1
  O  O314  1  0.57013895  0.39091115  0.48812270  1
  O  O315  1  0.56995731  0.40108751  0.96713812  1
  O  O316  1  0.57635450  0.74396794  0.45787363  1
  O  O317  1  0.56504285  0.73539997  0.97617485  1
  O  O318  1  0.89841659  0.06929709  0.48061439  1
  O  O319  1  0.90868915  0.06329099  0.97092670  1
  O  O320  1  0.89650184  0.39807484  0.46552012  1
  O  O321  1  0.89094507  0.40603024  0.98410289  1
  O  O322  1  0.89628086  0.73554827  0.47689756  1
  O  O323  1  0.91027952  0.74193504  0.99154234  1
  O  O324  1  0.09294480  0.24518732  0.22958620  1
  O  O325  1  0.09189747  0.25684101  0.74195733  1
  O  O326  1  0.09258128  0.59628585  0.23246517  1
  O  O327  1  0.10309390  0.60652118  0.71572623  1
  O  O328  1  0.09242457  0.93437430  0.22689055  1
  O  O329  1  0.09855499  0.94163129  0.73228826  1
  O  O330  1  0.42268940  0.24663040  0.22801639  1
  O  O331  1  0.43460001  0.26998521  0.73429304  1
  O  O332  1  0.43039893  0.60192160  0.22282860  1
  O  O333  1  0.42291178  0.58634753  0.72254738  1
  O  O334  1  0.42848416  0.94135906  0.22480265  1
  O  O335  1  0.42846438  0.91920808  0.73140519  1
  O  O336  1  0.75321516  0.25288236  0.23504346  1
  O  O337  1  0.75714789  0.25850772  0.72334044  1
  O  O338  1  0.76616442  0.59930790  0.21824081  1
  O  O339  1  0.76145753  0.59298928  0.71965562  1
  O  O340  1  0.77497868  0.93227804  0.22823598  1
  O  O341  1  0.76690700  0.92601861  0.73934237  1
  O  O342  1  0.07104104  0.08972789  0.22117339  1
  O  O343  1  0.06640681  0.09475329  0.73907277  1
  O  O344  1  0.07654784  0.43095512  0.23637771  1
  O  O345  1  0.06517343  0.43896223  0.72416781  1
  O  O346  1  0.07079579  0.75380398  0.23705277  1
  O  O347  1  0.06332100  0.77016555  0.75585714  1
  O  O348  1  0.40032021  0.09688422  0.22129603  1
  O  O349  1  0.40957661  0.08863907  0.73819139  1
  O  O350  1  0.40607103  0.42522121  0.23308870  1
  O  O351  1  0.39991052  0.42399959  0.72561452  1
  O  O352  1  0.41008820  0.75438918  0.22845739  1
  O  O353  1  0.41406655  0.76231738  0.73487270  1
  O  O354  1  0.73684882  0.09309822  0.21653866  1
  O  O355  1  0.73604703  0.10268711  0.72635589  1
  O  O356  1  0.73534043  0.44150300  0.22526980  1
  O  O357  1  0.72443225  0.42777897  0.72129210  1
  O  O358  1  0.74735149  0.76688852  0.23150212  1
  O  O359  1  0.74427607  0.76947890  0.72511896  1
