# generated using pymatgen
data_BaLaInIrO6
_symmetry_space_group_name_H-M   'P 1'
_cell_length_a   17.51706366
_cell_length_b   17.54085738
_cell_length_c   16.49366532
_cell_angle_alpha   89.95577096
_cell_angle_beta   90.02245447
_cell_angle_gamma   90.03440279
_symmetry_Int_Tables_number   1
_chemical_formula_structural   BaLaInIrO6
_chemical_formula_sum   'Ba36 La36 In36 Ir36 O216'
_cell_volume   5067.91196997
_cell_formula_units_Z   36
loop_
 _symmetry_equiv_pos_site_id
 _symmetry_equiv_pos_as_xyz
  1  'x, y, z'
loop_
 _atom_site_type_symbol
 _atom_site_label
 _atom_site_symmetry_multiplicity
 _atom_site_fract_x
 _atom_site_fract_y
 _atom_site_fract_z
 _atom_site_occupancy
  Ba  Ba0  1  0.49473170  0.67568063  0.12764361  1
  Ba  Ba1  1  0.82976747  0.34056194  0.62206196  1
  Ba  Ba2  1  0.83183746  0.00617654  0.62605571  1
  Ba  Ba3  1  0.67061595  0.84202532  0.63283295  1
  Ba  Ba4  1  0.16524946  0.32307662  0.37682289  1
  Ba  Ba5  1  0.00119725  0.82706993  0.37559398  1
  Ba  Ba6  1  0.16776541  0.99187685  0.87990958  1
  Ba  Ba7  1  -0.00123431  0.82341489  0.88014244  1
  Ba  Ba8  1  0.49894643  0.33673463  0.11787387  1
  Ba  Ba9  1  0.83377522  0.65830864  0.87233286  1
  Ba  Ba10  1  0.16421922  0.65627425  0.37013090  1
  Ba  Ba11  1  0.66901007  0.82614693  0.87626060  1
  Ba  Ba12  1  0.66875388  0.17403281  0.62355407  1
  Ba  Ba13  1  0.66498866  0.16002653  0.87539014  1
  Ba  Ba14  1  0.16259377  0.34739972  0.62271801  1
  Ba  Ba15  1  0.33220083  0.17772609  0.12746841  1
  Ba  Ba16  1  0.49861629  0.33736159  0.62823505  1
  Ba  Ba17  1  0.33528475  0.50924889  0.12229582  1
  Ba  Ba18  1  0.33246605  0.17408414  0.63140991  1
  Ba  Ba19  1  0.66843994  0.48763471  0.37343599  1
  Ba  Ba20  1  1.00565672  0.17390590  0.12492674  1
  Ba  Ba21  1  0.82943539  0.67394416  0.62798551  1
  Ba  Ba22  1  0.17195361  0.67607613  0.12393748  1
  Ba  Ba23  1  0.66926648  0.17548600  0.12383535  1
  Ba  Ba24  1  0.49884811  0.32992384  0.87263286  1
  Ba  Ba25  1  0.33136890  0.49324322  0.87565503  1
  Ba  Ba26  1  0.83121135  0.34117473  0.12295289  1
  Ba  Ba27  1  0.16059143  0.34243023  0.12602574  1
  Ba  Ba28  1  0.82737168  0.99168158  0.37623049  1
  Ba  Ba29  1  0.16844080  0.00449449  0.12709621  1
  Ba  Ba30  1  0.49810395  0.67453741  0.62795003  1
  Ba  Ba31  1  0.99747814  0.83754108  0.12604803  1
  Ba  Ba32  1  0.33762428  0.50468270  0.62264329  1
  Ba  Ba33  1  0.66952151  0.49452224  0.86874182  1
  Ba  Ba34  1  0.66691695  0.50565634  0.62369991  1
  Ba  Ba35  1  0.49888946  0.01407229  0.12151524  1
  La  La36  1  0.34231809  0.85037338  0.62530935  1
  La  La37  1  -0.00803258  0.48633965  0.87525997  1
  La  La38  1  0.49956956  0.32019854  0.37718835  1
  La  La39  1  0.34218686  0.17068560  0.88963651  1
  La  La40  1  0.83219946  0.67721240  0.11632038  1
  La  La41  1  -0.00351730  0.49520273  0.37496401  1
  La  La42  1  -0.00533789  0.14599262  0.87565453  1
  La  La43  1  0.16293565  0.01780045  0.62559412  1
  La  La44  1  1.00572978  0.18053699  0.62305465  1
  La  La45  1  0.67082087  0.16057066  0.37504798  1
  La  La46  1  0.33032077  0.81828244  0.87842083  1
  La  La47  1  0.16310409  0.67662147  0.62675803  1
  La  La48  1  0.65967497  0.81460028  0.37852989  1
  La  La49  1  0.33189403  0.15324994  0.37775898  1
  La  La50  1  0.16795073  0.99091521  0.37295667  1
  La  La51  1  -0.00512607  0.14739339  0.37214600  1
  La  La52  1  0.82907009  0.01569487  0.12583318  1
  La  La53  1  0.50601794  0.65105794  0.87373092  1
  La  La54  1  0.33101859  0.48541533  0.37115923  1
  La  La55  1  0.50339599  0.64389220  0.37600497  1
  La  La56  1  1.00755380  0.51668710  0.12558664  1
  La  La57  1  0.50734429  0.98732353  0.37334482  1
  La  La58  1  0.67391037  0.85035051  0.12055163  1
  La  La59  1  0.83554216  0.31151122  0.87299648  1
  La  La60  1  1.00290253  0.51836606  0.62547324  1
  La  La61  1  0.82987301  0.66468031  0.37921510  1
  La  La62  1  0.33770188  0.84807263  0.12055012  1
  La  La63  1  0.83785202  0.98430888  0.87637872  1
  La  La64  1  0.83662542  0.31490404  0.37268816  1
  La  La65  1  0.17046694  0.65456746  0.88042439  1
  La  La66  1  0.50578212  0.99320015  0.87478245  1
  La  La67  1  0.32566290  0.82006709  0.37297556  1
  La  La68  1  1.00178086  0.85038027  0.62824768  1
  La  La69  1  0.17006467  0.31536798  0.87585785  1
  La  La70  1  0.50003019  0.01273626  0.62782876  1
  La  La71  1  0.66901055  0.51378709  0.11941416  1
  In  In72  1  0.82739435  0.83310228  0.24976999  1
  In  In73  1  0.66382742  -0.00077687  0.50228286  1
  In  In74  1  0.83651865  0.49902511  -0.00067309  1
  In  In75  1  0.67086269  0.33315708  0.74860400  1
  In  In76  1  0.50239252  0.83268333  -0.00035451  1
  In  In77  1  0.50137475  0.16510724  0.75060176  1
  In  In78  1  0.83301895  0.49901926  0.49803819  1
  In  In79  1  -0.00000789  0.66919299  0.50177959  1
  In  In80  1  0.33225905  0.66689585  0.49963397  1
  In  In81  1  0.33179819  0.00200730  0.75366954  1
  In  In82  1  0.16693318  0.16655367  0.25450091  1
  In  In83  1  0.17002967  0.83426176  0.75201380  1
  In  In84  1  -0.00320214  0.66567019  0.24842298  1
  In  In85  1  -0.00056463  0.33307319  0.75047844  1
  In  In86  1  0.66403718  0.66866709  0.24569022  1
  In  In87  1  0.50281801  0.49387873  0.24745613  1
  In  In88  1  0.32889779  0.33880994  0.00320451  1
  In  In89  1  -0.00061111  -0.00523618  0.00447635  1
  In  In90  1  0.33116928  0.32976669  0.49952386  1
  In  In91  1  0.17048575  0.83550415  0.50448861  1
  In  In92  1  0.83410291  0.50076168  0.24602905  1
  In  In93  1  0.66723085  0.66863430  0.74899773  1
  In  In94  1  0.16554817  0.16355081  0.00000964  1
  In  In95  1  0.16646764  0.83370185  0.24950444  1
  In  In96  1  0.33686666  0.66669841  0.25166515  1
  In  In97  1  0.33888066  0.00058337  0.25303622  1
  In  In98  1  -0.00106788  0.33564119  0.49711057  1
  In  In99  1  0.83174485  0.83331359  0.50164313  1
  In  In100  1  0.66373841  0.00147129  0.24837755  1
  In  In101  1  0.66764182  0.33569324  0.00002832  1
  In  In102  1  0.16190146  0.50047596  0.75319039  1
  In  In103  1  -0.00208651  0.33560808  0.24929436  1
  In  In104  1  0.49753553  0.83290679  0.49928190  1
  In  In105  1  0.83637763  0.16396647  0.50255039  1
  In  In106  1  0.33077810  0.66658249  0.75074201  1
  In  In107  1  0.32853500  0.33197480  0.75182905  1
  Ir  Ir108  1  0.16410187  0.16072708  0.50115704  1
  Ir  Ir109  1  0.49832706  0.83849705  0.75071492  1
  Ir  Ir110  1  0.33583006  0.00376496  0.49992497  1
  Ir  Ir111  1  0.00068709  0.33387837  -0.00510612  1
  Ir  Ir112  1  0.00257398  0.66726171  -0.00421075  1
  Ir  Ir113  1  0.83150348  0.83024801  -0.00056143  1
  Ir  Ir114  1  0.49746190  0.17176459  0.25260514  1
  Ir  Ir115  1  0.33569614  0.66817939  -0.00199321  1
  Ir  Ir116  1  0.49934125  0.50129511  0.74849827  1
  Ir  Ir117  1  0.83660685  0.16357622  -0.00217184  1
  Ir  Ir118  1  0.17077426  0.83146250  -0.00045872  1
  Ir  Ir119  1  0.49662655  0.16413223  0.49480895  1
  Ir  Ir120  1  -0.00008309  0.00089192  0.74616967  1
  Ir  Ir121  1  0.33855295  0.00117211  -0.00261744  1
  Ir  Ir122  1  -0.00399961  -0.00042759  0.25363210  1
  Ir  Ir123  1  0.50244739  0.50318481  -0.00370379  1
  Ir  Ir124  1  0.83783260  0.49821606  0.75149558  1
  Ir  Ir125  1  0.66570575  0.32984863  0.25093127  1
  Ir  Ir126  1  0.16753969  0.50410616  0.49733834  1
  Ir  Ir127  1  0.66504851  0.33056337  0.49371641  1
  Ir  Ir128  1  0.66361137  0.66679982  -0.00156104  1
  Ir  Ir129  1  0.16711347  0.49826614  0.24888991  1
  Ir  Ir130  1  0.66959201  -0.00181309  0.75582334  1
  Ir  Ir131  1  0.84031681  0.83423549  0.75310744  1
  Ir  Ir132  1  0.15759446  0.50265278  0.00083254  1
  Ir  Ir133  1  0.67049506  0.00050146  -0.00215064  1
  Ir  Ir134  1  0.83783594  0.15975116  0.75400570  1
  Ir  Ir135  1  0.00121708  0.66964342  0.75061191  1
  Ir  Ir136  1  0.00452387  -0.00000914  0.50247551  1
  Ir  Ir137  1  0.83360221  0.16655179  0.24839263  1
  Ir  Ir138  1  0.66370736  0.66518301  0.49862375  1
  Ir  Ir139  1  0.50021564  0.49794231  0.50079151  1
  Ir  Ir140  1  0.49907362  0.83561541  0.25235574  1
  Ir  Ir141  1  0.50002706  0.16355534  0.00272737  1
  Ir  Ir142  1  0.16075591  0.16341937  0.74989420  1
  Ir  Ir143  1  0.33498128  0.33453280  0.25337260  1
  O  O144  1  0.31410271  0.33285171  0.13191000  1
  O  O145  1  0.31363619  0.33194247  0.62427796  1
  O  O146  1  0.32148878  0.66457015  0.11919378  1
  O  O147  1  0.29933619  0.65985978  0.62526351  1
  O  O148  1  0.31830855  0.98908803  0.12046191  1
  O  O149  1  0.30091239  0.99146119  0.61902327  1
  O  O150  1  0.64815894  0.32862873  0.13109331  1
  O  O151  1  0.65078396  0.33027381  0.61515584  1
  O  O152  1  0.64228116  0.65862061  0.11604039  1
  O  O153  1  0.64708677  0.66811446  0.62018531  1
  O  O154  1  0.64658467  0.99296534  0.11855892  1
  O  O155  1  0.63729451  0.99745117  0.63428823  1
  O  O156  1  0.98054774  0.32835121  0.11497168  1
  O  O157  1  0.98120066  0.31719600  0.62397599  1
  O  O158  1  0.97004166  0.65911495  0.11553862  1
  O  O159  1  0.97832881  0.65618873  0.63219007  1
  O  O160  1  0.96682998  0.99900846  0.13314308  1
  O  O161  1  0.97955310  0.99253095  0.62421404  1
  O  O162  1  0.18056234  0.16038445  0.12722282  1
  O  O163  1  0.18469569  0.15644679  0.62501451  1
  O  O164  1  0.18853562  0.49621335  0.12503483  1
  O  O165  1  0.18677506  0.50770152  0.61819833  1
  O  O166  1  0.20151247  0.83479136  0.11896226  1
  O  O167  1  0.20735908  0.81862396  0.62829094  1
  O  O168  1  0.51969963  0.17242652  0.12958315  1
  O  O169  1  0.51835580  0.15448176  0.61520070  1
  O  O170  1  0.53077417  0.49789520  0.11681222  1
  O  O171  1  0.51889153  0.49502110  0.62509467  1
  O  O172  1  0.53529820  0.83208408  0.13132674  1
  O  O173  1  0.52140383  0.83649150  0.63142382  1
  O  O174  1  0.85882842  0.15420877  0.12316141  1
  O  O175  1  0.86831917  0.16165186  0.63272879  1
  O  O176  1  0.87108981  0.49785885  0.12053698  1
  O  O177  1  0.86533795  0.49588009  0.63205662  1
  O  O178  1  0.84401043  0.81672959  0.11944856  1
  O  O179  1  0.86407254  0.83020709  0.63224161  1
  O  O180  1  0.13353231  0.15723827  0.38385526  1
  O  O181  1  0.13051735  0.16803758  0.86810535  1
  O  O182  1  0.13539735  0.49996699  0.37271247  1
  O  O183  1  0.12602341  0.51503073  0.88264759  1
  O  O184  1  0.14885247  0.85497669  0.37861264  1
  O  O185  1  0.14731307  0.83573275  0.88142509  1
  O  O186  1  0.46854143  0.17910475  0.37321418  1
  O  O187  1  0.47824469  0.15495401  0.88286256  1
  O  O188  1  0.47587627  0.50222189  0.38113232  1
  O  O189  1  0.47998048  0.51392050  0.87210396  1
  O  O190  1  0.46277351  0.84811675  0.37025436  1
  O  O191  1  0.46851310  0.84888245  0.87032095  1
  O  O192  1  0.80669996  0.17176164  0.36864683  1
  O  O193  1  0.81324587  0.16986734  0.87577519  1
  O  O194  1  0.81895071  0.52984898  0.37162635  1
  O  O195  1  0.82086172  0.50255303  0.87072562  1
  O  O196  1  0.79820391  0.83034888  0.37452244  1
  O  O197  1  0.81864139  0.84654916  0.87672994  1
  O  O198  1  0.03116914  0.00506977  0.37930332  1
  O  O199  1  0.01517996  0.00394058  0.86793290  1
  O  O200  1  0.02168772  0.35906640  0.37456786  1
  O  O201  1  0.03327391  0.34721132  0.87670446  1
  O  O202  1  0.01044896  0.66330808  0.37537831  1
  O  O203  1  0.03350948  0.67236296  0.87268908  1
  O  O204  1  0.37133242  0.01313841  0.38216749  1
  O  O205  1  0.36745516  0.01823157  0.87883006  1
  O  O206  1  0.36076281  0.34409966  0.37398670  1
  O  O207  1  0.34514261  0.32894220  0.87835539  1
  O  O208  1  0.37321803  0.68464620  0.37660216  1
  O  O209  1  0.36758532  0.67903014  0.87904065  1
  O  O210  1  0.67538213  0.02109009  0.37330789  1
  O  O211  1  0.70255417  0.00202649  0.87724645  1
  O  O212  1  0.69501425  0.32616498  0.37102345  1
  O  O213  1  0.70012728  0.33578987  0.87500046  1
  O  O214  1  0.69168359  0.67231465  0.37674693  1
  O  O215  1  0.68097115  0.66655942  0.87918148  1
  O  O216  1  0.07062252  0.08977723  0.00525833  1
  O  O217  1  0.06917354  0.09538525  0.52866088  1
  O  O218  1  0.05976498  0.43460895  0.01960106  1
  O  O219  1  0.07080396  0.44046500  0.52250377  1
  O  O220  1  0.07796153  0.75980348  0.01994272  1
  O  O221  1  0.07141724  0.76515734  0.53384913  1
  O  O222  1  0.40522243  0.09434642  0.02010833  1
  O  O223  1  0.39787711  0.10245169  0.51433776  1
  O  O224  1  0.41309841  0.43073889  0.01158482  1
  O  O225  1  0.41125522  0.42790060  0.50964438  1
  O  O226  1  0.39817508  0.76588866  0.01852439  1
  O  O227  1  0.39949714  0.77046547  0.52830357  1
  O  O228  1  0.74932844  0.08618673  0.02569111  1
  O  O229  1  0.73856138  0.09559468  0.50914783  1
  O  O230  1  0.73478578  0.43542628  0.02553896  1
  O  O231  1  0.73340225  0.42236953  0.50832564  1
  O  O232  1  0.73324290  0.76018085  0.02455278  1
  O  O233  1  0.72841602  0.75737359  0.51140550  1
  O  O234  1  0.09251884  0.26723554  0.00513601  1
  O  O235  1  0.09378762  0.25106683  0.52039287  1
  O  O236  1  0.09095585  0.59671112  0.02407075  1
  O  O237  1  0.10497041  0.59935712  0.52165040  1
  O  O238  1  0.09611471  0.91844613  0.01947378  1
  O  O239  1  0.09898066  0.93524601  0.52834446  1
  O  O240  1  0.42124751  0.24828905  0.00753314  1
  O  O241  1  0.43424765  0.25948592  0.50630080  1
  O  O242  1  0.43287959  0.59853810  0.00934738  1
  O  O243  1  0.43337171  0.59137509  0.51214463  1
  O  O244  1  0.42343709  0.92597417  0.01647570  1
  O  O245  1  0.42975532  0.94083287  0.52734638  1
  O  O246  1  0.76708143  0.25532053  0.00855518  1
  O  O247  1  0.75793018  0.26228918  0.50496557  1
  O  O248  1  0.75835711  0.59944227  0.02079601  1
  O  O249  1  0.75636715  0.59722088  0.51389172  1
  O  O250  1  0.76358382  0.92756899  0.02460939  1
  O  O251  1  0.75589325  0.92349239  0.51870921  1
  O  O252  1  0.24253907  0.07341028  0.28315381  1
  O  O253  1  0.22426075  0.06721321  0.75497498  1
  O  O254  1  0.24246926  0.40637735  0.27448245  1
  O  O255  1  0.22637943  0.39882573  0.77362340  1
  O  O256  1  0.24758838  0.74447270  0.27123358  1
  O  O257  1  0.23771206  0.73791028  0.78641605  1
  O  O258  1  0.56226108  0.07713310  0.27124006  1
  O  O259  1  0.57524359  0.06424929  0.77261412  1
  O  O260  1  0.57046503  0.39205140  0.27402171  1
  O  O261  1  0.57663231  0.41676093  0.76121791  1
  O  O262  1  0.56020452  0.74140606  0.28268082  1
  O  O263  1  0.56496853  0.74525560  0.77416145  1
  O  O264  1  0.90490682  0.07441262  0.27494977  1
  O  O265  1  0.90405416  0.06584010  0.77859338  1
  O  O266  1  0.89353004  0.39629836  0.27334547  1
  O  O267  1  0.90151312  0.40261974  0.77812640  1
  O  O268  1  0.88653985  0.72520468  0.25869998  1
  O  O269  1  0.90947013  0.74014127  0.76913988  1
  O  O270  1  0.27086046  0.23917523  0.27809516  1
  O  O271  1  0.25382269  0.22566489  0.78198468  1
  O  O272  1  0.26159839  0.56431779  0.27288846  1
  O  O273  1  0.24886972  0.57904194  0.78074372  1
  O  O274  1  0.26428033  0.90821776  0.27286347  1
  O  O275  1  0.27137586  0.90099271  0.77749422  1
  O  O276  1  0.59845403  0.23357176  0.27648328  1
  O  O277  1  0.59162237  0.24325866  0.76105503  1
  O  O278  1  0.59229837  0.57403030  0.26633216  1
  O  O279  1  0.58246321  0.58079031  0.76369803  1
  O  O280  1  0.59293177  0.90123203  0.28008682  1
  O  O281  1  0.58972181  0.91179762  0.78021360  1
  O  O282  1  0.92465339  0.23342311  0.27723932  1
  O  O283  1  0.93051665  0.22897478  0.77742536  1
  O  O284  1  0.94476646  0.55609156  0.25817129  1
  O  O285  1  0.93661204  0.56863778  0.77214964  1
  O  O286  1  0.92516687  0.90979700  0.26813501  1
  O  O287  1  0.93583014  0.90310407  0.76304325  1
  O  O288  1  0.25869202  0.22723618  0.47650169  1
  O  O289  1  0.25391015  0.24228003  0.97606669  1
  O  O290  1  0.26275227  0.56611191  0.46806694  1
  O  O291  1  0.25297532  0.57792805  0.97643637  1
  O  O292  1  0.27567183  0.90944532  0.47648501  1
  O  O293  1  0.26975063  0.90104042  0.97748706  1
  O  O294  1  0.59489247  0.23077761  0.47053909  1
  O  O295  1  0.58544629  0.23987894  0.98623617  1
  O  O296  1  0.59125628  0.57264299  0.47834143  1
  O  O297  1  0.59492754  0.57445967  0.97633867  1
  O  O298  1  0.59099385  0.90384546  0.46760766  1
  O  O299  1  0.59367594  0.91480095  0.97821230  1
  O  O300  1  0.93058959  0.23378229  0.46924164  1
  O  O301  1  0.93232849  0.23633171  0.96750006  1
  O  O302  1  0.94054561  0.56039749  0.49340408  1
  O  O303  1  0.93717733  0.57368831  0.97441819  1
  O  O304  1  0.93698329  0.90641742  0.49132776  1
  O  O305  1  0.91820892  0.90662377  0.98446777  1
  O  O306  1  0.23444677  0.06478108  0.47643341  1
  O  O307  1  0.25498863  0.07797953  0.97589873  1
  O  O308  1  0.23902462  0.41420411  0.47900540  1
  O  O309  1  0.22304245  0.40894393  0.97688114  1
  O  O310  1  0.24301986  0.74463657  0.46945180  1
  O  O311  1  0.24250087  0.73813487  0.97288924  1
  O  O312  1  0.55516604  0.06518787  0.48426591  1
  O  O313  1  0.57436390  0.06862828  0.97616273  1
  O  O314  1  0.56779597  0.39780017  0.47603500  1
  O  O315  1  0.57229203  0.41498524  0.97985657  1
  O  O316  1  0.57004282  0.73313143  0.47171351  1
  O  O317  1  0.56874186  0.73291079  0.97568807  1
  O  O318  1  0.91633777  0.07087299  0.47605168  1
  O  O319  1  0.90313432  0.07057727  0.97681599  1
  O  O320  1  0.89549104  0.39842103  0.47189855  1
  O  O321  1  0.90603557  0.39640493  0.96940623  1
  O  O322  1  0.89684753  0.73343944  0.48077693  1
  O  O323  1  0.90322962  0.73515163  0.98371759  1
  O  O324  1  0.09055327  0.25897207  0.24245648  1
  O  O325  1  0.09854810  0.25857131  0.73634849  1
  O  O326  1  0.09965644  0.58715663  0.22740521  1
  O  O327  1  0.09295485  0.60478694  0.72680270  1
  O  O328  1  0.08690518  0.93096333  0.23650131  1
  O  O329  1  0.09521704  0.93280492  0.71951895  1
  O  O330  1  0.43358266  0.27101854  0.24150879  1
  O  O331  1  0.41775619  0.25032981  0.74576149  1
  O  O332  1  0.43022776  0.59182453  0.24537021  1
  O  O333  1  0.42569383  0.58978934  0.73852331  1
  O  O334  1  0.43654922  0.92863015  0.23107261  1
  O  O335  1  0.43197500  0.92874810  0.72398468  1
  O  O336  1  0.76369101  0.26126051  0.23415080  1
  O  O337  1  0.77134969  0.25302628  0.73943508  1
  O  O338  1  0.76168791  0.59801375  0.21342423  1
  O  O339  1  0.76179470  0.58567822  0.73613081  1
  O  O340  1  0.76120441  0.93238463  0.21913770  1
  O  O341  1  0.76991466  0.92930662  0.74330451  1
  O  O342  1  0.06651416  0.08795844  0.24380996  1
  O  O343  1  0.06100667  0.10072816  0.72496584  1
  O  O344  1  0.07151176  0.43589553  0.22626645  1
  O  O345  1  0.05915876  0.43923513  0.73021224  1
  O  O346  1  0.07406193  0.75726288  0.23443787  1
  O  O347  1  0.06911727  0.76192211  0.72243715  1
  O  O348  1  0.40393055  0.10556439  0.24174517  1
  O  O349  1  0.41544016  0.08237873  0.72421908  1
  O  O350  1  0.40013730  0.42784384  0.23934280  1
  O  O351  1  0.41341526  0.42547026  0.74100421  1
  O  O352  1  0.40446700  0.77585169  0.22438142  1
  O  O353  1  0.40327477  0.77256127  0.73031573  1
  O  O354  1  0.74512009  0.09452254  0.23092772  1
  O  O355  1  0.74202820  0.09025181  0.73242800  1
  O  O356  1  0.72606498  0.42940012  0.22679798  1
  O  O357  1  0.74959137  0.42727397  0.73094318  1
  O  O358  1  0.71714158  0.77542665  0.23042336  1
  O  O359  1  0.74907636  0.76249293  0.74326301  1
