# generated using pymatgen
data_BaLaInIrO6
_symmetry_space_group_name_H-M   'P 1'
_cell_length_a   17.52622052
_cell_length_b   17.55041194
_cell_length_c   16.49710373
_cell_angle_alpha   90.06364646
_cell_angle_beta   90.02442168
_cell_angle_gamma   89.91882076
_symmetry_Int_Tables_number   1
_chemical_formula_structural   BaLaInIrO6
_chemical_formula_sum   'Ba36 La36 In36 Ir36 O216'
_cell_volume   5074.37488181
_cell_formula_units_Z   36
loop_
 _symmetry_equiv_pos_site_id
 _symmetry_equiv_pos_as_xyz
  1  'x, y, z'
loop_
 _atom_site_type_symbol
 _atom_site_label
 _atom_site_symmetry_multiplicity
 _atom_site_fract_x
 _atom_site_fract_y
 _atom_site_fract_z
 _atom_site_occupancy
  Ba  Ba0  1  0.83492633  0.34120535  0.62249352  1
  Ba  Ba1  1  0.49776995  0.99189859  0.88083388  1
  Ba  Ba2  1  0.50242710  0.00963154  0.12822030  1
  Ba  Ba3  1  0.66643214  0.16070717  0.37596213  1
  Ba  Ba4  1  0.16735323  0.67627810  0.62408719  1
  Ba  Ba5  1  0.84009351  0.65827868  0.37554333  1
  Ba  Ba6  1  0.33756517  0.51292314  0.62612073  1
  Ba  Ba7  1  0.33318312  0.17543859  0.12041006  1
  Ba  Ba8  1  0.16511230  0.34313384  0.62370178  1
  Ba  Ba9  1  0.83351339  0.32025212  0.37641694  1
  Ba  Ba10  1  0.16395491  0.66062118  0.37565278  1
  Ba  Ba11  1  0.66469995  0.50613555  0.62190402  1
  Ba  Ba12  1  0.99707541  0.84141586  0.12494989  1
  Ba  Ba13  1  0.16261547  0.34174815  0.12793739  1
  Ba  Ba14  1  -0.00344528  0.82666095  0.37021487  1
  Ba  Ba15  1  0.33525904  0.84249709  0.62098883  1
  Ba  Ba16  1  -0.00282961  0.15727670  0.37695939  1
  Ba  Ba17  1  0.66699645  0.82420281  0.36916272  1
  Ba  Ba18  1  0.32789656  0.15002504  0.87951966  1
  Ba  Ba19  1  0.83342683  0.65967923  0.87373657  1
  Ba  Ba20  1  0.99899889  0.50545709  0.12468372  1
  Ba  Ba21  1  0.16651918  0.32632566  0.37278843  1
  Ba  Ba22  1  0.83622822  0.00861607  0.12051468  1
  Ba  Ba23  1  0.66304054  0.48826769  0.87332664  1
  Ba  Ba24  1  0.16727175  0.00888006  0.62158221  1
  Ba  Ba25  1  0.33489626  0.82684588  0.37355363  1
  Ba  Ba26  1  -0.00125686  0.49430206  0.87660919  1
  Ba  Ba27  1  0.66668322  0.83979742  0.62597208  1
  Ba  Ba28  1  -0.00065265  0.82450316  0.87618593  1
  Ba  Ba29  1  0.66834038  0.82412588  0.87881623  1
  Ba  Ba30  1  0.83330778  0.34097964  0.12892433  1
  Ba  Ba31  1  0.49550834  0.67853135  0.62340547  1
  Ba  Ba32  1  0.66668360  0.17175956  0.12176189  1
  Ba  Ba33  1  0.83257312  0.32955231  0.87098319  1
  Ba  Ba34  1  0.50155702  0.32430755  0.37780984  1
  Ba  Ba35  1  0.66194649  0.17205459  0.62797504  1
  La  La36  1  0.83168695  0.01176697  0.62645986  1
  La  La37  1  0.50576862  0.65120877  0.37674201  1
  La  La38  1  0.16157173  0.67944518  0.12775155  1
  La  La39  1  0.83768972  0.98712097  0.87575082  1
  La  La40  1  0.16917342  0.98634214  0.87672324  1
  La  La41  1  0.32719974  0.82079127  0.87273681  1
  La  La42  1  1.00736010  0.18355872  0.62120955  1
  La  La43  1  0.66439056  0.15920479  0.87589229  1
  La  La44  1  0.16963000  0.98384575  0.37141657  1
  La  La45  1  0.15680637  0.01566038  0.12333238  1
  La  La46  1  0.33959689  0.18027614  0.62480692  1
  La  La47  1  0.83265617  0.67932864  0.62429191  1
  La  La48  1  0.16866948  0.65157696  0.87726111  1
  La  La49  1  0.49813546  -0.00089697  0.62462623  1
  La  La50  1  -0.00564567  0.48244521  0.37576181  1
  La  La51  1  0.67606104  0.51199825  0.13365523  1
  La  La52  1  0.50334025  0.31974555  0.87277396  1
  La  La53  1  0.82945506  0.68202863  0.12450476  1
  La  La54  1  0.17469559  0.31232186  0.87788326  1
  La  La55  1  0.66735506  0.48023011  0.37636679  1
  La  La56  1  0.32798372  0.48199784  0.87583933  1
  La  La57  1  0.50897510  0.65194693  0.86688463  1
  La  La58  1  -0.00201403  0.15467639  0.87326826  1
  La  La59  1  0.67662752  0.85045018  0.12349943  1
  La  La60  1  0.83654919  0.99360570  0.37294823  1
  La  La61  1  0.49760155  0.68054580  0.12205755  1
  La  La62  1  0.50476599  0.98832892  0.37504062  1
  La  La63  1  0.33614981  0.51265895  0.12937816  1
  La  La64  1  0.49338262  0.34913513  0.62695184  1
  La  La65  1  0.32611216  0.48637936  0.38275138  1
  La  La66  1  0.49643381  0.34155930  0.12547964  1
  La  La67  1  1.00428344  0.51342033  0.62805888  1
  La  La68  1  1.00865095  0.85006332  0.62029809  1
  La  La69  1  0.33502270  0.85022148  0.12649574  1
  La  La70  1  0.32542280  0.15412285  0.37116694  1
  La  La71  1  1.00459530  0.18222761  0.12981730  1
  In  In72  1  0.49655652  0.16754093  -0.00061430  1
  In  In73  1  -0.00092277  0.66600263  0.24763658  1
  In  In74  1  0.66766910  0.00164743  -0.00235934  1
  In  In75  1  0.49485418  0.16471875  0.49800354  1
  In  In76  1  0.33225874  0.00544982  0.49713661  1
  In  In77  1  0.16723956  0.16287695  0.74593705  1
  In  In78  1  0.00173576  0.33326068  -0.00274092  1
  In  In79  1  0.83479547  0.16989179  -0.00186277  1
  In  In80  1  0.66590146  0.33009730  0.50430930  1
  In  In81  1  0.16890902  0.49992025  0.74947576  1
  In  In82  1  0.33239875  0.66897063  0.49677278  1
  In  In83  1  0.49963884  0.49830137  0.00224098  1
  In  In84  1  0.66731886  -0.00057112  0.75153039  1
  In  In85  1  0.49845885  0.50056501  0.49801090  1
  In  In86  1  0.83264168  0.50028644  0.74765746  1
  In  In87  1  0.83491774  0.83492103  0.50073194  1
  In  In88  1  0.50102070  0.83172703  0.24571871  1
  In  In89  1  0.16896089  0.49911172  0.00173231  1
  In  In90  1  0.66885098  0.66643649  0.74578449  1
  In  In91  1  0.50120837  0.50046499  0.24734744  1
  In  In92  1  0.49968220  0.83504343  0.75515379  1
  In  In93  1  0.16650573  0.83212270  0.00198400  1
  In  In94  1  0.00339168  0.33496628  0.75138937  1
  In  In95  1  0.33344036  0.33247622  0.24910049  1
  In  In96  1  0.66366815  0.66651893  0.00159058  1
  In  In97  1  0.66474437  0.32937956  0.24774888  1
  In  In98  1  0.00149979  -0.00080194  0.24937410  1
  In  In99  1  0.00015624  0.66686045  0.50034197  1
  In  In100  1  0.83585246  0.16478466  0.50444753  1
  In  In101  1  0.83004701  0.50050457  0.00153696  1
  In  In102  1  0.33221547  0.00019325  0.75094781  1
  In  In103  1  0.16508900  0.83098019  0.74905363  1
  In  In104  1  0.33487271  0.66547233  0.00146297  1
  In  In105  1  0.16813726  0.50245062  0.25222442  1
  In  In106  1  0.66745762  -0.00026311  0.50066042  1
  In  In107  1  0.50320040  0.83319088  0.49673673  1
  Ir  Ir108  1  0.17379429  0.83387529  0.24914848  1
  Ir  Ir109  1  0.00291955  0.00310367  -0.00399054  1
  Ir  Ir110  1  0.66966110  0.00236600  0.25004912  1
  Ir  Ir111  1  -0.00307015  0.33078013  0.25341917  1
  Ir  Ir112  1  0.16455133  0.16223308  0.00348174  1
  Ir  Ir113  1  0.83537216  0.83387646  -0.00029612  1
  Ir  Ir114  1  0.16427602  0.83729205  0.49672432  1
  Ir  Ir115  1  0.83428415  0.16510974  0.75133505  1
  Ir  Ir116  1  0.66128701  0.32918638  0.75221109  1
  Ir  Ir117  1  0.66606483  0.66300124  0.25324114  1
  Ir  Ir118  1  0.67099316  0.66315783  0.49398671  1
  Ir  Ir119  1  0.82785630  0.83484459  0.24678885  1
  Ir  Ir120  1  0.00000635  0.67024985  0.75054642  1
  Ir  Ir121  1  0.33088504  0.33237831  0.50418183  1
  Ir  Ir122  1  0.00263726  -0.00003357  0.50089493  1
  Ir  Ir123  1  0.49676754  0.16805696  0.75099459  1
  Ir  Ir124  1  0.33032285  -0.00620516  0.00457132  1
  Ir  Ir125  1  0.16405343  0.49901767  0.50104388  1
  Ir  Ir126  1  -0.00011059  0.67007734  0.00083058  1
  Ir  Ir127  1  0.49375731  0.49698734  0.75350715  1
  Ir  Ir128  1  0.49597066  0.83273213  0.00480997  1
  Ir  Ir129  1  0.00116969  0.33396005  0.49958091  1
  Ir  Ir130  1  0.33099032  0.00291893  0.24700774  1
  Ir  Ir131  1  0.66119976  0.33265531  -0.00202878  1
  Ir  Ir132  1  0.33734204  0.66663649  0.75693050  1
  Ir  Ir133  1  0.33488508  0.66803159  0.24701907  1
  Ir  Ir134  1  -0.00372267  0.00334372  0.74859630  1
  Ir  Ir135  1  0.49591342  0.16467629  0.24911024  1
  Ir  Ir136  1  0.83319401  0.50148637  0.25386976  1
  Ir  Ir137  1  0.83712888  0.50065777  0.49770778  1
  Ir  Ir138  1  0.16571639  0.16481946  0.25163897  1
  Ir  Ir139  1  0.33601589  0.33054231  0.75307646  1
  Ir  Ir140  1  0.84329757  0.83558767  0.74973020  1
  Ir  Ir141  1  0.83470263  0.16300975  0.24986825  1
  Ir  Ir142  1  0.16688745  0.16736896  0.49386042  1
  Ir  Ir143  1  0.33269331  0.33365171  -0.00149555  1
  O  O144  1  0.30988791  0.32993741  0.11685705  1
  O  O145  1  0.31025212  0.31847614  0.62947372  1
  O  O146  1  0.29667965  0.65537231  0.13079145  1
  O  O147  1  0.31681258  0.66638134  0.63561438  1
  O  O148  1  0.29512117  0.99251422  0.12642062  1
  O  O149  1  0.31841187  1.00574356  0.62365187  1
  O  O150  1  0.63292760  0.32827985  0.11799197  1
  O  O151  1  0.63000673  0.33071945  0.63428577  1
  O  O152  1  0.63338142  0.65212655  0.13411907  1
  O  O153  1  0.64660832  0.66413905  0.61305961  1
  O  O154  1  0.65153856  0.99476701  0.12850819  1
  O  O155  1  0.63271787  0.99855441  0.62851396  1
  O  O156  1  0.98315935  0.32000410  0.13185400  1
  O  O157  1  0.98617067  0.32313071  0.61944658  1
  O  O158  1  0.96887660  0.66821117  0.12070198  1
  O  O159  1  0.97228804  0.65721318  0.63072468  1
  O  O160  1  0.98718970  0.99891567  0.11758113  1
  O  O161  1  0.96834052  0.99054343  0.62573063  1
  O  O162  1  0.18779435  0.15032315  0.12848701  1
  O  O163  1  0.19887497  0.16365553  0.61336673  1
  O  O164  1  0.20222495  0.49892192  0.12625176  1
  O  O165  1  0.18925792  0.50198362  0.62002960  1
  O  O166  1  0.20004983  0.82061472  0.12912873  1
  O  O167  1  0.18175547  0.83745963  0.61840266  1
  O  O168  1  0.51481825  0.16807716  0.12887714  1
  O  O169  1  0.50868167  0.14497673  0.63182979  1
  O  O170  1  0.54011841  0.48436338  0.12383924  1
  O  O171  1  0.51234666  0.48872801  0.63157620  1
  O  O172  1  0.53667758  0.82178184  0.12252587  1
  O  O173  1  0.51453848  0.84035388  0.62526053  1
  O  O174  1  0.86486401  0.16546902  0.12966318  1
  O  O175  1  0.87230035  0.15332092  0.63335511  1
  O  O176  1  0.84888903  0.49893480  0.13537190  1
  O  O177  1  0.86787136  0.49915065  0.61602677  1
  O  O178  1  0.84955488  0.82158151  0.12297141  1
  O  O179  1  0.87278692  0.82756352  0.63238870  1
  O  O180  1  0.14230683  0.17299678  0.37255156  1
  O  O181  1  0.13796085  0.17066106  0.88214512  1
  O  O182  1  0.13457284  0.50216867  0.38186568  1
  O  O183  1  0.14911834  0.51626313  0.87465283  1
  O  O184  1  0.14463221  0.84582014  0.37157498  1
  O  O185  1  0.14828643  0.84949324  0.87602190  1
  O  O186  1  0.46418352  0.16658592  0.36582252  1
  O  O187  1  0.47451346  0.18414434  0.87000302  1
  O  O188  1  0.46347662  0.50982601  0.37062550  1
  O  O189  1  0.46518376  0.50622756  0.87358089  1
  O  O190  1  0.48378340  0.84885537  0.36784602  1
  O  O191  1  0.46151051  0.83718998  0.88764943  1
  O  O192  1  0.81888619  0.15781225  0.37068812  1
  O  O193  1  0.80097787  0.17122013  0.86805675  1
  O  O194  1  0.80422195  0.50260287  0.37539875  1
  O  O195  1  0.81197192  0.50611017  0.87489735  1
  O  O196  1  0.81675006  0.85139281  0.36878334  1
  O  O197  1  0.81659253  0.84607019  0.87431811  1
  O  O198  1  0.03171274  0.00025134  0.37975839  1
  O  O199  1  0.03323560  0.01412490  0.87077443  1
  O  O200  1  0.01749216  0.34271237  0.37753712  1
  O  O201  1  0.04074536  0.33248915  0.87418810  1
  O  O202  1  0.01410803  0.67132400  0.37329684  1
  O  O203  1  0.03229505  0.67242323  0.87615670  1
  O  O204  1  0.36371485  0.01098728  0.36533853  1
  O  O205  1  0.34590105  -0.01006642  0.88472092  1
  O  O206  1  0.35139661  0.34262197  0.38320301  1
  O  O207  1  0.36618128  0.34166135  0.87578921  1
  O  O208  1  0.36978183  0.67361541  0.36284251  1
  O  O209  1  0.37025516  0.67693794  0.87550622  1
  O  O210  1  0.70097518  0.00345487  0.36846919  1
  O  O211  1  0.70164410  0.01322356  0.87329278  1
  O  O212  1  0.68422732  0.34021759  0.37501060  1
  O  O213  1  0.68445583  0.32874740  0.87496028  1
  O  O214  1  0.69424525  0.66930786  0.37267872  1
  O  O215  1  0.68333382  0.66791995  0.87437805  1
  O  O216  1  0.06918025  0.09674661  0.02698039  1
  O  O217  1  0.07022940  0.09929464  0.52286397  1
  O  O218  1  0.07717702  0.42530318  0.01943802  1
  O  O219  1  0.06671954  0.43292750  0.52138677  1
  O  O220  1  0.07288657  0.75661529  0.02300541  1
  O  O221  1  0.07244904  0.76797907  0.51949476  1
  O  O222  1  0.40191486  0.08509610  0.01310871  1
  O  O223  1  0.38518699  0.11472655  0.50771990  1
  O  O224  1  0.39526692  0.42968914  0.02186500  1
  O  O225  1  0.40320915  0.42022321  0.52056586  1
  O  O226  1  0.40542574  0.76508262  0.03426351  1
  O  O227  1  0.40638035  0.76216627  0.50913010  1
  O  O228  1  0.74690391  0.09256944  0.01388519  1
  O  O229  1  0.74725350  0.08680014  0.52694192  1
  O  O230  1  0.72293622  0.42905889  0.02457811  1
  O  O231  1  0.74656060  0.43254043  0.51163221  1
  O  O232  1  0.74221457  0.76247985  0.02657846  1
  O  O233  1  0.74118366  0.75226309  0.51784153  1
  O  O234  1  0.09646861  0.25073163  0.02372440  1
  O  O235  1  0.09251190  0.25719827  0.52131917  1
  O  O236  1  0.09721066  0.60682242  0.01930478  1
  O  O237  1  0.09064931  0.58554872  0.52529338  1
  O  O238  1  0.09984046  0.93751235  0.01716476  1
  O  O239  1  0.09251151  0.92848125  0.51846506  1
  O  O240  1  0.43041381  0.27151918  0.01892794  1
  O  O241  1  0.42175803  0.26633169  0.53243868  1
  O  O242  1  0.42575720  0.59233432  0.03981522  1
  O  O243  1  0.42771793  0.59536628  0.50953483  1
  O  O244  1  0.42220172  0.92368741  0.03319154  1
  O  O245  1  0.43576786  0.94249706  0.50789453  1
  O  O246  1  0.75421395  0.26720194  0.01451413  1
  O  O247  1  0.75895496  0.25562251  0.51848610  1
  O  O248  1  0.75723834  0.59421425  0.03600588  1
  O  O249  1  0.77053967  0.59671237  0.52167084  1
  O  O250  1  0.75846917  0.91815140  0.01524591  1
  O  O251  1  0.77005428  0.93117628  0.52618644  1
  O  O252  1  0.23646984  0.07209072  0.27718788  1
  O  O253  1  0.22873170  0.06472852  0.77617534  1
  O  O254  1  0.24941865  0.41586665  0.27516713  1
  O  O255  1  0.24326383  0.39992584  0.78027515  1
  O  O256  1  0.24226614  0.73766633  0.26894849  1
  O  O257  1  0.24051692  0.73078225  0.78072796  1
  O  O258  1  0.56995412  0.07026138  0.27526616  1
  O  O259  1  0.57307248  0.08576535  0.77815503  1
  O  O260  1  0.57684314  0.40917321  0.27238980  1
  O  O261  1  0.56078754  0.39588464  0.77092986  1
  O  O262  1  0.56756881  0.72520734  0.27019580  1
  O  O263  1  0.56990057  0.73523414  0.76974367  1
  O  O264  1  0.90287915  0.06962750  0.27001550  1
  O  O265  1  0.90230724  0.07200639  0.78005379  1
  O  O266  1  0.90618080  0.40866693  0.27743740  1
  O  O267  1  0.90863099  0.40787772  0.76095210  1
  O  O268  1  0.90008281  0.74465161  0.25688804  1
  O  O269  1  0.90835027  0.73911459  0.76635261  1
  O  O270  1  0.25968545  0.23348002  0.26924291  1
  O  O271  1  0.26241118  0.24269113  0.77173189  1
  O  O272  1  0.27430748  0.57337883  0.27674114  1
  O  O273  1  0.27085116  0.57263124  0.77830064  1
  O  O274  1  0.25931867  0.91399302  0.27195018  1
  O  O275  1  0.26239328  0.90028868  0.77163824  1
  O  O276  1  0.58523486  0.23348816  0.26519927  1
  O  O277  1  0.59267107  0.23624505  0.77678049  1
  O  O278  1  0.60282325  0.57008076  0.28108699  1
  O  O279  1  0.58296289  0.56908315  0.76728729  1
  O  O280  1  0.59478024  0.91632807  0.26230397  1
  O  O281  1  0.59587713  0.90662158  0.77570284  1
  O  O282  1  0.92781469  0.23298929  0.26430439  1
  O  O283  1  0.92843297  0.23022416  0.77336664  1
  O  O284  1  0.92898741  0.56400221  0.27314571  1
  O  O285  1  0.93382144  0.57892426  0.76451477  1
  O  O286  1  0.91652845  0.91119241  0.26349394  1
  O  O287  1  0.92703372  0.91405554  0.77576673  1
  O  O288  1  0.26292380  0.23505943  0.47373725  1
  O  O289  1  0.25657759  0.24003300  0.97636289  1
  O  O290  1  0.25757125  0.56893471  0.47665775  1
  O  O291  1  0.26974416  0.56586878  0.97342305  1
  O  O292  1  0.25059275  0.91350243  0.47602728  1
  O  O293  1  0.27028821  0.89703414  0.98854082  1
  O  O294  1  0.58534404  0.24002746  0.48818531  1
  O  O295  1  0.59673849  0.23999376  0.97253944  1
  O  O296  1  0.60162301  0.57253270  0.46861535  1
  O  O297  1  0.58284884  0.57970931  0.97302180  1
  O  O298  1  0.59707011  0.90643327  0.47532137  1
  O  O299  1  0.58737461  0.90300797  0.98951360  1
  O  O300  1  0.93350994  0.23996142  0.49141592  1
  O  O301  1  0.93672879  0.23058142  0.97801057  1
  O  O302  1  0.93047563  0.56328884  0.47813872  1
  O  O303  1  0.92887947  0.58343040  0.98652182  1
  O  O304  1  0.93651889  0.90881902  0.48591793  1
  O  O305  1  0.92483866  0.91367618  0.97430469  1
  O  O306  1  0.23142809  0.07625328  0.46255516  1
  O  O307  1  0.23044522  0.05882372  0.98327790  1
  O  O308  1  0.24106639  0.41093971  0.47838606  1
  O  O309  1  0.24159103  0.39821732  0.96776732  1
  O  O310  1  0.23551185  0.74743333  0.48246040  1
  O  O311  1  0.23789057  0.73489757  0.97180763  1
  O  O312  1  0.56321556  0.06582437  0.47639082  1
  O  O313  1  0.57959679  0.08261258  0.97918359  1
  O  O314  1  0.57874428  0.41402838  0.48506455  1
  O  O315  1  0.56352678  0.39303652  0.97699512  1
  O  O316  1  0.57573949  0.72760015  0.47190321  1
  O  O317  1  0.55815301  0.73801180  0.98214968  1
  O  O318  1  0.90759020  0.06174744  0.48003178  1
  O  O319  1  0.91267822  0.07051321  0.96627129  1
  O  O320  1  0.90991169  0.40878769  0.47379375  1
  O  O321  1  0.90539698  0.40715914  0.99096369  1
  O  O322  1  0.90295440  0.73768527  0.49626275  1
  O  O323  1  0.90515089  0.74065749  0.98590650  1
  O  O324  1  0.08743629  0.25275025  0.22788199  1
  O  O325  1  0.09272321  0.25377646  0.72924078  1
  O  O326  1  0.09929342  0.59827128  0.22283299  1
  O  O327  1  0.09217088  0.60328620  0.73745273  1
  O  O328  1  0.10545689  0.92866999  0.22950697  1
  O  O329  1  0.08441857  0.93066796  0.72995506  1
  O  O330  1  0.43200535  0.26086362  0.22796016  1
  O  O331  1  0.43202428  0.26366783  0.72286929  1
  O  O332  1  0.42800895  0.60155771  0.21950926  1
  O  O333  1  0.43237881  0.59832445  0.73916811  1
  O  O334  1  0.41532257  0.92546087  0.22390949  1
  O  O335  1  0.43479177  0.93885604  0.73362666  1
  O  O336  1  0.76149640  0.25192361  0.23430685  1
  O  O337  1  0.75935280  0.25730335  0.72860388  1
  O  O338  1  0.76497146  0.59807725  0.22689044  1
  O  O339  1  0.76395058  0.59611380  0.71849739  1
  O  O340  1  0.75437291  0.92463726  0.22210832  1
  O  O341  1  0.77599767  0.92827334  0.73018968  1
  O  O342  1  0.07436057  0.09541187  0.22613832  1
  O  O343  1  0.05952239  0.09659611  0.72530460  1
  O  O344  1  0.06837299  0.42224845  0.24281317  1
  O  O345  1  0.07045918  0.43551237  0.72349491  1
  O  O346  1  0.08579335  0.76050270  0.22858489  1
  O  O347  1  0.06462577  0.76463893  0.72433318  1
  O  O348  1  0.40123072  0.09328566  0.22795972  1
  O  O349  1  0.39889733  0.10768486  0.73727452  1
  O  O350  1  0.40932990  0.42482984  0.21387385  1
  O  O351  1  0.40487744  0.42190173  0.73154553  1
  O  O352  1  0.40200529  0.75897704  0.21453174  1
  O  O353  1  0.39661031  0.76384765  0.74324866  1
  O  O354  1  0.74360793  0.09246573  0.23059898  1
  O  O355  1  0.75077115  0.09117830  0.72514146  1
  O  O356  1  0.73691511  0.43638925  0.23616662  1
  O  O357  1  0.73236095  0.41809132  0.73378088  1
  O  O358  1  0.73393796  0.75959920  0.21959358  1
  O  O359  1  0.75710817  0.76106264  0.72698685  1
