# generated using pymatgen
data_BaLaInIrO6
_symmetry_space_group_name_H-M   'P 1'
_cell_length_a   17.53419236
_cell_length_b   17.56988868
_cell_length_c   16.51408816
_cell_angle_alpha   90.01674405
_cell_angle_beta   90.01431933
_cell_angle_gamma   90.00007571
_symmetry_Int_Tables_number   1
_chemical_formula_structural   BaLaInIrO6
_chemical_formula_sum   'Ba36 La36 In36 Ir36 O216'
_cell_volume   5087.55764582
_cell_formula_units_Z   36
loop_
 _symmetry_equiv_pos_site_id
 _symmetry_equiv_pos_as_xyz
  1  'x, y, z'
loop_
 _atom_site_type_symbol
 _atom_site_label
 _atom_site_symmetry_multiplicity
 _atom_site_fract_x
 _atom_site_fract_y
 _atom_site_fract_z
 _atom_site_occupancy
  Ba  Ba0  1  0.82983385  0.67211979  0.63044524  1
  Ba  Ba1  1  0.16739281  0.00846591  0.12379052  1
  Ba  Ba2  1  0.16836804  0.31778575  0.87350771  1
  Ba  Ba3  1  0.66815835  0.50562990  0.61930704  1
  Ba  Ba4  1  0.82700771  0.34143124  0.62587894  1
  Ba  Ba5  1  0.33679955  0.84108978  0.62041104  1
  Ba  Ba6  1  0.66571018  0.17366586  0.62255736  1
  Ba  Ba7  1  0.33321594  0.49613658  0.37291179  1
  Ba  Ba8  1  0.49791926  0.67722386  0.12284028  1
  Ba  Ba9  1  0.66824010  0.49566036  0.87371681  1
  Ba  Ba10  1  1.00093899  0.51488928  0.62713254  1
  Ba  Ba11  1  0.66352543  0.82522609  0.87825615  1
  Ba  Ba12  1  -0.00260171  0.15331615  0.37856263  1
  Ba  Ba13  1  0.49707575  0.00874864  0.62585744  1
  Ba  Ba14  1  0.83567222  0.34060138  0.12662491  1
  Ba  Ba15  1  0.50024196  0.32669178  0.37476891  1
  Ba  Ba16  1  0.83732236  0.98914294  0.86834016  1
  Ba  Ba17  1  0.66574791  0.82816114  0.37354149  1
  Ba  Ba18  1  0.17179001  0.98571982  0.37529118  1
  Ba  Ba19  1  0.33077384  0.82346183  0.37364130  1
  Ba  Ba20  1  0.50146169  0.99327688  0.37398928  1
  Ba  Ba21  1  0.49945671  0.67322172  0.62315051  1
  Ba  Ba22  1  0.50054991  0.99201295  0.87768019  1
  Ba  Ba23  1  0.49991668  0.34216280  0.62722142  1
  Ba  Ba24  1  0.50070839  0.00604721  0.12580066  1
  Ba  Ba25  1  0.66554009  0.50958146  0.12716866  1
  Ba  Ba26  1  -0.00129728  0.48841153  0.87148457  1
  Ba  Ba27  1  0.16639954  0.67708710  0.12532010  1
  Ba  Ba28  1  0.83651890  0.98595109  0.37810239  1
  Ba  Ba29  1  0.33412177  0.17193004  0.12542999  1
  Ba  Ba30  1  0.66951056  0.16193890  0.37554657  1
  Ba  Ba31  1  1.00468112  0.83894839  0.12535067  1
  Ba  Ba32  1  0.33394569  0.51376697  0.12441093  1
  Ba  Ba33  1  0.66591161  0.49682811  0.37396185  1
  Ba  Ba34  1  0.66860111  0.84305579  0.12443153  1
  Ba  Ba35  1  0.17000984  0.65890759  0.37274620  1
  La  La36  1  0.83758495  0.31849097  0.87244626  1
  La  La37  1  0.83007532  0.66535926  0.37671672  1
  La  La38  1  1.00553842  0.51695356  0.12231209  1
  La  La39  1  0.83198896  0.65323699  0.87613249  1
  La  La40  1  0.49562973  0.34812427  0.12769957  1
  La  La41  1  0.82617272  0.32868184  0.38555050  1
  La  La42  1  0.17021993  0.65342681  0.87469312  1
  La  La43  1  0.66747954  0.84781777  0.62368720  1
  La  La44  1  0.17093181  0.98331655  0.87780727  1
  La  La45  1  0.49990583  0.32291169  0.87674633  1
  La  La46  1  0.32608760  0.14760523  0.87848043  1
  La  La47  1  0.82770906  0.01511165  0.12850112  1
  La  La48  1  0.65896385  0.16038348  0.87133550  1
  La  La49  1  0.82634080  0.67986723  0.12732642  1
  La  La50  1  0.66703941  0.17328998  0.13154039  1
  La  La51  1  1.00321167  0.18367069  0.62817013  1
  La  La52  1  1.01096591  0.18009345  0.12726664  1
  La  La53  1  0.33627919  0.84660606  0.12834445  1
  La  La54  1  -0.00044460  0.15431051  0.87422045  1
  La  La55  1  -0.00442998  0.81326487  0.87417406  1
  La  La56  1  0.33743196  0.17912549  0.62521360  1
  La  La57  1  0.49905209  0.65633623  0.37162255  1
  La  La58  1  0.33742547  0.51678377  0.62412916  1
  La  La59  1  0.17679009  0.31848305  0.37330761  1
  La  La60  1  -0.00387473  0.48056537  0.37242635  1
  La  La61  1  0.82972275  0.01098380  0.61966920  1
  La  La62  1  0.15991237  0.34779622  0.12477407  1
  La  La63  1  0.50279137  0.65767424  0.87667050  1
  La  La64  1  0.32969782  0.14846336  0.38059767  1
  La  La65  1  0.16107418  0.68786980  0.62370649  1
  La  La66  1  0.16199568  0.34743433  0.62508738  1
  La  La67  1  0.00360715  0.82409332  0.37956848  1
  La  La68  1  1.00568768  0.85076289  0.62965522  1
  La  La69  1  0.32544803  0.48123275  0.87495273  1
  La  La70  1  0.33235980  0.81912955  0.87387392  1
  La  La71  1  0.16501079  0.01686182  0.62734874  1
  In  In72  1  0.83961983  0.16972315  0.24795403  1
  In  In73  1  0.16756381  0.16582763  0.25047693  1
  In  In74  1  0.00040443  -0.00037756  -0.00209644  1
  In  In75  1  0.83558428  0.16396079  0.75031456  1
  In  In76  1  0.83682318  0.82939677  0.50581331  1
  In  In77  1  0.33020873  -0.00249937  0.74844507  1
  In  In78  1  0.66528378  0.33382758  0.24691549  1
  In  In79  1  0.66550674  0.33539217  0.75227955  1
  In  In80  1  0.00131153  0.66253311  0.25421266  1
  In  In81  1  -0.00184648  0.33400529  -0.00119122  1
  In  In82  1  0.16676270  0.83084320  -0.00072716  1
  In  In83  1  0.33043188  0.66880932  0.49913401  1
  In  In84  1  0.66503543  0.00121103  0.49797042  1
  In  In85  1  0.49877681  0.16831354  -0.00133756  1
  In  In86  1  0.49932022  0.16779402  0.25058883  1
  In  In87  1  0.16694653  0.50069823  -0.00021254  1
  In  In88  1  0.16522164  0.50027272  0.49859618  1
  In  In89  1  0.49581843  0.50085113  -0.00422974  1
  In  In90  1  0.83453737  0.49951729  0.75024435  1
  In  In91  1  -0.00112852  -0.00291348  0.24941508  1
  In  In92  1  0.33192685  0.33237096  0.24820521  1
  In  In93  1  0.83631181  0.83189929  0.25054608  1
  In  In94  1  0.16586433  0.16644562  0.50391550  1
  In  In95  1  0.49899367  0.83177870  0.74938598  1
  In  In96  1  0.49873749  0.50066504  0.50257430  1
  In  In97  1  0.66464864  0.66958608  0.24913023  1
  In  In98  1  0.66530509  0.66960590  0.75001159  1
  In  In99  1  0.83800092  0.16719460  0.50083958  1
  In  In100  1  0.66991977  0.00255001  -0.00136907  1
  In  In101  1  0.66733181  0.33371450  -0.00197299  1
  In  In102  1  0.83744179  0.50008232  0.24794776  1
  In  In103  1  0.83744063  0.83435008  -0.00246165  1
  In  In104  1  0.66735102  0.00028586  0.74909106  1
  In  In105  1  0.32995889  0.33414756  0.50232313  1
  In  In106  1  0.83729826  0.50474149  0.49845832  1
  In  In107  1  0.16765712  0.50149224  0.74808501  1
  Ir  Ir108  1  0.00731829  -0.00011076  0.74864751  1
  Ir  Ir109  1  0.66526783  0.33299798  0.49935836  1
  Ir  Ir110  1  0.33453477  0.67017845  -0.00387133  1
  Ir  Ir111  1  -0.00218602  0.66366148  -0.00457895  1
  Ir  Ir112  1  0.16448332  0.83658161  0.50527753  1
  Ir  Ir113  1  0.48826685  0.50114581  0.75319158  1
  Ir  Ir114  1  0.83653447  0.50197293  0.00078823  1
  Ir  Ir115  1  0.66760674  0.66797798  -0.00096516  1
  Ir  Ir116  1  0.33257527  -0.00318283  -0.00078928  1
  Ir  Ir117  1  0.33312246  0.66861569  0.24487535  1
  Ir  Ir118  1  0.84043814  0.83211448  0.74799806  1
  Ir  Ir119  1  0.00282328  0.32908008  0.74844116  1
  Ir  Ir120  1  0.50088443  0.83190172  0.49510554  1
  Ir  Ir121  1  0.00339225  0.66993691  0.50374284  1
  Ir  Ir122  1  0.66392150  0.67121357  0.49994908  1
  Ir  Ir123  1  0.00307968  0.67107549  0.74928242  1
  Ir  Ir124  1  0.49665576  0.83381497  0.24983462  1
  Ir  Ir125  1  0.00616733  0.33325627  0.25378671  1
  Ir  Ir126  1  0.16178659  0.49862643  0.24905248  1
  Ir  Ir127  1  0.33043839  -0.00344372  0.50062899  1
  Ir  Ir128  1  0.49616695  0.50355743  0.24787801  1
  Ir  Ir129  1  0.49100148  0.17188083  0.75057071  1
  Ir  Ir130  1  0.00348180  -0.00363932  0.50773343  1
  Ir  Ir131  1  0.16710709  0.16450724  0.75247165  1
  Ir  Ir132  1  0.00389051  0.33448281  0.50192054  1
  Ir  Ir133  1  0.33327282  -0.00335203  0.25075325  1
  Ir  Ir134  1  0.33099703  0.33108710  -0.00139570  1
  Ir  Ir135  1  0.66649067  0.00075471  0.24746905  1
  Ir  Ir136  1  0.83572843  0.16683150  -0.00038457  1
  Ir  Ir137  1  0.49393073  0.83272958  0.00285914  1
  Ir  Ir138  1  0.32999754  0.32921181  0.75391067  1
  Ir  Ir139  1  0.16985184  0.83270016  0.25029903  1
  Ir  Ir140  1  0.16457459  0.83308307  0.75119593  1
  Ir  Ir141  1  0.32937980  0.66640206  0.75539727  1
  Ir  Ir142  1  0.49458093  0.16843743  0.50456370  1
  Ir  Ir143  1  0.16640944  0.16754357  -0.00229013  1
  O  O144  1  0.29655898  0.32871716  0.11718664  1
  O  O145  1  0.29626824  0.31696117  0.63523744  1
  O  O146  1  0.31136823  0.66920176  0.11852135  1
  O  O147  1  0.29728561  0.65857097  0.63582517  1
  O  O148  1  0.31355563  0.98558959  0.12574443  1
  O  O149  1  0.30058610  0.99496587  0.62162023  1
  O  O150  1  0.63071899  0.31991550  0.11973500  1
  O  O151  1  0.65020777  0.33423862  0.62044922  1
  O  O152  1  0.64875354  0.66588644  0.11780276  1
  O  O153  1  0.64736712  0.66469131  0.62027789  1
  O  O154  1  0.65090633  1.00684129  0.12864380  1
  O  O155  1  0.64627961  0.98661890  0.62396304  1
  O  O156  1  0.98761159  0.32270850  0.13113003  1
  O  O157  1  0.97697876  0.32307159  0.62442235  1
  O  O158  1  0.96969375  0.65804506  0.11617147  1
  O  O159  1  0.98000997  0.67112360  0.62597329  1
  O  O160  1  0.96542824  0.99182750  0.12116891  1
  O  O161  1  0.97101821  0.98778494  0.62902815  1
  O  O162  1  0.18410816  0.16799249  0.11787089  1
  O  O163  1  0.19930015  0.15617655  0.63332603  1
  O  O164  1  0.18407998  0.48839050  0.12859491  1
  O  O165  1  0.20000782  0.48605861  0.62696664  1
  O  O166  1  0.19549978  0.83106029  0.12832572  1
  O  O167  1  0.18911602  0.82550478  0.62880976  1
  O  O168  1  0.52987660  0.16320740  0.12283427  1
  O  O169  1  0.51706944  0.16616776  0.62881911  1
  O  O170  1  0.51185489  0.49325331  0.12530746  1
  O  O171  1  0.51452190  0.49968517  0.63579794  1
  O  O172  1  0.51778846  0.83218521  0.12722815  1
  O  O173  1  0.52785442  0.82698600  0.61601057  1
  O  O174  1  0.87508055  0.15893084  0.11611422  1
  O  O175  1  0.87005130  0.15921239  0.62513023  1
  O  O176  1  0.86991565  0.49590510  0.11815154  1
  O  O177  1  0.85149117  0.50213060  0.62286667  1
  O  O178  1  0.85772783  0.81520853  0.12272734  1
  O  O179  1  0.87277837  0.82521585  0.63189323  1
  O  O180  1  0.14422479  0.17967527  0.37844166  1
  O  O181  1  0.13603072  0.16657026  0.87469336  1
  O  O182  1  0.13296442  0.50362412  0.36937560  1
  O  O183  1  0.14801404  0.51257167  0.87365886  1
  O  O184  1  0.13839114  0.83469516  0.37969751  1
  O  O185  1  0.13297861  0.84112890  0.86866190  1
  O  O186  1  0.46507460  0.17001830  0.38403683  1
  O  O187  1  0.45992309  0.17967121  0.86926478  1
  O  O188  1  0.48281741  0.51253367  0.37009002  1
  O  O189  1  0.45764314  0.51282239  0.87007734  1
  O  O190  1  0.47648454  0.83680953  0.37185102  1
  O  O191  1  0.46807720  0.83289445  0.88381289  1
  O  O192  1  0.82661133  0.19069471  0.37502985  1
  O  O193  1  0.80072227  0.17423297  0.88080622  1
  O  O194  1  0.82241511  0.52234179  0.37495390  1
  O  O195  1  0.81874928  0.51356607  0.88169966  1
  O  O196  1  0.82063862  0.82345753  0.37947536  1
  O  O197  1  0.81569394  0.83273597  0.86534805  1
  O  O198  1  0.02298133  -0.00182212  0.38747349  1
  O  O199  1  0.03877561  0.01528724  0.86677485  1
  O  O200  1  0.03899503  0.34246123  0.37895429  1
  O  O201  1  0.02086989  0.32984444  0.86877435  1
  O  O202  1  0.02223550  0.68343315  0.38462127  1
  O  O203  1  0.03358003  0.67217583  0.87127708  1
  O  O204  1  0.35232699  0.00961350  0.37590250  1
  O  O205  1  0.34838895  0.00749465  0.87882026  1
  O  O206  1  0.34631408  0.34188578  0.37523395  1
  O  O207  1  0.36283936  0.34055678  0.87591121  1
  O  O208  1  0.35862919  0.66761130  0.36662317  1
  O  O209  1  0.36467182  0.67996778  0.87621196  1
  O  O210  1  0.68405279  -0.00384594  0.36769962  1
  O  O211  1  0.68949973  0.01812112  0.87250315  1
  O  O212  1  0.68954282  0.33301386  0.37832833  1
  O  O213  1  0.70442849  0.33697821  0.87711443  1
  O  O214  1  0.69212242  0.67197910  0.37990802  1
  O  O215  1  0.69429581  0.67021167  0.88036216  1
  O  O216  1  0.06816278  0.10655647  0.01581366  1
  O  O217  1  0.06918117  0.09199788  0.53532839  1
  O  O218  1  0.07054387  0.42807553  0.02475732  1
  O  O219  1  0.06779247  0.42660711  0.52206431  1
  O  O220  1  0.06760972  0.75514472  0.00820003  1
  O  O221  1  0.06716120  0.77067441  0.52754635  1
  O  O222  1  0.40095647  0.09029425  0.00998506  1
  O  O223  1  0.39722743  0.09865284  0.52271876  1
  O  O224  1  0.39730660  0.42359262  0.01286899  1
  O  O225  1  0.39819090  0.43137215  0.52791400  1
  O  O226  1  0.39487827  0.76862462  0.01882365  1
  O  O227  1  0.41199492  0.76071541  0.51037745  1
  O  O228  1  0.75009953  0.09703727  0.03489904  1
  O  O229  1  0.74951074  0.08664769  0.51650057  1
  O  O230  1  0.74543294  0.43505399  0.01967464  1
  O  O231  1  0.74406647  0.41733795  0.50405173  1
  O  O232  1  0.74296555  0.75256184  0.01650014  1
  O  O233  1  0.73009970  0.76313239  0.52486815  1
  O  O234  1  0.09919750  0.26102068  0.02256781  1
  O  O235  1  0.09458646  0.26487996  0.53290929  1
  O  O236  1  0.08779027  0.59390160  0.01790849  1
  O  O237  1  0.09904492  0.60682120  0.52657828  1
  O  O238  1  0.10314565  0.93309913  0.00571936  1
  O  O239  1  0.09981520  0.93284473  0.53277313  1
  O  O240  1  0.42710353  0.27026541  0.02098068  1
  O  O241  1  0.42236762  0.25377834  0.52701546  1
  O  O242  1  0.42524945  0.60201446  0.00921577  1
  O  O243  1  0.42091794  0.59180897  0.51830965  1
  O  O244  1  0.42076220  0.92185431  0.02731433  1
  O  O245  1  0.42798142  0.92620328  0.51525629  1
  O  O246  1  0.76142183  0.25014038  0.02443865  1
  O  O247  1  0.75560051  0.26092371  0.51178193  1
  O  O248  1  0.77102308  0.60188958  0.01928887  1
  O  O249  1  0.75468328  0.60100506  0.51156610  1
  O  O250  1  0.76790054  0.93227062  0.02045295  1
  O  O251  1  0.76383462  0.92381414  0.52825153  1
  O  O252  1  0.24689815  0.07078317  0.26754138  1
  O  O253  1  0.22918755  0.06843922  0.77560600  1
  O  O254  1  0.22306925  0.40116731  0.26530471  1
  O  O255  1  0.24547153  0.40385786  0.77464653  1
  O  O256  1  0.24112005  0.73902284  0.26432061  1
  O  O257  1  0.23318862  0.73677332  0.78143472  1
  O  O258  1  0.57888232  0.07226135  0.26580311  1
  O  O259  1  0.57069709  0.08971761  0.77071588  1
  O  O260  1  0.56639103  0.41384513  0.25669467  1
  O  O261  1  0.55685320  0.40969974  0.77849562  1
  O  O262  1  0.56169466  0.74045828  0.27268707  1
  O  O263  1  0.56702359  0.73483249  0.77598643  1
  O  O264  1  0.89891847  0.06639021  0.26192090  1
  O  O265  1  0.92201902  0.07360805  0.77292350  1
  O  O266  1  0.90927653  0.39280255  0.28331056  1
  O  O267  1  0.90661284  0.39519688  0.77163855  1
  O  O268  1  0.89853161  0.72122516  0.26718259  1
  O  O269  1  0.90727774  0.73674208  0.77886440  1
  O  O270  1  0.26526081  0.23343723  0.27937477  1
  O  O271  1  0.26693705  0.22854880  0.77713915  1
  O  O272  1  0.25744001  0.56986051  0.26287444  1
  O  O273  1  0.26498905  0.57500134  0.78162303  1
  O  O274  1  0.26499380  0.90186492  0.26058958  1
  O  O275  1  0.25526323  0.90048485  0.78200924  1
  O  O276  1  0.59266693  0.24031902  0.26882163  1
  O  O277  1  0.58095732  0.24511278  0.77648325  1
  O  O278  1  0.58347606  0.57888877  0.26606669  1
  O  O279  1  0.57499162  0.57524433  0.77507116  1
  O  O280  1  0.59126150  0.90442397  0.26327583  1
  O  O281  1  0.59639830  0.90354135  0.76199596  1
  O  O282  1  0.94745028  0.23614472  0.25755749  1
  O  O283  1  0.93606018  0.23572885  0.77132206  1
  O  O284  1  0.94675130  0.55335399  0.26110535  1
  O  O285  1  0.93068732  0.58283988  0.76997534  1
  O  O286  1  0.93883941  0.89369101  0.27710128  1
  O  O287  1  0.94423057  0.89717294  0.76895969  1
  O  O288  1  0.26727982  0.22921847  0.48254156  1
  O  O289  1  0.26683308  0.23193212  0.97536180  1
  O  O290  1  0.26138194  0.57003499  0.48956024  1
  O  O291  1  0.26610495  0.57677385  0.97258788  1
  O  O292  1  0.26072772  0.90308428  0.48271184  1
  O  O293  1  0.26656362  0.90247283  0.97466854  1
  O  O294  1  0.58775399  0.24101367  0.48450809  1
  O  O295  1  0.58961785  0.24314187  0.95783387  1
  O  O296  1  0.58946235  0.58501569  0.47928898  1
  O  O297  1  0.58970948  0.58349417  0.97784697  1
  O  O298  1  0.59040283  0.90186099  0.48658099  1
  O  O299  1  0.58398734  0.90515288  0.98822089  1
  O  O300  1  0.93570608  0.24508084  0.48831727  1
  O  O301  1  0.92342301  0.23921070  0.96817803  1
  O  O302  1  0.94510772  0.57387518  0.47712609  1
  O  O303  1  0.93038840  0.57043977  0.97937812  1
  O  O304  1  0.94409831  0.89760908  0.48930315  1
  O  O305  1  0.93797792  0.89860245  0.96669409  1
  O  O306  1  0.24054592  0.06699409  0.48782062  1
  O  O307  1  0.23556195  0.06980672  0.97226462  1
  O  O308  1  0.22119223  0.39054975  0.48653001  1
  O  O309  1  0.24249141  0.40369952  0.97872940  1
  O  O310  1  0.23106299  0.74214052  0.49300799  1
  O  O311  1  0.24080294  0.73647482  0.96822193  1
  O  O312  1  0.56911463  0.08258329  0.48806553  1
  O  O313  1  0.58303340  0.08420468  0.97305119  1
  O  O314  1  0.57877926  0.40914587  0.48595546  1
  O  O315  1  0.56474356  0.40430262  0.97512222  1
  O  O316  1  0.56655412  0.73725927  0.47174393  1
  O  O317  1  0.56712234  0.73690983  0.97582689  1
  O  O318  1  0.91097030  0.06174493  0.49164979  1
  O  O319  1  0.90917579  0.08279873  0.96938439  1
  O  O320  1  0.91237149  0.40297045  0.47052830  1
  O  O321  1  0.89726591  0.40407830  0.97547544  1
  O  O322  1  0.90628208  0.72827532  0.48167546  1
  O  O323  1  0.90810730  0.73143499  0.96839024  1
  O  O324  1  0.10397881  0.27383051  0.22993779  1
  O  O325  1  0.09889987  0.25883953  0.72200700  1
  O  O326  1  0.09575265  0.58912909  0.22595311  1
  O  O327  1  0.10104325  0.60753945  0.72893188  1
  O  O328  1  0.10036063  0.92221146  0.23455089  1
  O  O329  1  0.10190591  0.93085408  0.72241727  1
  O  O330  1  0.43064845  0.26641342  0.21971821  1
  O  O331  1  0.41790394  0.25914061  0.72662708  1
  O  O332  1  0.42693920  0.59920878  0.23484558  1
  O  O333  1  0.41494177  0.59139645  0.72418489  1
  O  O334  1  0.42232179  0.92190173  0.22809005  1
  O  O335  1  0.42261006  0.92371903  0.73697967  1
  O  O336  1  0.75454131  0.24998043  0.22115929  1
  O  O337  1  0.75759858  0.25483122  0.73939278  1
  O  O338  1  0.76666761  0.59917355  0.22923696  1
  O  O339  1  0.76098109  0.59840672  0.74993519  1
  O  O340  1  0.76324027  0.93450229  0.22722976  1
  O  O341  1  0.77592704  0.92338170  0.72028534  1
  O  O342  1  0.06905817  0.09757006  0.22713405  1
  O  O343  1  0.07168721  0.09818365  0.72181665  1
  O  O344  1  0.06503350  0.43384322  0.22819841  1
  O  O345  1  0.07604548  0.41788140  0.72739850  1
  O  O346  1  0.07831099  0.76178409  0.24140158  1
  O  O347  1  0.07076882  0.76533767  0.72403410  1
  O  O348  1  0.40327790  0.08727281  0.24082573  1
  O  O349  1  0.39741261  0.10210022  0.73185196  1
  O  O350  1  0.40920374  0.42909565  0.22964973  1
  O  O351  1  0.39133014  0.43128198  0.73141879  1
  O  O352  1  0.40009410  0.76554835  0.22518287  1
  O  O353  1  0.39687244  0.75721964  0.73883586  1
  O  O354  1  0.73640218  0.09121864  0.22786766  1
  O  O355  1  0.75321445  0.08150938  0.71923961  1
  O  O356  1  0.74498055  0.42374108  0.23670685  1
  O  O357  1  0.73705502  0.43018601  0.73628020  1
  O  O358  1  0.74079784  0.75937187  0.23055680  1
  O  O359  1  0.74149553  0.77272225  0.72626001  1
