# generated using pymatgen
data_BaLaInIrO6
_symmetry_space_group_name_H-M   'P 1'
_cell_length_a   17.51764931
_cell_length_b   17.54882588
_cell_length_c   16.48159450
_cell_angle_alpha   89.97234982
_cell_angle_beta   90.02175362
_cell_angle_gamma   90.01057035
_symmetry_Int_Tables_number   1
_chemical_formula_structural   BaLaInIrO6
_chemical_formula_sum   'Ba36 La36 In36 Ir36 O216'
_cell_volume   5066.67477911
_cell_formula_units_Z   36
loop_
 _symmetry_equiv_pos_site_id
 _symmetry_equiv_pos_as_xyz
  1  'x, y, z'
loop_
 _atom_site_type_symbol
 _atom_site_label
 _atom_site_symmetry_multiplicity
 _atom_site_fract_x
 _atom_site_fract_y
 _atom_site_fract_z
 _atom_site_occupancy
  Ba  Ba0  1  0.83116897  0.99356513  0.87671420  1
  Ba  Ba1  1  0.17192008  0.65712703  0.87746718  1
  Ba  Ba2  1  1.00194979  0.84187462  0.12644735  1
  Ba  Ba3  1  0.00336158  0.16017192  0.87231779  1
  Ba  Ba4  1  0.33391027  0.50935529  0.62460192  1
  Ba  Ba5  1  0.32909413  0.15265713  0.37097711  1
  Ba  Ba6  1  0.50231131  0.99347502  0.36869443  1
  Ba  Ba7  1  0.50211669  0.32045972  0.87506271  1
  Ba  Ba8  1  0.83468454  0.33851334  0.62381420  1
  Ba  Ba9  1  0.49320534  0.34232631  0.12687147  1
  Ba  Ba10  1  0.82989043  0.99256497  0.37134378  1
  Ba  Ba11  1  0.33321875  0.82013426  0.88030728  1
  Ba  Ba12  1  0.16968404  0.32401837  0.87219718  1
  Ba  Ba13  1  0.33431745  0.17667969  0.12430022  1
  Ba  Ba14  1  0.83138036  0.67356780  0.62062368  1
  Ba  Ba15  1  0.17340843  0.99159864  0.87913052  1
  Ba  Ba16  1  0.83198400  0.32637290  0.87311313  1
  Ba  Ba17  1  0.32918068  0.15665073  0.87664662  1
  Ba  Ba18  1  0.50196976  0.31845701  0.37764653  1
  Ba  Ba19  1  0.66433505  0.49113664  0.87481713  1
  Ba  Ba20  1  0.00021011  0.15618305  0.37735545  1
  Ba  Ba21  1  1.00331399  0.50889281  0.62381463  1
  Ba  Ba22  1  -0.00187559  0.49228347  0.36999616  1
  Ba  Ba23  1  0.66829608  0.84205972  0.62380390  1
  Ba  Ba24  1  0.16697858  0.67340096  0.62978148  1
  Ba  Ba25  1  0.66312145  0.17342159  0.12857729  1
  Ba  Ba26  1  0.16734675  0.00943741  0.12582690  1
  Ba  Ba27  1  0.66780334  0.49200395  0.37478268  1
  Ba  Ba28  1  0.50083577  0.65712015  0.87822736  1
  Ba  Ba29  1  0.16531138  0.34398613  0.62326650  1
  Ba  Ba30  1  0.83028716  0.00567208  0.62464228  1
  Ba  Ba31  1  0.83135845  0.67932594  0.13028773  1
  Ba  Ba32  1  0.67027565  0.50875901  0.62312657  1
  Ba  Ba33  1  0.99864033  0.83653961  0.62556068  1
  Ba  Ba34  1  0.16764377  0.33991643  0.11929001  1
  Ba  Ba35  1  0.49773086  0.67978367  0.12539262  1
  La  La36  1  1.00810968  0.51365905  0.11700574  1
  La  La37  1  0.16300650  0.00859182  0.62507118  1
  La  La38  1  0.00287573  0.82054949  0.87380041  1
  La  La39  1  0.33880752  0.18292534  0.62698707  1
  La  La40  1  0.49310983  0.01776774  0.62447969  1
  La  La41  1  0.50184165  0.65410834  0.37462273  1
  La  La42  1  0.66274960  0.16028502  0.38357233  1
  La  La43  1  0.32792462  0.48903162  0.37405493  1
  La  La44  1  0.66183322  0.81851174  0.37437804  1
  La  La45  1  0.34101728  0.85191633  0.12180182  1
  La  La46  1  0.83497198  0.65535867  0.37431124  1
  La  La47  1  0.49372601  0.68381704  0.62813229  1
  La  La48  1  0.17343799  0.31628176  0.37537739  1
  La  La49  1  0.66563455  0.51127505  0.12250366  1
  La  La50  1  0.17282957  0.98403967  0.37155938  1
  La  La51  1  0.49383538  0.02002682  0.12511984  1
  La  La52  1  0.83480958  0.01162424  0.12473722  1
  La  La53  1  0.66332216  0.81744277  0.87139759  1
  La  La54  1  0.82844180  0.34542762  0.12359088  1
  La  La55  1  0.33281778  0.82233830  0.37282249  1
  La  La56  1  1.00289812  0.18003369  0.62709588  1
  La  La57  1  0.67146358  0.84937273  0.12273505  1
  La  La58  1  0.16477774  0.67858681  0.12414912  1
  La  La59  1  -0.00000314  0.82143666  0.37538375  1
  La  La60  1  0.32968214  0.48795822  0.87469356  1
  La  La61  1  0.66358587  0.15523272  0.87441836  1
  La  La62  1  0.83652264  0.65344414  0.86827885  1
  La  La63  1  0.17290302  0.65307050  0.37989651  1
  La  La64  1  0.33882201  0.84899476  0.63201918  1
  La  La65  1  0.83783209  0.31880543  0.37380376  1
  La  La66  1  0.50354014  0.98561737  0.87651416  1
  La  La67  1  0.33499032  0.50718307  0.11535537  1
  La  La68  1  1.00357390  0.17698327  0.12277345  1
  La  La69  1  0.66580499  0.18084666  0.62678554  1
  La  La70  1  0.49464851  0.35310258  0.62505964  1
  La  La71  1  -0.00244249  0.48604556  0.87163297  1
  In  In72  1  0.83137698  0.16342030  0.50148639  1
  In  In73  1  0.83192735  0.16441094  0.74963002  1
  In  In74  1  0.16969402  0.83382908  0.00468738  1
  In  In75  1  0.00245692  0.33419077  0.49358145  1
  In  In76  1  0.83349171  0.83339697  -0.00087348  1
  In  In77  1  0.17171686  0.83259902  0.50103724  1
  In  In78  1  0.49759222  0.50267650  0.25021428  1
  In  In79  1  0.49808699  0.83778872  0.49819694  1
  In  In80  1  0.16618341  0.49783157  0.24784843  1
  In  In81  1  0.33581677  0.33416408  0.49784307  1
  In  In82  1  0.83230365  0.83368379  0.49549711  1
  In  In83  1  0.83406018  0.49883383  0.49812097  1
  In  In84  1  0.83530726  0.50021088  0.24748695  1
  In  In85  1  0.83258315  0.16684406  0.00039550  1
  In  In86  1  0.66458439  0.33369818  0.50158302  1
  In  In87  1  0.66544070  0.33473542  0.24929110  1
  In  In88  1  0.66752085  0.66951926  0.00427996  1
  In  In89  1  0.83280678  0.49826476  0.74945010  1
  In  In90  1  0.16872017  0.16163354  0.50088235  1
  In  In91  1  0.66355510  0.33169542  0.00216757  1
  In  In92  1  0.66526699  -0.00147095  0.24947705  1
  In  In93  1  0.83057435  0.83569180  0.75214287  1
  In  In94  1  0.33384459  0.66868254  0.25059954  1
  In  In95  1  0.16655525  0.16593841  0.00107822  1
  In  In96  1  0.33133080  0.33512839  0.24907366  1
  In  In97  1  0.00167404  -0.00179698  0.49912264  1
  In  In98  1  0.83408635  0.16739275  0.24841945  1
  In  In99  1  -0.00048937  -0.00238698  -0.00086139  1
  In  In100  1  0.16968957  0.83436082  0.75116148  1
  In  In101  1  0.66482928  0.66709302  0.74669058  1
  In  In102  1  0.83483152  0.50215922  0.00375809  1
  In  In103  1  0.17080171  0.16241758  0.74765629  1
  In  In104  1  0.33478354  0.66436984  0.75215381  1
  In  In105  1  0.33646526  0.33330502  0.75034979  1
  In  In106  1  0.00260588  0.66864642  0.24887283  1
  In  In107  1  0.00104992  0.66605567  0.75030934  1
  Ir  Ir108  1  0.16696521  0.50488090  0.49937693  1
  Ir  Ir109  1  0.65878586  0.00101718  0.50278835  1
  Ir  Ir110  1  0.16914171  0.49948457  -0.00189582  1
  Ir  Ir111  1  0.65948349  0.32938532  0.74927878  1
  Ir  Ir112  1  0.66038393  0.00004903  -0.00155688  1
  Ir  Ir113  1  0.34109647  -0.00077258  0.00077837  1
  Ir  Ir114  1  0.49865951  0.16043948  0.50376737  1
  Ir  Ir115  1  0.50262090  0.83641051  0.00159250  1
  Ir  Ir116  1  0.83161338  0.83545854  0.25112842  1
  Ir  Ir117  1  0.50086207  0.83770358  0.75179453  1
  Ir  Ir118  1  0.33868282  -0.00103839  0.74745175  1
  Ir  Ir119  1  0.00328530  0.66417938  -0.00065791  1
  Ir  Ir120  1  0.49799928  0.50674569  0.50313190  1
  Ir  Ir121  1  0.49694755  0.16301793  -0.00487105  1
  Ir  Ir122  1  0.00234076  -0.00382196  0.25171930  1
  Ir  Ir123  1  0.49958303  0.83505476  0.24749723  1
  Ir  Ir124  1  0.50053192  0.50094290  0.74889201  1
  Ir  Ir125  1  0.50076425  0.16309644  0.74829208  1
  Ir  Ir126  1  0.16925651  0.83355952  0.25301254  1
  Ir  Ir127  1  0.00439085  0.66810240  0.49511526  1
  Ir  Ir128  1  0.66064157  0.66845075  0.49433116  1
  Ir  Ir129  1  0.49779852  0.50118471  -0.00253514  1
  Ir  Ir130  1  0.16601468  0.49747645  0.75271606  1
  Ir  Ir131  1  0.00059887  0.33085505  0.24529182  1
  Ir  Ir132  1  0.33732159  0.66936015  0.49994546  1
  Ir  Ir133  1  0.00230364  -0.00129272  0.74889937  1
  Ir  Ir134  1  0.33307963  0.66172307  0.00392830  1
  Ir  Ir135  1  -0.00127391  0.33455334  0.00042440  1
  Ir  Ir136  1  0.00258377  0.33304941  0.75235307  1
  Ir  Ir137  1  0.33328637  -0.00267144  0.50003968  1
  Ir  Ir138  1  0.16174005  0.16424559  0.24903171  1
  Ir  Ir139  1  0.33462641  -0.00292699  0.25169028  1
  Ir  Ir140  1  0.65757514  0.00119041  0.74974395  1
  Ir  Ir141  1  0.33556884  0.33632338  -0.00186718  1
  Ir  Ir142  1  0.49778008  0.16281885  0.25250167  1
  Ir  Ir143  1  0.66437054  0.67237251  0.25240090  1
  O  O144  1  0.32070428  0.34199915  0.11937745  1
  O  O145  1  0.32254829  0.32908198  0.62300911  1
  O  O146  1  0.30303083  0.64862954  0.12468548  1
  O  O147  1  0.31865079  0.66440567  0.61879252  1
  O  O148  1  0.31681536  0.98955081  0.12721422  1
  O  O149  1  0.30474589  0.98830267  0.62285640  1
  O  O150  1  0.63730176  0.32531432  0.12564137  1
  O  O151  1  0.62763307  0.32149265  0.63023902  1
  O  O152  1  0.64360588  0.65998196  0.13430273  1
  O  O153  1  0.63008695  0.66689789  0.61477451  1
  O  O154  1  0.63061479  0.98729625  0.11732106  1
  O  O155  1  0.62802777  0.99145746  0.62742879  1
  O  O156  1  0.96718620  0.32140300  0.12303527  1
  O  O157  1  0.98607562  0.32595855  0.63070976  1
  O  O158  1  0.98162525  0.65534210  0.11855371  1
  O  O159  1  0.98317561  0.66748834  0.61662913  1
  O  O160  1  0.96909742  0.99232574  0.13431934  1
  O  O161  1  0.98065376  0.98915933  0.63202953  1
  O  O162  1  0.18294961  0.16576359  0.13050138  1
  O  O163  1  0.20634593  0.14670921  0.62343077  1
  O  O164  1  0.19967740  0.49741866  0.11782617  1
  O  O165  1  0.18692052  0.50010967  0.62717342  1
  O  O166  1  0.20344451  0.82045261  0.13467536  1
  O  O167  1  0.20348456  0.83223969  0.62435007  1
  O  O168  1  0.51561562  0.15823029  0.12204840  1
  O  O169  1  0.52943428  0.15520207  0.62687319  1
  O  O170  1  0.52539250  0.50028052  0.11862867  1
  O  O171  1  0.52306343  0.49157342  0.62651660  1
  O  O172  1  0.53311571  0.83305393  0.12514961  1
  O  O173  1  0.51784799  0.82486862  0.62987516  1
  O  O174  1  0.86661375  0.15288475  0.12605244  1
  O  O175  1  0.86637421  0.16414550  0.62776314  1
  O  O176  1  0.87501787  0.48711279  0.12561881  1
  O  O177  1  0.85258957  0.50210196  0.62386085  1
  O  O178  1  0.85282435  0.83676976  0.13150126  1
  O  O179  1  0.84513674  0.83384098  0.62256534  1
  O  O180  1  0.14869430  0.17126437  0.36963575  1
  O  O181  1  0.15681539  0.16194518  0.87419724  1
  O  O182  1  0.14740247  0.51583740  0.38040286  1
  O  O183  1  0.13708270  0.49847484  0.87512906  1
  O  O184  1  0.13934243  0.84468120  0.37193282  1
  O  O185  1  0.14233221  0.83621880  0.87886712  1
  O  O186  1  0.47756214  0.15698228  0.37810294  1
  O  O187  1  0.47582090  0.16296656  0.87117621  1
  O  O188  1  0.46556222  0.51615189  0.38509309  1
  O  O189  1  0.46755581  0.50318671  0.87288942  1
  O  O190  1  0.46775274  0.83789440  0.36769010  1
  O  O191  1  0.47790248  0.84840791  0.87680827  1
  O  O192  1  0.79832135  0.17529717  0.37318394  1
  O  O193  1  0.80110723  0.16754756  0.87329025  1
  O  O194  1  0.81616547  0.51777386  0.37245416  1
  O  O195  1  0.81485424  0.51105746  0.87795269  1
  O  O196  1  0.79829446  0.83584865  0.36859849  1
  O  O197  1  0.79504174  0.84086896  0.87732194  1
  O  O198  1  0.03759028  0.00011169  0.36854643  1
  O  O199  1  0.02387179  0.00528188  0.86616092  1
  O  O200  1  0.03953915  0.33536543  0.36154088  1
  O  O201  1  0.02413464  0.34689379  0.87801721  1
  O  O202  1  0.03582771  0.67577271  0.37509081  1
  O  O203  1  0.02464136  0.67929338  0.88309271  1
  O  O204  1  0.35599048  -0.00370104  0.37527653  1
  O  O205  1  0.36885771  0.00333871  0.87408535  1
  O  O206  1  0.35459704  0.35108059  0.37453230  1
  O  O207  1  0.35255033  0.34276877  0.87777144  1
  O  O208  1  0.36554720  0.68250094  0.38201758  1
  O  O209  1  0.35314146  0.66279348  0.88356721  1
  O  O210  1  0.67527000  0.02097922  0.38125025  1
  O  O211  1  0.67972686  0.01769464  0.87285785  1
  O  O212  1  0.69695453  0.32603956  0.37515758  1
  O  O213  1  0.67868797  0.32789816  0.86966087  1
  O  O214  1  0.69479987  0.68028493  0.37258225  1
  O  O215  1  0.69573459  0.67598778  0.87852458  1
  O  O216  1  0.06673948  0.09828591  0.02355738  1
  O  O217  1  0.07128048  0.09465193  0.53377508  1
  O  O218  1  0.06914951  0.43485739  0.01906988  1
  O  O219  1  0.07878513  0.43282636  0.51185390  1
  O  O220  1  0.07816751  0.74922099  0.02608138  1
  O  O221  1  0.07210012  0.75985165  0.50840511  1
  O  O222  1  0.40897730  0.09098373  0.02036055  1
  O  O223  1  0.39825914  0.09517700  0.52886619  1
  O  O224  1  0.40138390  0.43500211  0.01408386  1
  O  O225  1  0.41215737  0.43243091  0.51901498  1
  O  O226  1  0.40226591  0.76468300  0.02683405  1
  O  O227  1  0.40015182  0.76472577  0.52550770  1
  O  O228  1  0.72643639  0.09138822  0.01371768  1
  O  O229  1  0.72131296  0.09491575  0.52454727  1
  O  O230  1  0.73845081  0.42722918  0.02954459  1
  O  O231  1  0.73974752  0.42447523  0.51544551  1
  O  O232  1  0.73314579  0.77029907  0.02710513  1
  O  O233  1  0.73134519  0.75804095  0.50651165  1
  O  O234  1  0.08522762  0.26176527  0.01619257  1
  O  O235  1  0.08967040  0.25463939  0.51736096  1
  O  O236  1  0.10039751  0.59357186  0.02741264  1
  O  O237  1  0.10169286  0.60225638  0.51223034  1
  O  O238  1  0.09426985  0.92483908  0.02068425  1
  O  O239  1  0.10881839  0.93611577  0.51489601  1
  O  O240  1  0.42709806  0.26033355  0.01572656  1
  O  O241  1  0.43504131  0.25552221  0.52637715  1
  O  O242  1  0.42276868  0.58844678  0.02514376  1
  O  O243  1  0.43710977  0.60789360  0.52240281  1
  O  O244  1  0.43626641  0.93048484  0.02516319  1
  O  O245  1  0.42605529  0.93292302  0.53040977  1
  O  O246  1  0.76633812  0.26505936  0.02501609  1
  O  O247  1  0.74819478  0.24920825  0.53023428  1
  O  O248  1  0.75360000  0.58846537  0.03257099  1
  O  O249  1  0.75152298  0.60041629  0.50615861  1
  O  O250  1  0.75513752  0.93690602  0.02750914  1
  O  O251  1  0.75044381  0.93383179  0.50847906  1
  O  O252  1  0.23373888  0.06670568  0.27341333  1
  O  O253  1  0.24644066  0.06199288  0.76228668  1
  O  O254  1  0.22913744  0.40098042  0.27870138  1
  O  O255  1  0.24181024  0.41301126  0.76696319  1
  O  O256  1  0.23719771  0.74212816  0.28197400  1
  O  O257  1  0.24614997  0.74072837  0.76744178  1
  O  O258  1  0.56848751  0.07233502  0.25117931  1
  O  O259  1  0.55954172  0.06335488  0.76871026  1
  O  O260  1  0.56932768  0.40944713  0.27125296  1
  O  O261  1  0.56533009  0.40113892  0.76066360  1
  O  O262  1  0.56868334  0.74198123  0.27982442  1
  O  O263  1  0.56892486  0.74695357  0.77133821  1
  O  O264  1  0.91472119  0.06645263  0.26877384  1
  O  O265  1  0.91090181  0.06763493  0.76554236  1
  O  O266  1  0.90644659  0.39450411  0.27245928  1
  O  O267  1  0.91731500  0.40883210  0.77107339  1
  O  O268  1  0.90434744  0.74648622  0.27882858  1
  O  O269  1  0.90387926  0.73954684  0.78044158  1
  O  O270  1  0.24871642  0.24111369  0.26797830  1
  O  O271  1  0.26759769  0.23583674  0.75290038  1
  O  O272  1  0.26195273  0.57345278  0.28099627  1
  O  O273  1  0.26070390  0.56438888  0.77208838  1
  O  O274  1  0.26434026  0.90287597  0.27793073  1
  O  O275  1  0.27597748  0.90521421  0.76371500  1
  O  O276  1  0.59304151  0.22747541  0.27708261  1
  O  O277  1  0.59805025  0.22613788  0.76888509  1
  O  O278  1  0.59461720  0.58365743  0.27338915  1
  O  O279  1  0.58847530  0.57153586  0.76535534  1
  O  O280  1  0.59765536  0.89605786  0.26994569  1
  O  O281  1  0.59326527  0.90649865  0.78092862  1
  O  O282  1  0.93256347  0.24279056  0.27041041  1
  O  O283  1  0.92865600  0.24673269  0.76526926  1
  O  O284  1  0.92087584  0.58445573  0.26765284  1
  O  O285  1  0.92956132  0.57396555  0.78133591  1
  O  O286  1  0.93320182  0.90037214  0.27740674  1
  O  O287  1  0.93825779  0.90316465  0.77465966  1
  O  O288  1  0.25735195  0.24314303  0.48012479  1
  O  O289  1  0.26068149  0.24930469  0.98914532  1
  O  O290  1  0.26772575  0.57497252  0.47342422  1
  O  O291  1  0.26942800  0.56374990  0.97843886  1
  O  O292  1  0.27543163  0.89988848  0.47573718  1
  O  O293  1  0.27262994  0.90605513  0.99404543  1
  O  O294  1  0.59333591  0.22567312  0.48437784  1
  O  O295  1  0.59290707  0.22624946  0.97609530  1
  O  O296  1  0.58614741  0.57937737  0.47228586  1
  O  O297  1  0.58735649  0.57254294  0.98627705  1
  O  O298  1  0.59809932  0.90396883  0.47333896  1
  O  O299  1  0.59796176  0.90288131  0.97318313  1
  O  O300  1  0.91672058  0.24785069  0.47366141  1
  O  O301  1  0.93218786  0.24363560  0.98334633  1
  O  O302  1  0.92973021  0.58413420  0.47726111  1
  O  O303  1  0.93926331  0.57054110  0.97647171  1
  O  O304  1  0.93533858  0.89743857  0.47195526  1
  O  O305  1  0.93406845  0.89484564  0.97404567  1
  O  O306  1  0.23733259  0.05767206  0.47498311  1
  O  O307  1  0.25093357  0.07083815  0.99132929  1
  O  O308  1  0.23642893  0.41450889  0.47474049  1
  O  O309  1  0.24618756  0.41239825  0.97210667  1
  O  O310  1  0.24412937  0.73471915  0.47015098  1
  O  O311  1  0.24248561  0.73166499  0.99589318  1
  O  O312  1  0.56116138  0.06256427  0.49413694  1
  O  O313  1  0.56140674  0.06450709  0.97741746  1
  O  O314  1  0.56411296  0.41086861  0.49073118  1
  O  O315  1  0.56734129  0.41248971  0.98147346  1
  O  O316  1  0.56916441  0.73867483  0.47248317  1
  O  O317  1  0.57289974  0.74901325  0.97988115  1
  O  O318  1  0.90473022  0.06936366  0.48194812  1
  O  O319  1  0.89763564  0.06419435  0.99516770  1
  O  O320  1  0.90664033  0.40415928  0.46871461  1
  O  O321  1  0.91340887  0.40646410  0.98116837  1
  O  O322  1  0.91085013  0.73557692  0.46781182  1
  O  O323  1  0.90710294  0.72802059  0.97690066  1
  O  O324  1  0.08858041  0.25412341  0.21967964  1
  O  O325  1  0.08703527  0.25500412  0.73117634  1
  O  O326  1  0.09774986  0.59398743  0.22094170  1
  O  O327  1  0.09541057  0.58530890  0.73950837  1
  O  O328  1  0.09792577  0.92519177  0.23248590  1
  O  O329  1  0.09989363  0.93658056  0.72856540  1
  O  O330  1  0.42502734  0.25265347  0.24337896  1
  O  O331  1  0.43826492  0.25824335  0.72259561  1
  O  O332  1  0.43461761  0.60573439  0.24599910  1
  O  O333  1  0.43615006  0.59697930  0.72767223  1
  O  O334  1  0.43161481  0.92937817  0.22018962  1
  O  O335  1  0.43497091  0.93292074  0.72461101  1
  O  O336  1  0.77183269  0.27125273  0.22701633  1
  O  O337  1  0.74686174  0.25757992  0.72793609  1
  O  O338  1  0.75218701  0.60104201  0.23609934  1
  O  O339  1  0.76201130  0.59705030  0.73944593  1
  O  O340  1  0.76134374  0.92432793  0.22341544  1
  O  O341  1  0.74906102  0.93586875  0.73672076  1
  O  O342  1  0.06681834  0.09321542  0.22419923  1
  O  O343  1  0.06904294  0.09216470  0.71988806  1
  O  O344  1  0.06289001  0.42686568  0.21853083  1
  O  O345  1  0.07281931  0.42672517  0.73686881  1
  O  O346  1  0.08285335  0.76018286  0.23010306  1
  O  O347  1  0.07175929  0.76241853  0.74093482  1
  O  O348  1  0.40643067  0.08742325  0.22690936  1
  O  O349  1  0.40412187  0.09781165  0.71885296  1
  O  O350  1  0.39091192  0.44376757  0.23286608  1
  O  O351  1  0.41238744  0.42906654  0.73337478  1
  O  O352  1  0.39984816  0.77517197  0.22799250  1
  O  O353  1  0.41038898  0.76670788  0.72774966  1
  O  O354  1  0.74813795  0.08253411  0.22413214  1
  O  O355  1  0.72163195  0.09589521  0.72855944  1
  O  O356  1  0.73732374  0.43476042  0.21717454  1
  O  O357  1  0.73323931  0.41668755  0.73613259  1
  O  O358  1  0.73062605  0.77121272  0.22968072  1
  O  O359  1  0.73140240  0.76610403  0.74043166  1
