# generated using pymatgen
data_BaLaInIrO6
_symmetry_space_group_name_H-M   'P 1'
_cell_length_a   17.52227697
_cell_length_b   17.55967547
_cell_length_c   16.49422738
_cell_angle_alpha   89.97275580
_cell_angle_beta   89.98962153
_cell_angle_gamma   90.01826546
_symmetry_Int_Tables_number   1
_chemical_formula_structural   BaLaInIrO6
_chemical_formula_sum   'Ba36 La36 In36 Ir36 O216'
_cell_volume   5075.03363636
_cell_formula_units_Z   36
loop_
 _symmetry_equiv_pos_site_id
 _symmetry_equiv_pos_as_xyz
  1  'x, y, z'
loop_
 _atom_site_type_symbol
 _atom_site_label
 _atom_site_symmetry_multiplicity
 _atom_site_fract_x
 _atom_site_fract_y
 _atom_site_fract_z
 _atom_site_occupancy
  Ba  Ba0  1  0.83315030  0.67850444  0.12164454  1
  Ba  Ba1  1  0.66453487  0.48838385  0.37630684  1
  Ba  Ba2  1  0.00329893  0.16132818  0.87867618  1
  Ba  Ba3  1  0.99900175  0.17238742  0.62619812  1
  Ba  Ba4  1  0.00264471  0.49413899  0.87589697  1
  Ba  Ba5  1  0.66748030  0.83991356  0.62309685  1
  Ba  Ba6  1  0.16679831  0.67658473  0.62400857  1
  Ba  Ba7  1  0.50086505  0.98698511  0.87829336  1
  Ba  Ba8  1  0.83552323  0.99351073  0.37394952  1
  Ba  Ba9  1  0.50312407  0.32065809  0.87599378  1
  Ba  Ba10  1  0.66477677  0.50672676  0.62541521  1
  Ba  Ba11  1  0.17054088  0.00538161  0.62633496  1
  Ba  Ba12  1  -0.00056220  0.16300166  0.37613758  1
  Ba  Ba13  1  0.16760840  0.32268367  0.87667627  1
  Ba  Ba14  1  0.16185103  0.67586019  0.12308970  1
  Ba  Ba15  1  0.16204405  0.99745207  0.37445637  1
  Ba  Ba16  1  0.16945755  0.65966537  0.87388275  1
  Ba  Ba17  1  0.33035548  0.82733724  0.87123347  1
  Ba  Ba18  1  0.83575525  0.32513615  0.87569593  1
  Ba  Ba19  1  0.49815747  0.67535460  0.61823716  1
  Ba  Ba20  1  0.82940452  0.67419198  0.62512578  1
  Ba  Ba21  1  0.50554532  0.65330479  0.37022651  1
  Ba  Ba22  1  0.16518599  0.99515545  0.87590837  1
  Ba  Ba23  1  0.66719455  0.17248267  0.62773450  1
  Ba  Ba24  1  0.99950984  0.17179264  0.12753075  1
  Ba  Ba25  1  -0.00433857  0.83147153  0.37343586  1
  Ba  Ba26  1  0.83398603  0.65998434  0.37730349  1
  Ba  Ba27  1  0.17038319  0.00896353  0.12660375  1
  Ba  Ba28  1  0.16733490  0.34201950  0.62417490  1
  Ba  Ba29  1  -0.00155731  0.82655830  0.87281500  1
  Ba  Ba30  1  0.50147347  0.65769625  0.87494965  1
  Ba  Ba31  1  0.50457281  0.31859759  0.37478065  1
  Ba  Ba32  1  0.49673767  0.34394089  0.12649505  1
  Ba  Ba33  1  0.16629387  0.33946690  0.12487568  1
  Ba  Ba34  1  0.66298398  0.82053880  0.87691608  1
  Ba  Ba35  1  0.83267271  0.34017050  0.12622325  1
  La  La36  1  0.66877426  0.18100474  0.13054841  1
  La  La37  1  0.83328707  0.32388047  0.37649500  1
  La  La38  1  0.33052307  0.48181971  0.37434600  1
  La  La39  1  0.32682832  0.15061126  0.87993705  1
  La  La40  1  0.34017530  0.18085600  0.12656552  1
  La  La41  1  1.00338816  0.51375326  0.62782750  1
  La  La42  1  0.33045919  0.84404336  0.11272995  1
  La  La43  1  0.99881360  0.51007084  0.11747087  1
  La  La44  1  0.83778547  0.65262967  0.87417865  1
  La  La45  1  0.49447650  0.34827866  0.62195726  1
  La  La46  1  0.33887773  0.84909489  0.62895004  1
  La  La47  1  0.83228199  0.01510411  0.12698013  1
  La  La48  1  0.67036170  0.85156464  0.12315718  1
  La  La49  1  0.66588620  0.81819157  0.37417888  1
  La  La50  1  0.34335355  0.51443585  0.62746671  1
  La  La51  1  0.67102865  0.51317040  0.12494857  1
  La  La52  1  0.32333367  0.48730181  0.87483702  1
  La  La53  1  0.50732373  0.98591512  0.37484270  1
  La  La54  1  0.49786028  0.01094905  0.62874873  1
  La  La55  1  0.17014635  0.31525216  0.37421722  1
  La  La56  1  0.99784660  0.84657117  0.62137878  1
  La  La57  1  0.66394630  0.48702829  0.87540475  1
  La  La58  1  0.65849745  0.14681523  0.88280436  1
  La  La59  1  0.34496938  0.17756332  0.62538846  1
  La  La60  1  0.33853452  0.51564180  0.12624771  1
  La  La61  1  1.00267406  0.85227925  0.12487794  1
  La  La62  1  0.82811638  0.01464108  0.62458689  1
  La  La63  1  0.33609015  0.15387227  0.37229011  1
  La  La64  1  0.65959217  0.15156648  0.37630561  1
  La  La65  1  0.49514990  0.01609056  0.12329555  1
  La  La66  1  0.32075174  0.81972717  0.37642462  1
  La  La67  1  -0.00491809  0.48888417  0.37330426  1
  La  La68  1  0.83862705  0.98622580  0.87420437  1
  La  La69  1  0.82972464  0.34612566  0.62842285  1
  La  La70  1  0.49776356  0.68426540  0.12379225  1
  La  La71  1  0.16488295  0.65017224  0.37437318  1
  In  In72  1  -0.00015846  0.33427562  0.50129482  1
  In  In73  1  -0.00119802  0.00576693  0.24882251  1
  In  In74  1  -0.00064740  0.00359923  0.50139025  1
  In  In75  1  0.66562251  0.66818622  0.24336370  1
  In  In76  1  0.16900175  0.49950582  0.00244906  1
  In  In77  1  0.33346808  0.66762324  0.25074584  1
  In  In78  1  0.66624061  0.66650260  0.50073327  1
  In  In79  1  0.83143356  0.83611250  0.50036202  1
  In  In80  1  0.83228162  0.49981269  0.24952890  1
  In  In81  1  0.33594437  0.66764043  -0.00127502  1
  In  In82  1  0.00040135  0.33494370  0.25066166  1
  In  In83  1  0.33724633  0.33352233  0.00213151  1
  In  In84  1  0.83402408  0.49979783  0.50006168  1
  In  In85  1  -0.00229481  0.00117000  0.74977347  1
  In  In86  1  0.82996716  0.16673499  0.75549130  1
  In  In87  1  0.16407928  0.83352041  0.74706866  1
  In  In88  1  0.49960301  0.49603246  0.49467643  1
  In  In89  1  0.33350300  0.66872280  0.74817982  1
  In  In90  1  0.16422958  0.83319628  0.25022394  1
  In  In91  1  0.49773507  0.83650696  0.24922631  1
  In  In92  1  0.66773452  -0.00389493  0.75113085  1
  In  In93  1  0.33672076  0.00064783  0.49741112  1
  In  In94  1  0.16689292  0.49914225  0.25031221  1
  In  In95  1  -0.00183106  0.67177991  -0.00192467  1
  In  In96  1  0.66523380  0.32935685  0.75072160  1
  In  In97  1  0.16643551  0.49729194  0.50052988  1
  In  In98  1  0.17157596  0.16664792  0.74520520  1
  In  In99  1  0.33207341  0.66634431  0.49538975  1
  In  In100  1  0.50270976  0.83112773  0.75038373  1
  In  In101  1  -0.00050565  0.66985169  0.25024981  1
  In  In102  1  0.33562098  0.33048630  0.75013704  1
  In  In103  1  0.66537079  0.33320804  0.00308658  1
  In  In104  1  0.33964411  -0.00183291  0.25122652  1
  In  In105  1  -0.00167018  0.33209213  0.00177819  1
  In  In106  1  0.49981998  0.49990838  0.75429444  1
  In  In107  1  0.00033814  0.33259658  0.74915862  1
  Ir  Ir108  1  0.66681112  -0.00010196  0.00780267  1
  Ir  Ir109  1  0.49801099  0.84130766  0.49739152  1
  Ir  Ir110  1  0.66466434  0.66542172  -0.00125900  1
  Ir  Ir111  1  0.50107670  0.16602188  0.50082453  1
  Ir  Ir112  1  0.82386536  0.16829480  0.25230051  1
  Ir  Ir113  1  0.66333291  0.00186482  0.49587814  1
  Ir  Ir114  1  0.82824764  0.50346675  -0.00141348  1
  Ir  Ir115  1  0.50585617  0.83478107  0.00390891  1
  Ir  Ir116  1  0.50206318  0.50271928  0.00361350  1
  Ir  Ir117  1  0.50083292  0.49599200  0.24318568  1
  Ir  Ir118  1  -0.00461741  -0.00041012  0.00070363  1
  Ir  Ir119  1  0.82560697  0.16128671  0.00537421  1
  Ir  Ir120  1  0.82857678  0.83835613  0.24234615  1
  Ir  Ir121  1  0.67260291  0.66507883  0.75542677  1
  Ir  Ir122  1  0.50094324  0.16106733  0.00070265  1
  Ir  Ir123  1  0.82855514  0.83639683  0.00088714  1
  Ir  Ir124  1  0.82581878  0.16755008  0.49702525  1
  Ir  Ir125  1  0.50209776  0.16520097  0.25083969  1
  Ir  Ir126  1  0.16636505  0.83344370  0.50004442  1
  Ir  Ir127  1  0.16909358  0.50033738  0.74675686  1
  Ir  Ir128  1  0.33610392  0.33050661  0.25444944  1
  Ir  Ir129  1  0.66505255  0.00093779  0.25116624  1
  Ir  Ir130  1  0.33722219  -0.00158529  0.00149696  1
  Ir  Ir131  1  0.17513394  0.16713244  0.49586666  1
  Ir  Ir132  1  0.66359920  0.33083496  0.25232164  1
  Ir  Ir133  1  0.17220287  0.16037688  0.00479825  1
  Ir  Ir134  1  0.83319504  0.50244390  0.75178809  1
  Ir  Ir135  1  -0.00441202  0.66573642  0.74656822  1
  Ir  Ir136  1  0.83308757  0.83031639  0.75330384  1
  Ir  Ir137  1  0.33409206  0.32748515  0.49677390  1
  Ir  Ir138  1  0.00408772  0.66971891  0.50212872  1
  Ir  Ir139  1  0.33700580  0.00225605  0.75016220  1
  Ir  Ir140  1  0.66562998  0.32620744  0.50077817  1
  Ir  Ir141  1  0.17470427  0.16800757  0.25169875  1
  Ir  Ir142  1  0.50071146  0.16304910  0.75261728  1
  Ir  Ir143  1  0.16607664  0.83875810  0.00160444  1
  O  O144  1  0.31786428  0.31864201  0.13352582  1
  O  O145  1  0.31571693  0.31253879  0.61653161  1
  O  O146  1  0.31403501  0.65446861  0.12442177  1
  O  O147  1  0.31515945  0.65242728  0.62058941  1
  O  O148  1  0.32328558  0.98408848  0.12183911  1
  O  O149  1  0.32348884  0.99247145  0.62741560  1
  O  O150  1  0.64285308  0.31905051  0.13111689  1
  O  O151  1  0.63166311  0.32467524  0.62001235  1
  O  O152  1  0.63214887  0.65370491  0.11635550  1
  O  O153  1  0.65281124  0.66661046  0.63510183  1
  O  O154  1  0.63133839  0.99079097  0.12997947  1
  O  O155  1  0.63384920  0.99830426  0.61558293  1
  O  O156  1  0.98140422  0.32313440  0.12616546  1
  O  O157  1  0.96437769  0.32790430  0.62388040  1
  O  O158  1  0.98103475  0.64817373  0.12309523  1
  O  O159  1  0.97674491  0.65168147  0.62399834  1
  O  O160  1  0.96913188  0.99791560  0.12053751  1
  O  O161  1  0.96422945  0.99830268  0.62449899  1
  O  O162  1  0.20355359  0.16504663  0.12976955  1
  O  O163  1  0.20746519  0.16427519  0.61387087  1
  O  O164  1  0.20426143  0.49884871  0.12821337  1
  O  O165  1  0.20238602  0.50165758  0.62726549  1
  O  O166  1  0.19422099  0.83782916  0.12003032  1
  O  O167  1  0.20101746  0.83297339  0.61638258  1
  O  O168  1  0.53326111  0.15480197  0.12575768  1
  O  O169  1  0.52123850  0.14834740  0.62672664  1
  O  O170  1  0.53574203  0.49616718  0.12287034  1
  O  O171  1  0.51505417  0.48482666  0.62337071  1
  O  O172  1  0.53415522  0.83354270  0.12165293  1
  O  O173  1  0.51773094  0.84291178  0.61609679  1
  O  O174  1  0.84882430  0.15439737  0.12772632  1
  O  O175  1  0.84587366  0.15419402  0.61679037  1
  O  O176  1  0.86048137  0.49996554  0.11812653  1
  O  O177  1  0.86351543  0.49206110  0.63094051  1
  O  O178  1  0.86126100  0.83459453  0.12045692  1
  O  O179  1  0.85992386  0.82691878  0.63381239  1
  O  O180  1  0.14925798  0.17463968  0.37424211  1
  O  O181  1  0.15914683  0.16043496  0.88440293  1
  O  O182  1  0.13152553  0.50089206  0.37591729  1
  O  O183  1  0.15309828  0.49928411  0.86587347  1
  O  O184  1  0.14557506  0.84159750  0.38231714  1
  O  O185  1  0.14977306  0.83937553  0.88136913  1
  O  O186  1  0.47185810  0.16764456  0.37581609  1
  O  O187  1  0.46749045  0.16540832  0.87583617  1
  O  O188  1  0.46991219  0.49542183  0.36320766  1
  O  O189  1  0.46588559  0.50285317  0.88546487  1
  O  O190  1  0.46450967  0.84805946  0.37827754  1
  O  O191  1  0.48373606  0.83079832  0.88398506  1
  O  O192  1  0.79396634  0.17985301  0.37397364  1
  O  O193  1  0.79383694  0.16553587  0.88747151  1
  O  O194  1  0.81062620  0.50454186  0.37485033  1
  O  O195  1  0.79857315  0.50990732  0.87507899  1
  O  O196  1  0.80084169  0.84141655  0.36345553  1
  O  O197  1  0.80761163  0.84910384  0.87717372  1
  O  O198  1  0.00920705  0.00485473  0.37506576  1
  O  O199  1  0.01225914  -0.00193444  0.88185757  1
  O  O200  1  0.03462175  0.34514446  0.37596501  1
  O  O201  1  0.01520867  0.33433298  0.87746976  1
  O  O202  1  0.03032044  0.68031975  0.38345281  1
  O  O203  1  0.01640903  0.66973247  0.86669562  1
  O  O204  1  0.37198085  0.01634945  0.37472871  1
  O  O205  1  0.35484734  0.01485888  0.87498569  1
  O  O206  1  0.35896211  0.34192230  0.37599665  1
  O  O207  1  0.35656675  0.34765116  0.87627414  1
  O  O208  1  0.36251272  0.69051461  0.37350816  1
  O  O209  1  0.35320425  0.67390245  0.87499284  1
  O  O210  1  0.68919474  0.01406749  0.37274697  1
  O  O211  1  0.69896386  0.00876989  0.88681656  1
  O  O212  1  0.69479606  0.33177600  0.37695008  1
  O  O213  1  0.68570290  0.34630301  0.87857340  1
  O  O214  1  0.68015619  0.68066423  0.36969449  1
  O  O215  1  0.70020373  0.66805254  0.87856028  1
  O  O216  1  0.07277525  0.08820583  0.02150169  1
  O  O217  1  0.08644416  0.09469513  0.51544401  1
  O  O218  1  0.06974571  0.42941724  0.02492975  1
  O  O219  1  0.06607205  0.43503252  0.52999937  1
  O  O220  1  0.07068122  0.77298197  0.02210945  1
  O  O221  1  0.06916343  0.76827832  0.52762459  1
  O  O222  1  0.40597801  0.09292697  0.02770819  1
  O  O223  1  0.40751373  0.10199992  0.52387283  1
  O  O224  1  0.40805074  0.43801919  0.02873733  1
  O  O225  1  0.39897788  0.41924405  0.52361464  1
  O  O226  1  0.41457710  0.76591556  0.02955436  1
  O  O227  1  0.40099210  0.77996052  0.51980720  1
  O  O228  1  0.73250302  0.09233729  0.03521317  1
  O  O229  1  0.73300350  0.09495187  0.51470186  1
  O  O230  1  0.73649402  0.43467799  0.02245109  1
  O  O231  1  0.74051716  0.41091560  0.52534168  1
  O  O232  1  0.73156111  0.76716490  0.02523958  1
  O  O233  1  0.73530414  0.76715494  0.50272629  1
  O  O234  1  0.09949518  0.24670548  0.01638944  1
  O  O235  1  0.10156496  0.25602916  0.50932341  1
  O  O236  1  0.08716061  0.58963664  0.01207538  1
  O  O237  1  0.09380515  0.60136876  0.51292180  1
  O  O238  1  0.08573509  0.92717504  0.02714981  1
  O  O239  1  0.09284574  0.92035475  0.52434731  1
  O  O240  1  0.42803259  0.24859234  0.02187401  1
  O  O241  1  0.43287216  0.26025649  0.52609165  1
  O  O242  1  0.44035750  0.59549841  0.02982374  1
  O  O243  1  0.41747536  0.58215540  0.51478857  1
  O  O244  1  0.43405961  0.92804583  0.02772322  1
  O  O245  1  0.44168479  0.94005855  0.51753379  1
  O  O246  1  0.75388709  0.24870833  0.02812347  1
  O  O247  1  0.76157981  0.26237472  0.52256260  1
  O  O248  1  0.75482028  0.59399592  0.01960145  1
  O  O249  1  0.75857226  0.58987667  0.51688016  1
  O  O250  1  0.76067019  0.93121058  0.03280568  1
  O  O251  1  0.75857085  0.93903526  0.52353441  1
  O  O252  1  0.24811618  0.08006431  0.26962850  1
  O  O253  1  0.25072265  0.07306570  0.76696747  1
  O  O254  1  0.24210409  0.39520537  0.27913010  1
  O  O255  1  0.23915077  0.41101846  0.76477403  1
  O  O256  1  0.23242425  0.73547768  0.27865616  1
  O  O257  1  0.23674870  0.74202492  0.76185754  1
  O  O258  1  0.57034694  0.07049403  0.27778556  1
  O  O259  1  0.57099140  0.07424878  0.77257112  1
  O  O260  1  0.57068311  0.39996983  0.26515557  1
  O  O261  1  0.57756070  0.40968671  0.76985265  1
  O  O262  1  0.56809355  0.73985001  0.25628835  1
  O  O263  1  0.58039100  0.73277225  0.76344636  1
  O  O264  1  0.89583660  0.07864374  0.25746368  1
  O  O265  1  0.89612547  0.06457335  0.77191874  1
  O  O266  1  0.90056285  0.40148697  0.27847724  1
  O  O267  1  0.90190690  0.41401596  0.76504177  1
  O  O268  1  0.89532986  0.74721135  0.26305189  1
  O  O269  1  0.89974767  0.73285500  0.77469341  1
  O  O270  1  0.27213068  0.23394114  0.27620259  1
  O  O271  1  0.27449961  0.22918994  0.77144657  1
  O  O272  1  0.27395954  0.56174517  0.27709039  1
  O  O273  1  0.26358974  0.56364033  0.76843927  1
  O  O274  1  0.27062018  0.89988688  0.26796508  1
  O  O275  1  0.26485975  0.91340905  0.75741261  1
  O  O276  1  0.60085323  0.22920295  0.27181767  1
  O  O277  1  0.59584711  0.22642429  0.77966664  1
  O  O278  1  0.59184749  0.56216836  0.25831624  1
  O  O279  1  0.60662462  0.57160889  0.77594985  1
  O  O280  1  0.60408073  0.90549539  0.27777193  1
  O  O281  1  0.59298454  0.90689588  0.76570051  1
  O  O282  1  0.91180695  0.24064712  0.27468175  1
  O  O283  1  0.92495501  0.23683510  0.76673615  1
  O  O284  1  0.93488653  0.56780308  0.27255039  1
  O  O285  1  0.92382642  0.57489155  0.77158720  1
  O  O286  1  0.91707708  0.90800530  0.25365103  1
  O  O287  1  0.91886038  0.90166761  0.76755882  1
  O  O288  1  0.26803627  0.23550237  0.46594968  1
  O  O289  1  0.26712579  0.22638406  0.98871365  1
  O  O290  1  0.25720292  0.57050970  0.46083712  1
  O  O291  1  0.27106347  0.56611459  0.97868504  1
  O  O292  1  0.26352985  0.90057191  0.47957400  1
  O  O293  1  0.26605425  0.90616068  0.98491532  1
  O  O294  1  0.59843171  0.23058415  0.47643810  1
  O  O295  1  0.59449914  0.22859042  0.98062974  1
  O  O296  1  0.58786459  0.57687168  0.48521827  1
  O  O297  1  0.60133974  0.56651189  0.97548903  1
  O  O298  1  0.59620787  0.90714330  0.46611403  1
  O  O299  1  0.59982747  0.90632868  0.98714577  1
  O  O300  1  0.91169709  0.24198943  0.47575348  1
  O  O301  1  0.91359139  0.23205946  0.98835310  1
  O  O302  1  0.94178392  0.57292442  0.48095704  1
  O  O303  1  0.91278942  0.57864572  0.97607116  1
  O  O304  1  0.92614014  0.90501541  0.49329485  1
  O  O305  1  0.92075680  0.90895146  0.97874406  1
  O  O306  1  0.24807183  0.08107786  0.47251779  1
  O  O307  1  0.24678313  0.07072086  0.98229434  1
  O  O308  1  0.24109129  0.39500155  0.47236871  1
  O  O309  1  0.24427680  0.40578401  0.98186238  1
  O  O310  1  0.23294345  0.74193532  0.47150855  1
  O  O311  1  0.24124050  0.75266525  0.98959770  1
  O  O312  1  0.56749886  0.07076881  0.47150548  1
  O  O313  1  0.57581474  0.07125385  0.97987072  1
  O  O314  1  0.57496192  0.39568070  0.48660498  1
  O  O315  1  0.57076858  0.41368818  0.98243641  1
  O  O316  1  0.56742019  0.75258089  0.47759141  1
  O  O317  1  0.56939867  0.73502426  0.98936358  1
  O  O318  1  0.89808348  0.08110784  0.48481693  1
  O  O319  1  0.89364813  0.06465460  0.98274412  1
  O  O320  1  0.90459760  0.40516059  0.46924902  1
  O  O321  1  0.89924975  0.41668569  0.98426171  1
  O  O322  1  0.91401524  0.73832206  0.48950237  1
  O  O323  1  0.89412365  0.74330320  0.97533576  1
  O  O324  1  0.10453140  0.25974191  0.24435335  1
  O  O325  1  0.09792797  0.26006255  0.73316342  1
  O  O326  1  0.10580856  0.60651332  0.24892830  1
  O  O327  1  0.08790305  0.59068810  0.72378913  1
  O  O328  1  0.08730688  0.92631361  0.22846248  1
  O  O329  1  0.08097951  0.91563558  0.72298527  1
  O  O330  1  0.42871944  0.25474144  0.22930261  1
  O  O331  1  0.43851590  0.25658478  0.72261086  1
  O  O332  1  0.43692517  0.59023864  0.21912773  1
  O  O333  1  0.42631773  0.59025424  0.72813685  1
  O  O334  1  0.44882390  0.94527620  0.23417096  1
  O  O335  1  0.42732255  0.93323324  0.73007108  1
  O  O336  1  0.75396904  0.26035088  0.23289340  1
  O  O337  1  0.76447081  0.26693560  0.72447158  1
  O  O338  1  0.75267088  0.58839299  0.22071454  1
  O  O339  1  0.76708398  0.59767442  0.74312275  1
  O  O340  1  0.75866429  0.93459383  0.21766034  1
  O  O341  1  0.76966435  0.92602510  0.72890824  1
  O  O342  1  0.08374115  0.09796781  0.23704958  1
  O  O343  1  0.07999649  0.08887128  0.73681742  1
  O  O344  1  0.06155422  0.43997609  0.22320207  1
  O  O345  1  0.07399759  0.43534993  0.72420504  1
  O  O346  1  0.06133607  0.77108845  0.22059442  1
  O  O347  1  0.05941162  0.75797288  0.72240433  1
  O  O348  1  0.40946414  0.10078343  0.22173514  1
  O  O349  1  0.40602983  0.09637745  0.72636774  1
  O  O350  1  0.39810729  0.43079395  0.22858564  1
  O  O351  1  0.40436146  0.42421132  0.72100977  1
  O  O352  1  0.40009994  0.77018345  0.21539198  1
  O  O353  1  0.40436147  0.76873711  0.72200321  1
  O  O354  1  0.72970352  0.09740064  0.22648000  1
  O  O355  1  0.74009195  0.08772049  0.73387767  1
  O  O356  1  0.72787428  0.42411513  0.22607476  1
  O  O357  1  0.74673344  0.42948786  0.73142804  1
  O  O358  1  0.73371393  0.77445330  0.22471746  1
  O  O359  1  0.74179894  0.76068991  0.73820728  1
