# generated using pymatgen
data_BaLaInIrO6
_symmetry_space_group_name_H-M   'P 1'
_cell_length_a   17.53225703
_cell_length_b   17.56727659
_cell_length_c   16.51663190
_cell_angle_alpha   89.99313475
_cell_angle_beta   89.99793378
_cell_angle_gamma   90.04140701
_symmetry_Int_Tables_number   1
_chemical_formula_structural   BaLaInIrO6
_chemical_formula_sum   'Ba36 La36 In36 Ir36 O216'
_cell_volume   5087.02229742
_cell_formula_units_Z   36
loop_
 _symmetry_equiv_pos_site_id
 _symmetry_equiv_pos_as_xyz
  1  'x, y, z'
loop_
 _atom_site_type_symbol
 _atom_site_label
 _atom_site_symmetry_multiplicity
 _atom_site_fract_x
 _atom_site_fract_y
 _atom_site_fract_z
 _atom_site_occupancy
  Ba  Ba0  1  0.49907931  0.00939151  0.62383157  1
  Ba  Ba1  1  0.16904782  0.32115812  0.37601576  1
  Ba  Ba2  1  -0.00125369  0.15421033  0.37436645  1
  Ba  Ba3  1  0.83286914  0.99121602  0.87525362  1
  Ba  Ba4  1  0.83445476  0.34177514  0.12795023  1
  Ba  Ba5  1  0.16533160  0.65392307  0.87783913  1
  Ba  Ba6  1  0.49377264  0.33977276  0.62139620  1
  Ba  Ba7  1  -0.00096521  0.82082464  0.37187768  1
  Ba  Ba8  1  0.66662346  0.82787670  0.87259807  1
  Ba  Ba9  1  0.83053884  0.00791717  0.12225382  1
  Ba  Ba10  1  0.33567465  0.51178357  0.12678460  1
  Ba  Ba11  1  0.83609353  0.65687230  0.87909855  1
  Ba  Ba12  1  0.16717560  0.67763737  0.62835227  1
  Ba  Ba13  1  0.50216976  0.66038481  0.87500144  1
  Ba  Ba14  1  0.49562042  0.67419703  0.62543233  1
  Ba  Ba15  1  0.49855167  0.67422976  0.12300276  1
  Ba  Ba16  1  0.33150623  0.84267404  0.12483239  1
  Ba  Ba17  1  0.16354457  0.34097966  0.61892898  1
  Ba  Ba18  1  0.66068168  0.83930065  0.62578722  1
  Ba  Ba19  1  0.33102426  0.15915637  0.37529104  1
  Ba  Ba20  1  0.33634448  0.17569119  0.12815316  1
  Ba  Ba21  1  0.50274476  0.99836293  0.87609355  1
  Ba  Ba22  1  0.49846631  0.32265903  0.37516078  1
  Ba  Ba23  1  0.49960219  0.99246350  0.37405645  1
  Ba  Ba24  1  0.66349239  0.49309465  0.87638574  1
  Ba  Ba25  1  0.16754341  0.65586274  0.36929786  1
  Ba  Ba26  1  -0.00461370  0.48962528  0.87674745  1
  Ba  Ba27  1  0.33452935  0.17679757  0.62042239  1
  Ba  Ba28  1  0.66536227  0.50842903  0.12683212  1
  Ba  Ba29  1  0.66854169  0.82655312  0.37367569  1
  Ba  Ba30  1  0.66897395  0.15981815  0.87826847  1
  Ba  Ba31  1  1.00482686  0.84289528  0.12151388  1
  Ba  Ba32  1  0.33150407  0.49524395  0.87545911  1
  Ba  Ba33  1  0.50447215  0.32979248  0.88046134  1
  Ba  Ba34  1  0.82938127  0.34030010  0.62652796  1
  Ba  Ba35  1  0.66727809  0.49216805  0.37552545  1
  La  La36  1  -0.00902911  0.15244655  0.87952261  1
  La  La37  1  0.33510095  0.51170229  0.62105520  1
  La  La38  1  0.83852554  0.31878932  0.36885423  1
  La  La39  1  0.34818440  0.16869446  0.86467061  1
  La  La40  1  0.67282565  0.18270967  0.12362561  1
  La  La41  1  0.84035365  0.98136823  0.37118745  1
  La  La42  1  0.32866495  0.81938424  0.37443613  1
  La  La43  1  1.00608771  0.84949019  0.62475954  1
  La  La44  1  1.00481768  0.51744914  0.12926862  1
  La  La45  1  0.34401974  0.84820035  0.62083809  1
  La  La46  1  0.16396730  0.01556859  0.62278110  1
  La  La47  1  0.50103311  0.65219677  0.37257956  1
  La  La48  1  0.66290769  0.83810162  0.11565983  1
  La  La49  1  0.82872749  0.01190903  0.61952855  1
  La  La50  1  0.83726237  0.31821060  0.88094097  1
  La  La51  1  0.17239216  0.32136958  0.87824467  1
  La  La52  1  0.16245166  0.35242224  0.12925390  1
  La  La53  1  0.49808315  0.01185091  0.12615287  1
  La  La54  1  0.16613584  0.68247047  0.12062148  1
  La  La55  1  1.01149203  0.17935953  0.62335115  1
  La  La56  1  0.84019125  0.65413595  0.37418958  1
  La  La57  1  -0.00330233  0.49051667  0.37811863  1
  La  La58  1  0.16183269  0.01479805  0.12385627  1
  La  La59  1  0.82803171  0.68405401  0.12830501  1
  La  La60  1  0.66293178  0.51355982  0.62755748  1
  La  La61  1  1.00553930  0.18414223  0.12243433  1
  La  La62  1  0.17151458  0.99036544  0.37287974  1
  La  La63  1  0.17260975  0.98021024  0.87762974  1
  La  La64  1  0.82833842  0.67608612  0.62429110  1
  La  La65  1  0.66558791  0.17740920  0.62912731  1
  La  La66  1  1.00614719  0.51804202  0.62520282  1
  La  La67  1  0.33107655  0.81358995  0.87633858  1
  La  La68  1  0.32507383  0.48360484  0.37502772  1
  La  La69  1  0.65960523  0.15597609  0.37691226  1
  La  La70  1  -0.00591210  0.81814755  0.87400355  1
  La  La71  1  0.49676696  0.34938254  0.12923302  1
  In  In72  1  0.16387873  0.16410389  0.75444214  1
  In  In73  1  0.16595499  0.83542361  0.24850264  1
  In  In74  1  0.83333588  0.83093048  0.50109304  1
  In  In75  1  0.16815125  0.16503598  -0.00260612  1
  In  In76  1  0.83827667  0.16567384  0.74834688  1
  In  In77  1  0.66792926  0.33573926  0.25205382  1
  In  In78  1  0.32988929  0.00181005  0.75129957  1
  In  In79  1  0.50410004  0.17014386  0.00679565  1
  In  In80  1  0.16318911  0.49818678  0.75009822  1
  In  In81  1  0.49786938  0.50184135  0.00135660  1
  In  In82  1  0.83624510  0.83702272  -0.00168714  1
  In  In83  1  0.00111346  0.33709630  0.25013392  1
  In  In84  1  0.33058250  0.33556605  0.74920659  1
  In  In85  1  0.50045948  0.83270013  0.49386913  1
  In  In86  1  0.83411860  0.49710482  0.75025416  1
  In  In87  1  0.49738866  0.49895647  0.74807317  1
  In  In88  1  0.16697668  0.83581400  0.50278963  1
  In  In89  1  0.16793464  0.16659959  0.24951580  1
  In  In90  1  0.33245281  0.00217683  0.00151275  1
  In  In91  1  -0.00402342  0.33455193  0.49776830  1
  In  In92  1  0.83293710  0.49866841  0.50244370  1
  In  In93  1  0.66883862  0.66636467  0.00146333  1
  In  In94  1  0.00225972  -0.00141202  0.75038089  1
  In  In95  1  0.83155724  0.16247751  0.24890232  1
  In  In96  1  0.66692353  0.33460838  0.50265078  1
  In  In97  1  -0.00047785  0.33412508  0.75173379  1
  In  In98  1  -0.00009374  0.66422561  0.00048641  1
  In  In99  1  0.83277871  0.16505548  0.49891894  1
  In  In100  1  0.00068752  0.66775088  0.49948637  1
  In  In101  1  0.66711976  -0.00189743  0.24996495  1
  In  In102  1  0.33065696  0.66632052  0.49720852  1
  In  In103  1  0.66963378  0.00069374  0.74875094  1
  In  In104  1  0.66821475  0.66734761  0.74939655  1
  In  In105  1  0.49744309  0.83572550  0.75156054  1
  In  In106  1  0.66609834  0.66942504  0.25367509  1
  In  In107  1  0.33352079  0.33192270  0.00357344  1
  Ir  Ir108  1  0.66593752  0.33228867  0.75118613  1
  Ir  Ir109  1  0.33554539  0.66687568  0.24964039  1
  Ir  Ir110  1  0.49990414  0.16429070  0.49692489  1
  Ir  Ir111  1  0.33095796  0.33407329  0.49709454  1
  Ir  Ir112  1  0.84250768  0.83103825  0.74549615  1
  Ir  Ir113  1  0.83656904  0.83403951  0.24905974  1
  Ir  Ir114  1  0.33223431  0.33513813  0.25104751  1
  Ir  Ir115  1  0.16785073  0.83314604  0.75091834  1
  Ir  Ir116  1  0.16547792  0.83421555  -0.00382913  1
  Ir  Ir117  1  -0.00092157  0.66375132  0.24712601  1
  Ir  Ir118  1  0.83735689  0.49528887  0.00592932  1
  Ir  Ir119  1  0.16502174  0.16117320  0.49840596  1
  Ir  Ir120  1  0.66423339  -0.00176597  0.00443765  1
  Ir  Ir121  1  0.67208179  0.33327836  0.00192108  1
  Ir  Ir122  1  -0.00087911  -0.00188805  0.49708619  1
  Ir  Ir123  1  0.32738783  0.66940491  0.00121330  1
  Ir  Ir124  1  0.66661945  0.66505862  0.49686082  1
  Ir  Ir125  1  0.49468444  0.50002845  0.25532450  1
  Ir  Ir126  1  0.00032899  -0.00023819  0.24740088  1
  Ir  Ir127  1  0.32686926  0.66796268  0.75039655  1
  Ir  Ir128  1  0.16419037  0.49906190  0.00663906  1
  Ir  Ir129  1  0.83843928  0.16557808  0.00276683  1
  Ir  Ir130  1  0.33472938  -0.00209640  0.25191642  1
  Ir  Ir131  1  0.49561345  0.83253478  0.24864605  1
  Ir  Ir132  1  0.49706021  0.83595994  0.00336553  1
  Ir  Ir133  1  0.50334326  0.17032280  0.74695605  1
  Ir  Ir134  1  0.00475161  0.00227113  0.00237180  1
  Ir  Ir135  1  0.16741505  0.50447125  0.24978256  1
  Ir  Ir136  1  0.83743490  0.50406586  0.24822438  1
  Ir  Ir137  1  0.33083012  0.00062240  0.49529243  1
  Ir  Ir138  1  0.50240271  0.16451532  0.25367355  1
  Ir  Ir139  1  0.66942616  0.00208956  0.50023604  1
  Ir  Ir140  1  0.49727849  0.50076962  0.49605684  1
  Ir  Ir141  1  0.00477735  0.33563209  0.00244773  1
  Ir  Ir142  1  -0.00236531  0.67038972  0.74756219  1
  Ir  Ir143  1  0.16712129  0.50042317  0.49762627  1
  O  O144  1  0.29884375  0.33225214  0.13237724  1
  O  O145  1  0.31417538  0.33188096  0.61658912  1
  O  O146  1  0.30055624  0.66635680  0.12537466  1
  O  O147  1  0.31497976  0.65476973  0.62820083  1
  O  O148  1  0.30233792  0.99654318  0.13391283  1
  O  O149  1  0.30206352  0.99085080  0.61578469  1
  O  O150  1  0.63952121  0.32692954  0.12318412  1
  O  O151  1  0.64291702  0.31931588  0.63275643  1
  O  O152  1  0.65201617  0.67446342  0.12970654  1
  O  O153  1  0.64474831  0.65759003  0.61422875  1
  O  O154  1  0.63784870  0.98054360  0.12412584  1
  O  O155  1  0.64900207  0.99543039  0.61756806  1
  O  O156  1  0.98210700  0.32641964  0.12091435  1
  O  O157  1  0.97821761  0.31546339  0.62264385  1
  O  O158  1  0.96865993  0.65966894  0.12915664  1
  O  O159  1  0.96863431  0.65893627  0.62826834  1
  O  O160  1  0.97675981  0.99460565  0.12513978  1
  O  O161  1  0.96687532  0.98839855  0.61715427  1
  O  O162  1  0.18610542  0.15063730  0.12476794  1
  O  O163  1  0.18274384  0.15634762  0.61831912  1
  O  O164  1  0.18970037  0.49050365  0.12841991  1
  O  O165  1  0.19793912  0.49865952  0.61750058  1
  O  O166  1  0.18249798  0.82411916  0.11938349  1
  O  O167  1  0.20461576  0.83372013  0.63240965  1
  O  O168  1  0.53440543  0.15760244  0.13682302  1
  O  O169  1  0.52903059  0.16874486  0.62152166  1
  O  O170  1  0.51408623  0.49492823  0.13570770  1
  O  O171  1  0.52489324  0.50015740  0.61498435  1
  O  O172  1  0.52735083  0.82869782  0.12668315  1
  O  O173  1  0.50745815  0.83210339  0.62062835  1
  O  O174  1  0.87047045  0.16284131  0.12122184  1
  O  O175  1  0.87563037  0.15114502  0.62275776  1
  O  O176  1  0.86895914  0.49306853  0.12864530  1
  O  O177  1  0.87394874  0.49338739  0.62578687  1
  O  O178  1  0.85521184  0.82910376  0.13003107  1
  O  O179  1  0.87161302  0.82106953  0.62653346  1
  O  O180  1  0.14939498  0.15618808  0.37715474  1
  O  O181  1  0.12662988  0.18060661  0.87832761  1
  O  O182  1  0.13542377  0.50392031  0.37254355  1
  O  O183  1  0.14575869  0.50043755  0.88616576  1
  O  O184  1  0.14626601  0.85108267  0.37396971  1
  O  O185  1  0.13030152  0.84219672  0.87290486  1
  O  O186  1  0.47766254  0.16415467  0.37444463  1
  O  O187  1  0.48320651  0.16943939  0.87151586  1
  O  O188  1  0.46382507  0.50820037  0.37524019  1
  O  O189  1  0.48395368  0.49535844  0.87460304  1
  O  O190  1  0.46412573  0.83693812  0.36701695  1
  O  O191  1  0.46757156  0.84247286  0.88336347  1
  O  O192  1  0.79554010  0.17404419  0.37387595  1
  O  O193  1  0.81820041  0.17190148  0.88309619  1
  O  O194  1  0.81579594  0.51972795  0.36736769  1
  O  O195  1  0.81605726  0.50277243  0.88667891  1
  O  O196  1  0.82064872  0.83866067  0.37019080  1
  O  O197  1  0.82108605  0.83405361  0.86564863  1
  O  O198  1  0.03268979  0.00045735  0.37190335  1
  O  O199  1  0.03694157  0.01115046  0.88259429  1
  O  O200  1  0.02440761  0.35434392  0.37367768  1
  O  O201  1  0.03743440  0.33979770  0.88486797  1
  O  O202  1  0.01717679  0.66375052  0.36714170  1
  O  O203  1  0.01707666  0.67881622  0.86979266  1
  O  O204  1  0.35385928  0.00480366  0.37309042  1
  O  O205  1  0.34972619  0.02858128  0.87615093  1
  O  O206  1  0.35249355  0.34504959  0.37517745  1
  O  O207  1  0.35150404  0.33533922  0.87639268  1
  O  O208  1  0.36418229  0.67730131  0.36855314  1
  O  O209  1  0.34981740  0.67708155  0.87490113  1
  O  O210  1  0.69991002  0.01183115  0.38018089  1
  O  O211  1  0.68249731  0.00433483  0.88291625  1
  O  O212  1  0.70119707  0.33502851  0.37711192  1
  O  O213  1  0.69965945  0.33652132  0.87696412  1
  O  O214  1  0.70105126  0.66838212  0.37785893  1
  O  O215  1  0.68758633  0.66725778  0.87582459  1
  O  O216  1  0.06279923  0.09864313  0.02800735  1
  O  O217  1  0.06977608  0.09145305  0.52410468  1
  O  O218  1  0.06821241  0.43255958  0.03362112  1
  O  O219  1  0.07018301  0.43761415  0.52053671  1
  O  O220  1  0.07982230  0.75828526  0.01432099  1
  O  O221  1  0.06656086  0.76758246  0.52532009  1
  O  O222  1  0.41501944  0.08897085  0.02663240  1
  O  O223  1  0.40500608  0.09069875  0.51607032  1
  O  O224  1  0.41352491  0.42035534  0.02859500  1
  O  O225  1  0.39838351  0.43452932  0.51677265  1
  O  O226  1  0.39560479  0.76966060  0.00843307  1
  O  O227  1  0.39690151  0.76739386  0.51265983  1
  O  O228  1  0.73540019  0.09707627  0.02632912  1
  O  O229  1  0.73832254  0.08929689  0.53023562  1
  O  O230  1  0.74370165  0.42684400  0.02016391  1
  O  O231  1  0.73104139  0.43584454  0.52894851  1
  O  O232  1  0.74385400  0.76109153  0.02546030  1
  O  O233  1  0.73650355  0.75411974  0.52107446  1
  O  O234  1  0.09948670  0.27089254  0.02937697  1
  O  O235  1  0.08980626  0.24803026  0.51329351  1
  O  O236  1  0.09770436  0.59419738  0.03183686  1
  O  O237  1  0.09704369  0.58995233  0.51967596  1
  O  O238  1  0.10262323  0.93504220  0.02062019  1
  O  O239  1  0.09362951  0.93393786  0.52813175  1
  O  O240  1  0.43543279  0.26479490  0.03166139  1
  O  O241  1  0.42423336  0.25624702  0.51402850  1
  O  O242  1  0.41601688  0.59930133  0.01252048  1
  O  O243  1  0.42532537  0.58833143  0.51415258  1
  O  O244  1  0.43288551  0.92929837  0.02727306  1
  O  O245  1  0.41758926  0.92927945  0.51488928  1
  O  O246  1  0.76406504  0.25644228  0.02282050  1
  O  O247  1  0.74852906  0.24811791  0.53298994  1
  O  O248  1  0.77507556  0.59095785  0.03028598  1
  O  O249  1  0.76132677  0.59997968  0.52179386  1
  O  O250  1  0.75203253  0.92467375  0.01685025  1
  O  O251  1  0.76421583  0.93344435  0.51749780  1
  O  O252  1  0.23749290  0.06172839  0.26944016  1
  O  O253  1  0.22310294  0.05760430  0.76302150  1
  O  O254  1  0.24040737  0.41164801  0.27463922  1
  O  O255  1  0.22576620  0.39664595  0.77266980  1
  O  O256  1  0.24786330  0.74053956  0.26520497  1
  O  O257  1  0.23577618  0.74134103  0.77564675  1
  O  O258  1  0.57373630  0.07679733  0.27216544  1
  O  O259  1  0.57678475  0.08503495  0.75681045  1
  O  O260  1  0.56727095  0.40975570  0.26372533  1
  O  O261  1  0.57659405  0.39986076  0.76182807  1
  O  O262  1  0.56146305  0.73943344  0.27605692  1
  O  O263  1  0.57527778  0.74445182  0.76150278  1
  O  O264  1  0.90399547  0.06197341  0.27416789  1
  O  O265  1  0.91307533  0.07322420  0.77750606  1
  O  O266  1  0.90218581  0.41184636  0.27517474  1
  O  O267  1  0.89570186  0.39653111  0.78009988  1
  O  O268  1  0.89851926  0.72768706  0.26547680  1
  O  O269  1  0.90932869  0.74016397  0.77004927  1
  O  O270  1  0.26236900  0.24600155  0.26655824  1
  O  O271  1  0.26398023  0.23136807  0.77334313  1
  O  O272  1  0.26673213  0.57141901  0.27421833  1
  O  O273  1  0.25849913  0.57592945  0.76164675  1
  O  O274  1  0.26725026  0.90673887  0.27670940  1
  O  O275  1  0.25667315  0.89866602  0.78474382  1
  O  O276  1  0.59362372  0.23299220  0.27511310  1
  O  O277  1  0.59954394  0.23662103  0.76519621  1
  O  O278  1  0.58181322  0.57598221  0.27476093  1
  O  O279  1  0.59482360  0.56946222  0.75057352  1
  O  O280  1  0.58843903  0.89947199  0.26278277  1
  O  O281  1  0.58987508  0.91433342  0.76506668  1
  O  O282  1  0.92131683  0.24530993  0.26822971  1
  O  O283  1  0.92808443  0.23917912  0.78623678  1
  O  O284  1  0.93651219  0.56588359  0.26836129  1
  O  O285  1  0.92993402  0.57990273  0.76656101  1
  O  O286  1  0.93054966  0.90624330  0.27035069  1
  O  O287  1  0.93989944  0.89426208  0.76683834  1
  O  O288  1  0.25706951  0.23668850  0.48161195  1
  O  O289  1  0.26842179  0.22971885  0.97115332  1
  O  O290  1  0.26255170  0.56481899  0.47408820  1
  O  O291  1  0.25870560  0.57145100  0.98755171  1
  O  O292  1  0.26521760  0.90931391  0.47168028  1
  O  O293  1  0.25970106  0.89934152  0.97000298  1
  O  O294  1  0.59146714  0.23294310  0.47815790  1
  O  O295  1  0.60473540  0.24132208  0.99114606  1
  O  O296  1  0.58741971  0.57591979  0.47139320  1
  O  O297  1  0.58915252  0.57758224  0.99400990  1
  O  O298  1  0.59702028  0.91301953  0.47917486  1
  O  O299  1  0.59754154  0.90006134  0.99098639  1
  O  O300  1  0.91664746  0.24543043  0.46622458  1
  O  O301  1  0.93787742  0.23661138  0.97933048  1
  O  O302  1  0.93260433  0.56845429  0.47630270  1
  O  O303  1  0.93115628  0.56113210  0.99600207  1
  O  O304  1  0.93085139  0.90726454  0.47881957  1
  O  O305  1  0.93937260  0.90783196  0.97534104  1
  O  O306  1  0.23037337  0.06212395  0.48169499  1
  O  O307  1  0.22198986  0.05536781  0.98785891  1
  O  O308  1  0.24118632  0.40991703  0.47404094  1
  O  O309  1  0.22418792  0.39895997  0.98927779  1
  O  O310  1  0.24034857  0.74396236  0.47449735  1
  O  O311  1  0.23409393  0.73939933  0.98278892  1
  O  O312  1  0.58133817  0.07780037  0.47367414  1
  O  O313  1  0.57569729  0.06900750  0.99801110  1
  O  O314  1  0.56792721  0.41166139  0.48167681  1
  O  O315  1  0.58403835  0.40397920  0.99417393  1
  O  O316  1  0.57305319  0.73203533  0.47108323  1
  O  O317  1  0.56962753  0.75071986  0.98653936  1
  O  O318  1  0.90335862  0.06077840  0.47199285  1
  O  O319  1  0.91192776  0.07394006  0.97688086  1
  O  O320  1  0.89737276  0.40369905  0.46423409  1
  O  O321  1  0.90338031  0.39659479  0.97889736  1
  O  O322  1  0.89574308  0.72858280  0.48123818  1
  O  O323  1  0.91288696  0.74479261  0.98654306  1
  O  O324  1  0.09558336  0.26262938  0.22403099  1
  O  O325  1  0.09148216  0.25748371  0.72853392  1
  O  O326  1  0.09717638  0.59806571  0.21863791  1
  O  O327  1  0.08476559  0.59736590  0.72998783  1
  O  O328  1  0.09788778  0.93774553  0.22701411  1
  O  O329  1  0.10178258  0.92536043  0.72246612  1
  O  O330  1  0.43054748  0.26439782  0.22780505  1
  O  O331  1  0.42860541  0.25590792  0.74079731  1
  O  O332  1  0.42734458  0.59711988  0.23868289  1
  O  O333  1  0.41572745  0.59725480  0.73649741  1
  O  O334  1  0.43124373  0.93058099  0.22421357  1
  O  O335  1  0.41357025  0.92180099  0.72602647  1
  O  O336  1  0.75351710  0.25519741  0.22428654  1
  O  O337  1  0.75523181  0.25982313  0.73927905  1
  O  O338  1  0.77449367  0.60072123  0.22890995  1
  O  O339  1  0.76130876  0.59040514  0.71663979  1
  O  O340  1  0.76939153  0.92751873  0.24380790  1
  O  O341  1  0.77712971  0.92513249  0.72293255  1
  O  O342  1  0.06323504  0.09395010  0.22266360  1
  O  O343  1  0.07041939  0.09124068  0.71483992  1
  O  O344  1  0.07454455  0.43738611  0.22552815  1
  O  O345  1  0.06146202  0.43682687  0.72338243  1
  O  O346  1  0.07445982  0.75127580  0.22868492  1
  O  O347  1  0.06721611  0.76867411  0.72549871  1
  O  O348  1  0.41351123  0.08667595  0.22554151  1
  O  O349  1  0.41042772  0.10062259  0.73586520  1
  O  O350  1  0.40675787  0.42306947  0.23242116  1
  O  O351  1  0.39683150  0.43486585  0.72111300  1
  O  O352  1  0.40297203  0.76283117  0.23083756  1
  O  O353  1  0.38978175  0.76343822  0.73508851  1
  O  O354  1  0.73249961  0.09573346  0.21951938  1
  O  O355  1  0.74543422  0.09126270  0.71894533  1
  O  O356  1  0.74664772  0.43498999  0.23565974  1
  O  O357  1  0.72813530  0.42817552  0.72681963  1
  O  O358  1  0.74265384  0.76918470  0.22578708  1
  O  O359  1  0.75452693  0.75843957  0.72175752  1
