# generated using pymatgen
data_K24Na3Li5Mg64Fe17Si79(O5F)48
_symmetry_space_group_name_H-M   'P 1'
_cell_length_a   16.10954440
_cell_length_b   18.59488887
_cell_length_c   20.55681704
_cell_angle_alpha   90.00802596
_cell_angle_beta   99.98414661
_cell_angle_gamma   90.00402854
_symmetry_Int_Tables_number   1
_chemical_formula_structural   K24Na3Li5Mg64Fe17Si79(O5F)48
_chemical_formula_sum   'K24 Na3 Li5 Mg64 Fe17 Si79 O240 F48'
_cell_volume   6064.64438744
_cell_formula_units_Z   1
loop_
 _symmetry_equiv_pos_site_id
 _symmetry_equiv_pos_as_xyz
  1  'x, y, z'
loop_
 _atom_site_type_symbol
 _atom_site_label
 _atom_site_symmetry_multiplicity
 _atom_site_fract_x
 _atom_site_fract_y
 _atom_site_fract_z
 _atom_site_occupancy
  K  K0  1  0.00477509  0.00766086  -0.00118255  1
  K  K1  1  -0.00829700  -0.00024427  0.50280241  1
  K  K2  1  0.00131675  0.49971910  0.00578913  1
  K  K3  1  -0.01515228  0.49740614  0.49011885  1
  K  K4  1  0.33801208  -0.00623579  0.00700227  1
  K  K5  1  0.33297660  -0.00203079  0.50085031  1
  K  K6  1  0.33824154  0.49570360  0.00498152  1
  K  K7  1  0.33989512  0.49624706  0.49433689  1
  K  K8  1  0.65833261  -0.00072617  -0.00261551  1
  K  K9  1  0.68136343  0.00381548  0.50025422  1
  K  K10  1  0.66420515  0.50261072  0.00389529  1
  K  K11  1  0.66306446  0.49636545  0.49510561  1
  K  K12  1  0.16834460  0.24573947  0.00685938  1
  K  K13  1  0.17025163  0.25180006  0.49531790  1
  K  K14  1  0.17917031  0.74817155  -0.00202262  1
  K  K15  1  0.16994711  0.74833480  0.50582286  1
  K  K16  1  0.51950633  0.25669482  0.00956241  1
  K  K17  1  0.49940339  0.25535236  0.49547048  1
  K  K18  1  0.51032121  0.75141281  -0.00530221  1
  K  K19  1  0.50682085  0.74351110  0.51006379  1
  K  K20  1  0.82861210  0.25316863  0.00387024  1
  K  K21  1  0.82233508  0.25199965  0.49076695  1
  K  K22  1  0.82206087  0.74781071  -0.00117939  1
  K  K23  1  0.81555274  0.75526536  0.50007976  1
  Na  Na24  1  0.83220133  0.49855839  0.25176467  1
  Na  Na25  1  0.83183978  0.33220228  0.25492499  1
  Na  Na26  1  0.50107099  0.82660822  0.75713905  1
  Li  Li27  1  0.67052232  0.25383730  0.25386011  1
  Li  Li28  1  0.50396632  0.00298724  0.24575865  1
  Li  Li29  1  0.50328982  0.67134146  0.75471887  1
  Li  Li30  1  0.16648308  0.33193224  0.24887363  1
  Li  Li31  1  0.16936588  0.66867020  0.75116015  1
  Mg  Mg32  1  0.16849956  0.49686291  0.24803589  1
  Mg  Mg33  1  0.16815908  0.50388256  0.74890903  1
  Mg  Mg34  1  0.83334618  0.50102823  0.74842932  1
  Mg  Mg35  1  0.33147220  0.74846199  0.75330484  1
  Mg  Mg36  1  0.00213377  0.25134775  0.25089399  1
  Mg  Mg37  1  0.49920872  0.49772482  0.25029346  1
  Mg  Mg38  1  0.00008251  0.25010730  0.74593964  1
  Mg  Mg39  1  0.83422218  0.00175034  0.74927872  1
  Mg  Mg40  1  -0.00001154  0.74800884  0.25104490  1
  Mg  Mg41  1  0.33332293  0.24869017  0.74773144  1
  Mg  Mg42  1  0.66779217  0.75174222  0.25012082  1
  Mg  Mg43  1  0.33055273  0.25000927  0.24817118  1
  Mg  Mg44  1  0.66769739  0.25156798  0.74948191  1
  Mg  Mg45  1  0.16708477  0.00037105  0.24776949  1
  Mg  Mg46  1  0.00193258  0.74771164  0.74850368  1
  Mg  Mg47  1  0.50003161  -0.00182972  0.75333372  1
  Mg  Mg48  1  0.83253963  0.00040407  0.25244469  1
  Mg  Mg49  1  0.16598012  -0.00116168  0.74600945  1
  Mg  Mg50  1  0.33406163  0.74986298  0.24812844  1
  Mg  Mg51  1  0.49980912  0.50319479  0.75238522  1
  Mg  Mg52  1  0.66141139  0.74682541  0.74938430  1
  Mg  Mg53  1  0.00008929  0.41749357  0.74674847  1
  Mg  Mg54  1  0.16795548  0.83008377  0.74956368  1
  Mg  Mg55  1  0.33406780  0.08214590  0.24693289  1
  Mg  Mg56  1  0.33428322  0.91720057  0.24623270  1
  Mg  Mg57  1  0.83166038  0.16898954  0.25240686  1
  Mg  Mg58  1  0.50043003  0.66660079  0.25002569  1
  Mg  Mg59  1  0.16712203  0.33492422  0.74756868  1
  Mg  Mg60  1  0.33142752  0.08259186  0.74757215  1
  Mg  Mg61  1  0.83179113  0.83553443  0.25121808  1
  Mg  Mg62  1  0.66651581  0.91473887  0.75192338  1
  Mg  Mg63  1  0.66385194  0.41339200  0.25161056  1
  Mg  Mg64  1  -0.00052005  0.08491694  0.24895563  1
  Mg  Mg65  1  0.50088256  0.16622365  0.24840155  1
  Mg  Mg66  1  0.66519916  0.08608632  0.24958229  1
  Mg  Mg67  1  0.16715369  0.66391253  0.24806781  1
  Mg  Mg68  1  0.66286371  0.58615341  0.74962996  1
  Mg  Mg69  1  0.50058338  0.83861981  0.24965773  1
  Mg  Mg70  1  0.16544347  0.16485513  0.74350927  1
  Mg  Mg71  1  0.33269599  0.58253013  0.25023887  1
  Mg  Mg72  1  0.00235520  0.41487963  0.25261918  1
  Mg  Mg73  1  0.33495967  0.41670796  0.75149533  1
  Mg  Mg74  1  0.83171205  0.33455790  0.74770830  1
  Mg  Mg75  1  0.83004992  0.83328390  0.74832459  1
  Mg  Mg76  1  0.66667448  0.41519277  0.74987477  1
  Mg  Mg77  1  0.16698353  0.16629178  0.24728887  1
  Mg  Mg78  1  0.00195643  0.58500359  0.74769251  1
  Mg  Mg79  1  0.83143169  0.66550500  0.74841482  1
  Mg  Mg80  1  0.50174251  0.33300986  0.25203517  1
  Mg  Mg81  1  0.50293446  0.33464784  0.75205459  1
  Mg  Mg82  1  0.33139972  0.41300158  0.24889966  1
  Mg  Mg83  1  0.83189452  0.66469376  0.25100247  1
  Mg  Mg84  1  0.16616003  0.83331251  0.24929725  1
  Mg  Mg85  1  0.66947871  0.08395662  0.75082977  1
  Mg  Mg86  1  -0.00032718  0.91553241  0.25238955  1
  Mg  Mg87  1  0.33424563  0.91370274  0.75245703  1
  Mg  Mg88  1  0.33491784  0.58737133  0.75346309  1
  Mg  Mg89  1  0.66522628  0.91997267  0.25074703  1
  Mg  Mg90  1  -0.00151058  0.08483478  0.74537825  1
  Mg  Mg91  1  0.66713670  0.58328248  0.25196018  1
  Mg  Mg92  1  0.83241421  0.16483718  0.74677734  1
  Mg  Mg93  1  0.50228549  0.16603866  0.75111541  1
  Mg  Mg94  1  0.00005895  0.58122317  0.24904239  1
  Mg  Mg95  1  -0.00097341  0.91448442  0.74698688  1
  Fe  Fe96  1  0.19373058  0.58154283  0.10918444  1
  Fe  Fe97  1  0.86121741  0.08578965  0.60627732  1
  Fe  Fe98  1  0.52392776  0.41473995  0.11064524  1
  Fe  Fe99  1  0.30699138  0.83379572  0.89173837  1
  Fe  Fe100  1  0.81367864  0.08302515  0.88986834  1
  Fe  Fe101  1  0.64727262  0.33525645  0.89157276  1
  Fe  Fe102  1  0.68837295  0.33493636  0.60786398  1
  Fe  Fe103  1  0.81053529  0.91691694  0.39171245  1
  Fe  Fe104  1  0.47106939  0.41635539  0.39091776  1
  Fe  Fe105  1  0.19129383  0.08017658  0.10841028  1
  Fe  Fe106  1  0.69520859  0.66671272  0.11185668  1
  Fe  Fe107  1  0.68682457  0.66542457  0.60863036  1
  Fe  Fe108  1  0.19417000  0.08324201  0.60585275  1
  Fe  Fe109  1  0.64263990  0.65992760  0.89330105  1
  Fe  Fe110  1  0.80652068  0.41741731  0.39628614  1
  Fe  Fe111  1  0.64651696  0.83706373  0.89353196  1
  Fe  Fe112  1  0.52513669  0.92411963  0.11112111  1
  Si  Si113  1  0.02122738  0.16685561  0.11209715  1
  Si  Si114  1  0.97218725  0.83019962  0.88165701  1
  Si  Si115  1  0.19674359  0.41787731  0.61360602  1
  Si  Si116  1  0.02295567  0.33102464  0.11562830  1
  Si  Si117  1  0.30478220  0.83413342  0.38511210  1
  Si  Si118  1  0.97998616  0.82930711  0.38897328  1
  Si  Si119  1  0.14251570  0.58114321  0.38548270  1
  Si  Si120  1  0.86674166  0.58372530  0.11295423  1
  Si  Si121  1  0.02878988  0.33963952  0.61307272  1
  Si  Si122  1  0.14073618  0.91707777  0.38523772  1
  Si  Si123  1  0.81769095  0.41897998  0.88665483  1
  Si  Si124  1  0.13780248  0.08320889  0.88134864  1
  Si  Si125  1  0.85789795  0.91220990  0.61128933  1
  Si  Si126  1  0.51721427  0.58127070  0.61413131  1
  Si  Si127  1  0.47077316  0.92662189  0.89079780  1
  Si  Si128  1  0.13987343  0.08180882  0.38464690  1
  Si  Si129  1  0.47317009  0.58844416  0.38853746  1
  Si  Si130  1  0.51943539  0.42088301  0.61430450  1
  Si  Si131  1  0.02290758  0.83075720  0.11650721  1
  Si  Si132  1  0.69703182  0.33568358  0.11414060  1
  Si  Si133  1  0.81665877  0.91716441  0.88722457  1
  Si  Si134  1  0.46888118  0.41166686  0.88820185  1
  Si  Si135  1  0.64283425  0.16414466  0.88799925  1
  Si  Si136  1  0.30661972  0.16411023  0.38473137  1
  Si  Si137  1  0.18734048  0.41196106  0.11230110  1
  Si  Si138  1  0.30650419  0.66286927  0.88815994  1
  Si  Si139  1  0.30089368  0.33163667  0.88384847  1
  Si  Si140  1  0.97860286  0.16885739  0.38594730  1
  Si  Si141  1  0.30381783  0.32979372  0.38681116  1
  Si  Si142  1  0.52732721  0.08209663  0.61628296  1
  Si  Si143  1  0.80754514  0.59190181  0.39136657  1
  Si  Si144  1  0.69700457  0.16860526  0.11593993  1
  Si  Si145  1  0.47171593  0.08185345  0.38379177  1
  Si  Si146  1  0.97888287  0.17289421  0.88485090  1
  Si  Si147  1  0.35245551  0.32977577  0.11157214  1
  Si  Si148  1  0.86609419  0.41735629  0.11596483  1
  Si  Si149  1  0.85777718  0.08182630  0.11595388  1
  Si  Si150  1  0.52413384  0.58441022  0.11489552  1
  Si  Si151  1  0.02702417  0.66874932  0.11341114  1
  Si  Si152  1  0.35653018  0.66874440  0.61600874  1
  Si  Si153  1  0.19627669  0.58273324  0.61456234  1
  Si  Si154  1  0.46736112  0.91621583  0.38481595  1
  Si  Si155  1  0.68579299  0.83731794  0.61183998  1
  Si  Si156  1  0.30542407  0.66945943  0.38605754  1
  Si  Si157  1  0.35972773  0.16678460  0.11227082  1
  Si  Si158  1  0.35699498  0.83098471  0.11294624  1
  Si  Si159  1  0.86360987  0.91700745  0.11645411  1
  Si  Si160  1  0.02387371  0.82611472  0.61286677  1
  Si  Si161  1  0.81209127  0.08821302  0.38718712  1
  Si  Si162  1  0.13983747  0.58296670  0.88349107  1
  Si  Si163  1  0.36017421  0.33194231  0.61513430  1
  Si  Si164  1  0.18742590  0.90949190  0.11236150  1
  Si  Si165  1  0.46718587  0.57669065  0.88938387  1
  Si  Si166  1  0.81682563  0.57992207  0.88664676  1
  Si  Si167  1  0.13996585  0.41954003  0.88291476  1
  Si  Si168  1  0.30334302  0.16665857  0.88293784  1
  Si  Si169  1  0.14188528  0.41677543  0.38466471  1
  Si  Si170  1  0.86261125  0.41773885  0.61237780  1
  Si  Si171  1  0.68607251  0.16605583  0.60990186  1
  Si  Si172  1  0.63543826  0.83704293  0.38889993  1
  Si  Si173  1  0.52114823  0.92002207  0.61653083  1
  Si  Si174  1  0.97860062  0.33515516  0.88218920  1
  Si  Si175  1  0.97680655  0.66647060  0.88352173  1
  Si  Si176  1  0.02971729  0.17509199  0.60701882  1
  Si  Si177  1  0.69517703  0.83880803  0.11339840  1
  Si  Si178  1  0.63880669  0.67179151  0.38702576  1
  Si  Si179  1  0.98223239  0.33313787  0.38984852  1
  Si  Si180  1  0.35585647  0.83321227  0.61523734  1
  Si  Si181  1  0.18693278  0.91239436  0.60956338  1
  Si  Si182  1  0.63850627  0.16103881  0.38463412  1
  Si  Si183  1  0.02842657  0.66130375  0.61428783  1
  Si  Si184  1  0.47226974  0.09081760  0.88482091  1
  Si  Si185  1  0.63792037  0.32742851  0.39250199  1
  Si  Si186  1  0.52683512  0.09397291  0.11178912  1
  Si  Si187  1  0.36568766  0.16641793  0.61187816  1
  Si  Si188  1  0.13312983  0.91685966  0.88430290  1
  Si  Si189  1  0.86127217  0.58365547  0.61126864  1
  Si  Si190  1  0.36372571  0.66640430  0.11448002  1
  Si  Si191  1  0.97876602  0.66525060  0.38643239  1
  O  O192  1  0.28850199  0.11065352  0.07658527  1
  O  O193  1  0.29267785  0.11401782  0.57481966  1
  O  O194  1  0.29249236  0.61074838  0.07928601  1
  O  O195  1  0.26988837  0.62392351  0.58201503  1
  O  O196  1  0.60845048  0.12873757  0.08270977  1
  O  O197  1  0.61163290  0.10376446  0.58697322  1
  O  O198  1  0.60636644  0.60389994  0.08279891  1
  O  O199  1  0.59234434  0.60700230  0.57596943  1
  O  O200  1  0.93619136  0.11756416  0.08560771  1
  O  O201  1  0.95345001  0.12409362  0.57253056  1
  O  O202  1  0.95240755  0.61121659  0.08455504  1
  O  O203  1  0.94754070  0.61077586  0.58367531  1
  O  O204  1  0.10670469  0.35710519  0.08584825  1
  O  O205  1  0.11171244  0.37101982  0.58465546  1
  O  O206  1  0.10824893  0.85274401  0.08794130  1
  O  O207  1  0.10301603  0.86090258  0.58242529  1
  O  O208  1  0.42867811  0.35699337  0.07624959  1
  O  O209  1  0.43985027  0.36535226  0.58633642  1
  O  O210  1  0.43205935  0.86249815  0.07915266  1
  O  O211  1  0.43576377  0.87177095  0.58704836  1
  O  O212  1  0.78132702  0.36986782  0.08756351  1
  O  O213  1  0.78955543  0.36372114  0.57931859  1
  O  O214  1  0.78580704  0.86333269  0.08917379  1
  O  O215  1  0.76810473  0.87090171  0.58334019  1
  O  O216  1  0.26690821  0.37707031  0.08185040  1
  O  O217  1  0.27504761  0.37918248  0.58507728  1
  O  O218  1  0.26910551  0.87595431  0.08524155  1
  O  O219  1  0.26774420  0.87493761  0.58102685  1
  O  O220  1  0.61566126  0.37814486  0.07343100  1
  O  O221  1  0.59951235  0.40073887  0.58056977  1
  O  O222  1  0.62615459  0.89834774  0.08279940  1
  O  O223  1  0.60197742  0.88934345  0.58515030  1
  O  O224  1  0.94347025  0.38228419  0.08110388  1
  O  O225  1  0.95217280  0.39553983  0.58731662  1
  O  O226  1  0.94752924  0.88792433  0.08802088  1
  O  O227  1  0.93438710  0.86641074  0.58405291  1
  O  O228  1  0.09602756  0.13795243  0.07521120  1
  O  O229  1  0.11519243  0.15636442  0.57832047  1
  O  O230  1  0.10843165  0.65102761  0.07998487  1
  O  O231  1  0.10872658  0.62638398  0.58499292  1
  O  O232  1  0.44915287  0.15154318  0.08610951  1
  O  O233  1  0.45380315  0.14123059  0.58742602  1
  O  O234  1  0.45346841  0.64906954  0.09060439  1
  O  O235  1  0.43432667  0.63287613  0.58572762  1
  O  O236  1  0.77269029  0.12662920  0.08501272  1
  O  O237  1  0.76490453  0.14098769  0.57540380  1
  O  O238  1  0.78945049  0.63281613  0.07746202  1
  O  O239  1  0.78449909  0.63342901  0.57660997  1
  O  O240  1  0.06177961  0.11780562  0.41531703  1
  O  O241  1  0.06274262  0.12276417  0.91260248  1
  O  O242  1  0.06196366  0.61464533  0.41585964  1
  O  O243  1  0.05807112  0.61495809  0.91288941  1
  O  O244  1  0.39575550  0.12298215  0.41569612  1
  O  O245  1  0.39001061  0.12403018  0.91300906  1
  O  O246  1  0.39580595  0.63263205  0.41685499  1
  O  O247  1  0.38112354  0.60439730  0.91604013  1
  O  O248  1  0.72900277  0.12114436  0.41447081  1
  O  O249  1  0.71071830  0.10282471  0.91828433  1
  O  O250  1  0.72961706  0.63515094  0.41913408  1
  O  O251  1  0.73797628  0.59768540  0.92175596  1
  O  O252  1  0.22248788  0.36580619  0.41467322  1
  O  O253  1  0.22030026  0.36740766  0.91183048  1
  O  O254  1  0.22835033  0.87427495  0.41493026  1
  O  O255  1  0.20943518  0.86889051  0.92216014  1
  O  O256  1  0.56203359  0.35950512  0.42744930  1
  O  O257  1  0.54722509  0.36247790  0.92098293  1
  O  O258  1  0.55308228  0.87232402  0.41598454  1
  O  O259  1  0.55147255  0.87863903  0.92207688  1
  O  O260  1  0.90822270  0.36424920  0.42538983  1
  O  O261  1  0.89691306  0.36224076  0.91263171  1
  O  O262  1  0.90500058  0.85739868  0.42479031  1
  O  O263  1  0.88797238  0.85207694  0.91087253  1
  O  O264  1  0.06631083  0.38313767  0.41970014  1
  O  O265  1  0.05739451  0.38940495  0.91117503  1
  O  O266  1  0.06576538  0.87785567  0.41626318  1
  O  O267  1  0.04692758  0.88777233  0.91016978  1
  O  O268  1  0.38382260  0.37206835  0.42743962  1
  O  O269  1  0.38372864  0.37842306  0.91366935  1
  O  O270  1  0.39077130  0.87731330  0.41721601  1
  O  O271  1  0.38950179  0.90225953  0.92286115  1
  O  O272  1  0.72343160  0.36618042  0.43053208  1
  O  O273  1  0.73992242  0.39701351  0.92251134  1
  O  O274  1  0.71723803  0.88051175  0.42565861  1
  O  O275  1  0.73771209  0.90081173  0.92365152  1
  O  O276  1  0.22931184  0.12269946  0.41375635  1
  O  O277  1  0.22539183  0.12697674  0.91064343  1
  O  O278  1  0.22803971  0.62881920  0.41532050  1
  O  O279  1  0.22096064  0.63138925  0.91492344  1
  O  O280  1  0.56295275  0.11820543  0.41596396  1
  O  O281  1  0.55096624  0.14470164  0.91154667  1
  O  O282  1  0.56084844  0.63339878  0.41625760  1
  O  O283  1  0.54727007  0.62214680  0.92495539  1
  O  O284  1  0.89516798  0.14046175  0.41426642  1
  O  O285  1  0.90135654  0.15060114  0.92058269  1
  O  O286  1  0.89711241  0.63869424  0.41776058  1
  O  O287  1  0.89615370  0.63637471  0.91395459  1
  O  O288  1  0.16233873  -0.01420883  0.07709940  1
  O  O289  1  0.16771985  -0.01083135  0.57265403  1
  O  O290  1  0.16293646  0.48873128  0.07572282  1
  O  O291  1  0.18688096  0.49986076  0.58327213  1
  O  O292  1  0.50122801  0.01780599  0.07573950  1
  O  O293  1  0.49803012  0.00193904  0.58569187  1
  O  O294  1  0.48691920  0.50817749  0.08375550  1
  O  O295  1  0.48354412  0.50018729  0.58718006  1
  O  O296  1  0.84564972  -0.00114437  0.08715506  1
  O  O297  1  0.85191896  -0.01036319  0.57557785  1
  O  O298  1  0.85255025  0.49982581  0.08546712  1
  O  O299  1  0.84448674  0.50024777  0.58484559  1
  O  O300  1  -0.00142748  0.24968745  0.08568362  1
  O  O301  1  0.00556607  0.25979676  0.58337529  1
  O  O302  1  -0.00747562  0.75068015  0.08908082  1
  O  O303  1  0.01504728  0.74331474  0.58345877  1
  O  O304  1  0.32724070  0.24714712  0.08505794  1
  O  O305  1  0.34505266  0.25010808  0.58540884  1
  O  O306  1  0.33440900  0.74787119  0.08833528  1
  O  O307  1  0.34587498  0.75087594  0.58387740  1
  O  O308  1  0.69397970  0.25064828  0.08600535  1
  O  O309  1  0.64959299  0.24263734  0.57929844  1
  O  O310  1  0.66976710  0.76065868  0.08162209  1
  O  O311  1  0.66583402  0.76032949  0.57578881  1
  O  O312  1  0.15151088  -0.00073612  0.41418435  1
  O  O313  1  0.14542017  0.00142205  0.91069638  1
  O  O314  1  0.16000510  0.49956566  0.41566839  1
  O  O315  1  0.15789569  0.50038524  0.91329387  1
  O  O316  1  0.47317911  -0.00096343  0.41376262  1
  O  O317  1  0.49249952  0.01159611  0.91670380  1
  O  O318  1  0.48054285  0.51165118  0.42498261  1
  O  O319  1  0.47907993  0.49297924  0.91837276  1
  O  O320  1  0.83398000  0.01129424  0.42329903  1
  O  O321  1  0.86081279  -0.00736092  0.91548003  1
  O  O322  1  0.82030832  0.51515093  0.42845050  1
  O  O323  1  0.85510987  0.49917864  0.91100055  1
  O  O324  1  0.30893748  0.24539202  0.41560780  1
  O  O325  1  0.30893210  0.24912125  0.91268170  1
  O  O326  1  0.30843802  0.75213502  0.41569973  1
  O  O327  1  0.32782868  0.73940028  0.92495826  1
  O  O328  1  0.64520223  0.24122777  0.41690409  1
  O  O329  1  0.67367973  0.24103841  0.92149693  1
  O  O330  1  0.64227654  0.75370397  0.41730563  1
  O  O331  1  0.66827323  0.74809000  0.93333998  1
  O  O332  1  1.00371669  0.24892736  0.41676758  1
  O  O333  1  1.00846281  0.25540795  0.91054668  1
  O  O334  1  1.00638718  0.74636996  0.41442132  1
  O  O335  1  0.99961537  0.74884842  0.91046416  1
  O  O336  1  0.21038761  0.08138299  0.19993850  1
  O  O337  1  0.21137272  0.08283861  0.69771126  1
  O  O338  1  0.21208941  0.58286295  0.20110894  1
  O  O339  1  0.21408602  0.57914218  0.69383315  1
  O  O340  1  0.54599039  0.08922323  0.19180484  1
  O  O341  1  0.54308480  0.08330787  0.69683292  1
  O  O342  1  0.54073108  0.58512032  0.19668406  1
  O  O343  1  0.54180334  0.57824063  0.69369319  1
  O  O344  1  0.87768060  0.08122534  0.19638176  1
  O  O345  1  0.88057717  0.08448871  0.69787989  1
  O  O346  1  0.88374927  0.59091840  0.19301001  1
  O  O347  1  0.87893300  0.58351062  0.69250288  1
  O  O348  1  0.04091782  0.33170124  0.19513741  1
  O  O349  1  0.04692544  0.33642657  0.69386029  1
  O  O350  1  0.04235908  0.83252393  0.19742971  1
  O  O351  1  0.04270187  0.83051382  0.69304031  1
  O  O352  1  0.37126672  0.33141972  0.19229201  1
  O  O353  1  0.37515007  0.33301188  0.69564436  1
  O  O354  1  0.37461889  0.83298747  0.19427520  1
  O  O355  1  0.36739833  0.83357014  0.69393874  1
  O  O356  1  0.70185958  0.33607711  0.19241259  1
  O  O357  1  0.71277106  0.33457757  0.69954469  1
  O  O358  1  0.71140974  0.83553316  0.19508419  1
  O  O359  1  0.70961811  0.83548065  0.69207932  1
  O  O360  1  0.21029145  0.41742787  0.19234231  1
  O  O361  1  0.21194534  0.41709643  0.69403633  1
  O  O362  1  0.20667357  0.91362900  0.19370906  1
  O  O363  1  0.20483594  0.91614804  0.69012160  1
  O  O364  1  0.54305694  0.41547214  0.20173871  1
  O  O365  1  0.53823968  0.41756414  0.69517962  1
  O  O366  1  0.54566742  0.91762793  0.20171259  1
  O  O367  1  0.54387014  0.92362204  0.69543015  1
  O  O368  1  0.89109766  0.41673866  0.19395964  1
  O  O369  1  0.87889303  0.41738576  0.69365184  1
  O  O370  1  0.88173735  0.91724040  0.19705586  1
  O  O371  1  0.87707817  0.91451721  0.69226744  1
  O  O372  1  0.04349488  0.16368437  0.19276579  1
  O  O373  1  0.04393917  0.17048850  0.68909586  1
  O  O374  1  0.04541261  0.66788746  0.19484113  1
  O  O375  1  0.04172555  0.66475495  0.69368031  1
  O  O376  1  0.37465282  0.16491119  0.19320210  1
  O  O377  1  0.37715936  0.16636630  0.69285286  1
  O  O378  1  0.37617900  0.66632374  0.19604421  1
  O  O379  1  0.36778528  0.66681993  0.69478613  1
  O  O380  1  0.71470409  0.16320375  0.19513391  1
  O  O381  1  0.70723474  0.16747848  0.69155903  1
  O  O382  1  0.71234439  0.66798754  0.20373233  1
  O  O383  1  0.71354978  0.66426465  0.69941676  1
  O  O384  1  0.12146909  0.08104669  0.30464850  1
  O  O385  1  0.12032179  0.08468099  0.80088308  1
  O  O386  1  0.12457910  0.58452644  0.30569240  1
  O  O387  1  0.12051550  0.57972328  0.80383884  1
  O  O388  1  0.45231696  0.08497689  0.30433558  1
  O  O389  1  0.45319345  0.08749252  0.80396424  1
  O  O390  1  0.45354635  0.58708502  0.30777217  1
  O  O391  1  0.45124261  0.57498495  0.80912085  1
  O  O392  1  0.79414589  0.08340377  0.30676479  1
  O  O393  1  0.78975698  0.08499331  0.79823266  1
  O  O394  1  0.78844855  0.59255977  0.31177520  1
  O  O395  1  0.79716767  0.58162901  0.80574696  1
  O  O396  1  0.29249831  0.33071170  0.30698010  1
  O  O397  1  0.28646951  0.33207681  0.80320367  1
  O  O398  1  0.28776826  0.83311621  0.30489507  1
  O  O399  1  0.28545633  0.83407518  0.80011923  1
  O  O400  1  0.61893959  0.33384169  0.31254571  1
  O  O401  1  0.62222562  0.33378137  0.80003347  1
  O  O402  1  0.62304456  0.83528151  0.30844533  1
  O  O403  1  0.63690753  0.83248951  0.80325080  1
  O  O404  1  0.97051052  0.33240648  0.31042060  1
  O  O405  1  0.95988850  0.33512929  0.80154165  1
  O  O406  1  0.96050449  0.83248087  0.30803829  1
  O  O407  1  0.95612644  0.83133888  0.80106129  1
  O  O408  1  0.12454182  0.41965431  0.30538271  1
  O  O409  1  0.12385855  0.41764351  0.80238141  1
  O  O410  1  0.12355265  0.91572068  0.30480986  1
  O  O411  1  0.12039747  0.91650585  0.80313364  1
  O  O412  1  0.44994643  0.41612766  0.29985549  1
  O  O413  1  0.45356705  0.41303770  0.80690440  1
  O  O414  1  0.44812112  0.91216048  0.30576769  1
  O  O415  1  0.45049918  0.92728793  0.81022449  1
  O  O416  1  0.77603156  0.41854011  0.30964407  1
  O  O417  1  0.79603094  0.41715100  0.80569831  1
  O  O418  1  0.79037054  0.91718853  0.30036493  1
  O  O419  1  0.79540183  0.91706871  0.80526488  1
  O  O420  1  0.29012003  0.16414091  0.30488533  1
  O  O421  1  0.28801523  0.16834072  0.80246825  1
  O  O422  1  0.28912662  0.66934362  0.30600196  1
  O  O423  1  0.28840892  0.66440306  0.80795669  1
  O  O424  1  0.61809245  0.16038039  0.30551489  1
  O  O425  1  0.62440464  0.16662966  0.80600320  1
  O  O426  1  0.62064517  0.66999483  0.30699331  1
  O  O427  1  0.62465016  0.66422126  0.80290912  1
  O  O428  1  0.96101280  0.16537258  0.30583680  1
  O  O429  1  0.96102799  0.17006370  0.80388575  1
  O  O430  1  0.96010701  0.66543378  0.30606549  1
  O  O431  1  0.95798392  0.66515111  0.80303256  1
  F  F432  1  0.04444752  -0.00186770  0.20277585  1
  F  F433  1  0.04465573  -0.00123737  0.69839447  1
  F  F434  1  0.04851802  0.50073631  0.20120968  1
  F  F435  1  0.04774276  0.49979511  0.69890649  1
  F  F436  1  0.37072998  -0.00109388  0.19834445  1
  F  F437  1  0.37782329  -0.00023127  0.70187757  1
  F  F438  1  0.37553319  0.50148816  0.20274783  1
  F  F439  1  0.37630595  0.49882569  0.70362968  1
  F  F440  1  0.71409196  0.00344844  0.20155670  1
  F  F441  1  0.71189046  -0.00193890  0.70179173  1
  F  F442  1  0.69698873  0.50097430  0.20157762  1
  F  F443  1  0.71321413  0.49955539  0.70367469  1
  F  F444  1  0.21282344  0.24538838  0.20003089  1
  F  F445  1  0.21278756  0.25207952  0.69894798  1
  F  F446  1  0.21169522  0.75044032  0.20278209  1
  F  F447  1  0.20960642  0.74951697  0.69909738  1
  F  F448  1  0.53919425  0.25041860  0.20303560  1
  F  F449  1  0.54238253  0.24895169  0.70245000  1
  F  F450  1  0.54508827  0.75236055  0.20538223  1
  F  F451  1  0.54938673  0.74342783  0.69273943  1
  F  F452  1  0.88573750  0.23963350  0.20095013  1
  F  F453  1  0.88037632  0.25149509  0.70062803  1
  F  F454  1  0.88033504  0.75181539  0.20593974  1
  F  F455  1  0.88012191  0.74907971  0.70000035  1
  F  F456  1  0.28672386  -0.00419016  0.29913825  1
  F  F457  1  0.28486273  0.00018945  0.79685831  1
  F  F458  1  0.28824468  0.49842834  0.30046367  1
  F  F459  1  0.28553049  0.49690916  0.79914549  1
  F  F460  1  0.62905850  0.00323951  0.30099082  1
  F  F461  1  0.62196789  0.00166428  0.79821232  1
  F  F462  1  0.61587705  0.50679425  0.30371847  1
  F  F463  1  0.62159685  0.49822995  0.79743510  1
  F  F464  1  0.95764078  0.00015987  0.29980235  1
  F  F465  1  0.95885340  -0.00115572  0.79473400  1
  F  F466  1  0.97095899  0.50154763  0.30419471  1
  F  F467  1  0.95749164  0.50018814  0.79439688  1
  F  F468  1  0.12098633  0.24147214  0.29918786  1
  F  F469  1  0.12260898  0.25026454  0.79394049  1
  F  F470  1  0.12293867  0.74949505  0.29857037  1
  F  F471  1  0.11735946  0.75261509  0.79876478  1
  F  F472  1  0.45004492  0.24744171  0.29782732  1
  F  F473  1  0.45173833  0.24956685  0.79703504  1
  F  F474  1  0.45254855  0.75130047  0.29806999  1
  F  F475  1  0.44421327  0.74019669  0.80522805  1
  F  F476  1  0.78817807  0.23819334  0.30749335  1
  F  F477  1  0.79175759  0.24901426  0.79634622  1
  F  F478  1  0.79048564  0.75394498  0.30125319  1
  F  F479  1  0.79307096  0.74999886  0.79639487  1
