# generated using pymatgen
data_K24Na3Li5Mg64Fe17Si79(O5F)48
_symmetry_space_group_name_H-M   'P 1'
_cell_length_a   16.08155903
_cell_length_b   18.56587616
_cell_length_c   20.55325760
_cell_angle_alpha   89.99437088
_cell_angle_beta   100.00516844
_cell_angle_gamma   90.02183593
_symmetry_Int_Tables_number   1
_chemical_formula_structural   K24Na3Li5Mg64Fe17Si79(O5F)48
_chemical_formula_sum   'K24 Na3 Li5 Mg64 Fe17 Si79 O240 F48'
_cell_volume   6043.22524017
_cell_formula_units_Z   1
loop_
 _symmetry_equiv_pos_site_id
 _symmetry_equiv_pos_as_xyz
  1  'x, y, z'
loop_
 _atom_site_type_symbol
 _atom_site_label
 _atom_site_symmetry_multiplicity
 _atom_site_fract_x
 _atom_site_fract_y
 _atom_site_fract_z
 _atom_site_occupancy
  K  K0  1  0.00690864  -0.00282671  0.00501505  1
  K  K1  1  0.00422075  -0.00082790  0.49795718  1
  K  K2  1  -0.00167431  0.51500485  -0.00692853  1
  K  K3  1  -0.00540678  0.50828020  0.50395484  1
  K  K4  1  0.34136016  0.00038430  0.00095594  1
  K  K5  1  0.33462805  -0.00395207  0.49716264  1
  K  K6  1  0.33354768  0.50469726  -0.00409255  1
  K  K7  1  0.33818652  0.49425127  0.49962380  1
  K  K8  1  0.65388934  -0.00878463  -0.00051255  1
  K  K9  1  0.66453917  -0.00211542  0.49790270  1
  K  K10  1  0.66973714  0.50433784  -0.00475806  1
  K  K11  1  0.67011068  0.50087916  0.50539736  1
  K  K12  1  0.17573012  0.25567049  -0.00610440  1
  K  K13  1  0.17919414  0.24771479  0.50010730  1
  K  K14  1  0.16622073  0.74459494  0.00440589  1
  K  K15  1  0.17211955  0.74461573  0.49330865  1
  K  K16  1  0.49033881  0.25055145  -0.00599862  1
  K  K17  1  0.49810679  0.25036611  0.50195112  1
  K  K18  1  0.49570853  0.75189294  0.00013645  1
  K  K19  1  0.49771301  0.74681051  0.49732659  1
  K  K20  1  0.82755980  0.25299935  -0.00615950  1
  K  K21  1  0.82495686  0.24882694  0.50167123  1
  K  K22  1  0.83204544  0.73645536  -0.00462188  1
  K  K23  1  0.83061866  0.74563549  0.49748597  1
  Na  Na24  1  0.66807456  0.75063011  0.75699391  1
  Na  Na25  1  0.66738498  0.42003732  0.24975139  1
  Na  Na26  1  0.67152128  0.41887587  0.74914233  1
  Li  Li27  1  0.16683843  0.49938332  0.73883843  1
  Li  Li28  1  0.17538352  -0.00457939  0.25251157  1
  Li  Li29  1  0.49908526  0.66585417  0.25301571  1
  Li  Li30  1  0.33609386  0.41800416  0.24754845  1
  Li  Li31  1  0.32977977  0.91673926  0.25704866  1
  Mg  Mg32  1  0.33332823  0.25356411  0.75200872  1
  Mg  Mg33  1  0.83181002  -0.00004726  0.75124582  1
  Mg  Mg34  1  0.66948113  0.25049733  0.74940729  1
  Mg  Mg35  1  0.66511798  0.25006878  0.25046925  1
  Mg  Mg36  1  0.49445955  -0.00310603  0.25468189  1
  Mg  Mg37  1  0.83072971  0.50085174  0.24788795  1
  Mg  Mg38  1  0.83616530  0.50269654  0.74862763  1
  Mg  Mg39  1  0.16805730  0.00233092  0.75325869  1
  Mg  Mg40  1  0.00040564  0.24850720  0.24776613  1
  Mg  Mg41  1  0.33419329  0.75079466  0.24990884  1
  Mg  Mg42  1  0.66039917  0.74728678  0.25379348  1
  Mg  Mg43  1  0.49862131  -0.00145014  0.75487099  1
  Mg  Mg44  1  0.49713929  0.50014751  0.24762629  1
  Mg  Mg45  1  0.00225338  0.25164793  0.74984123  1
  Mg  Mg46  1  0.00139865  0.74966006  0.74894763  1
  Mg  Mg47  1  0.33314244  0.25043430  0.24847615  1
  Mg  Mg48  1  0.33532860  0.74844220  0.75140058  1
  Mg  Mg49  1  0.83076058  -0.00045018  0.25250382  1
  Mg  Mg50  1  0.00000591  0.75017051  0.24438508  1
  Mg  Mg51  1  0.16862373  0.49952348  0.24411265  1
  Mg  Mg52  1  0.50374354  0.50325285  0.74936426  1
  Mg  Mg53  1  0.33171702  0.41998022  0.74887747  1
  Mg  Mg54  1  0.82996625  0.16694738  0.74887795  1
  Mg  Mg55  1  0.83483546  0.66568313  0.75289799  1
  Mg  Mg56  1  0.33461274  0.58186759  0.24665886  1
  Mg  Mg57  1  0.49971281  0.16448118  0.25239050  1
  Mg  Mg58  1  0.16944541  0.83746679  0.24729647  1
  Mg  Mg59  1  0.83172285  0.83359798  0.25054054  1
  Mg  Mg60  1  0.66453255  0.58327715  0.25187130  1
  Mg  Mg61  1  -0.00007589  0.41610757  0.24596074  1
  Mg  Mg62  1  0.16810072  0.16278113  0.24867731  1
  Mg  Mg63  1  0.16828601  0.16918968  0.75337171  1
  Mg  Mg64  1  0.49676090  0.83414294  0.75512466  1
  Mg  Mg65  1  0.16593141  0.33909616  0.74877058  1
  Mg  Mg66  1  0.00188403  0.91806678  0.24576368  1
  Mg  Mg67  1  0.49970231  0.66742157  0.75140398  1
  Mg  Mg68  1  -0.00088739  0.08467702  0.75120843  1
  Mg  Mg69  1  0.67014039  0.58531100  0.75110297  1
  Mg  Mg70  1  -0.00048500  0.58565244  0.24463241  1
  Mg  Mg71  1  0.33468278  0.08722966  0.75722197  1
  Mg  Mg72  1  0.66410011  0.91550623  0.75453741  1
  Mg  Mg73  1  0.16964314  0.33419061  0.24661098  1
  Mg  Mg74  1  0.16826300  0.83474235  0.75114775  1
  Mg  Mg75  1  0.00005141  0.91700916  0.75150154  1
  Mg  Mg76  1  0.83123951  0.66492485  0.24896782  1
  Mg  Mg77  1  0.83244793  0.16461656  0.25058387  1
  Mg  Mg78  1  0.50282685  0.33665252  0.74802009  1
  Mg  Mg79  1  0.66461781  0.91347003  0.25460901  1
  Mg  Mg80  1  0.00066379  0.08185571  0.24706369  1
  Mg  Mg81  1  0.66438001  0.08494224  0.74988521  1
  Mg  Mg82  1  0.33260150  0.07879451  0.25006835  1
  Mg  Mg83  1  0.33447267  0.91577569  0.75412260  1
  Mg  Mg84  1  0.83283609  0.83320203  0.75357551  1
  Mg  Mg85  1  0.83253784  0.33321584  0.24812617  1
  Mg  Mg86  1  0.00368637  0.58422346  0.74764625  1
  Mg  Mg87  1  0.66663283  0.08300232  0.25333346  1
  Mg  Mg88  1  0.16637618  0.66719288  0.24483817  1
  Mg  Mg89  1  0.16756401  0.66328861  0.74642685  1
  Mg  Mg90  1  0.49789424  0.83076472  0.25524709  1
  Mg  Mg91  1  0.49887245  0.33466556  0.24770015  1
  Mg  Mg92  1  0.83510532  0.33575131  0.74866097  1
  Mg  Mg93  1  0.50027452  0.16649195  0.75358565  1
  Mg  Mg94  1  0.33102334  0.58263744  0.74956766  1
  Mg  Mg95  1  0.00293338  0.41816685  0.74454829  1
  Fe  Fe96  1  0.64161892  0.82763645  0.39359223  1
  Fe  Fe97  1  0.85850675  0.58955438  0.61116721  1
  Fe  Fe98  1  0.47239541  0.08638682  0.39061929  1
  Fe  Fe99  1  0.30642727  0.17417713  0.89413124  1
  Fe  Fe100  1  0.69312334  0.33220400  0.60864651  1
  Fe  Fe101  1  0.35675429  0.66180696  0.61064339  1
  Fe  Fe102  1  0.02290568  0.66730688  0.10396074  1
  Fe  Fe103  1  0.35426652  0.83233644  0.61254181  1
  Fe  Fe104  1  0.18899940  0.57736035  0.60741581  1
  Fe  Fe105  1  0.47432812  0.91334055  0.89635176  1
  Fe  Fe106  1  0.02136019  0.32691695  0.60783477  1
  Fe  Fe107  1  0.80963794  0.08331478  0.39096081  1
  Fe  Fe108  1  0.81153652  0.58019954  0.89402474  1
  Fe  Fe109  1  0.68920913  0.16244068  0.60853392  1
  Fe  Fe110  1  0.19003054  0.40810558  0.60630626  1
  Fe  Fe111  1  0.30571652  0.83334715  0.38812568  1
  Fe  Fe112  1  0.81102512  0.58018412  0.38934057  1
  Si  Si113  1  0.35822236  0.83230637  0.11502679  1
  Si  Si114  1  0.69202470  0.83665235  0.62009022  1
  Si  Si115  1  0.02531173  0.83946447  0.61605896  1
  Si  Si116  1  0.47867480  0.08635845  0.89493747  1
  Si  Si117  1  0.47985982  0.42112035  0.88583955  1
  Si  Si118  1  0.35964200  0.66666290  0.11344307  1
  Si  Si119  1  0.47632711  0.91724297  0.39222597  1
  Si  Si120  1  0.68833688  0.66730719  0.11430979  1
  Si  Si121  1  0.52610529  0.08113090  0.11551983  1
  Si  Si122  1  0.13796137  0.42012961  0.88479782  1
  Si  Si123  1  0.81779685  0.41154808  0.38448604  1
  Si  Si124  1  0.81316564  0.91354609  0.38920320  1
  Si  Si125  1  0.64268403  0.16879351  0.88847670  1
  Si  Si126  1  0.14004853  0.58299756  0.37956275  1
  Si  Si127  1  0.02378728  0.33293362  0.10986500  1
  Si  Si128  1  0.97492973  0.83340056  0.38013242  1
  Si  Si129  1  0.30026606  0.16736253  0.38600000  1
  Si  Si130  1  0.97675592  0.16892679  0.38427583  1
  Si  Si131  1  0.13563186  0.08294353  0.38095761  1
  Si  Si132  1  0.47725448  0.41246479  0.38273271  1
  Si  Si133  1  0.30082244  0.82868641  0.89210988  1
  Si  Si134  1  0.63783984  0.65692406  0.38902206  1
  Si  Si135  1  0.52490529  0.58306056  0.11348155  1
  Si  Si136  1  0.13982929  0.91677689  0.88777260  1
  Si  Si137  1  0.19087902  0.08950837  0.61873038  1
  Si  Si138  1  0.14177872  0.41826748  0.38048380  1
  Si  Si139  1  0.13483605  0.91765172  0.38324705  1
  Si  Si140  1  0.64281419  0.33277919  0.88603613  1
  Si  Si141  1  0.85450686  0.41308598  0.11105740  1
  Si  Si142  1  0.64491609  0.33390080  0.38259790  1
  Si  Si143  1  0.68891128  0.16633623  0.11240489  1
  Si  Si144  1  0.52060863  0.07511071  0.61698759  1
  Si  Si145  1  0.52369718  0.91510398  0.11708141  1
  Si  Si146  1  0.19347548  0.91910902  0.11383651  1
  Si  Si147  1  0.85637092  0.91432558  0.61757525  1
  Si  Si148  1  0.19050757  0.92500265  0.61591908  1
  Si  Si149  1  0.35967196  0.33097397  0.11147754  1
  Si  Si150  1  0.98050898  0.67307835  0.88824756  1
  Si  Si151  1  0.97426054  0.83799883  0.88689151  1
  Si  Si152  1  0.86227599  0.07805693  0.61568981  1
  Si  Si153  1  0.52707113  0.42287054  0.61403704  1
  Si  Si154  1  0.69348434  0.67177879  0.61604021  1
  Si  Si155  1  0.85670251  0.08562420  0.11255058  1
  Si  Si156  1  0.97752949  0.67022102  0.38247844  1
  Si  Si157  1  0.46937409  0.57653802  0.38219996  1
  Si  Si158  1  0.85507520  0.91976237  0.11339685  1
  Si  Si159  1  0.97320441  0.16306132  0.88651234  1
  Si  Si160  1  0.98031520  0.33087306  0.38147341  1
  Si  Si161  1  0.30829955  0.66177650  0.38303300  1
  Si  Si162  1  0.13848370  0.08213351  0.89011501  1
  Si  Si163  1  0.85223301  0.58017475  0.10997956  1
  Si  Si164  1  0.19591078  0.57977285  0.10731277  1
  Si  Si165  1  0.63934751  0.17120098  0.38823387  1
  Si  Si166  1  0.03052227  0.67432550  0.61011726  1
  Si  Si167  1  0.35986459  0.16611657  0.11316512  1
  Si  Si168  1  0.13853291  0.58507826  0.88442501  1
  Si  Si169  1  0.52977982  0.58808698  0.61390809  1
  Si  Si170  1  0.36136412  0.16615349  0.61815288  1
  Si  Si171  1  0.52660417  0.91213213  0.61794840  1
  Si  Si172  1  0.80711153  0.08405823  0.88811988  1
  Si  Si173  1  0.30730258  0.33315495  0.38147427  1
  Si  Si174  1  0.31007904  0.34479062  0.88941355  1
  Si  Si175  1  0.47490990  0.58636544  0.88700305  1
  Si  Si176  1  0.19435126  0.08480803  0.11260147  1
  Si  Si177  1  0.81738389  0.41086355  0.88968239  1
  Si  Si178  1  0.02526188  0.16569419  0.11104837  1
  Si  Si179  1  0.69137339  0.83333594  0.11525316  1
  Si  Si180  1  0.30529609  0.66256517  0.88723754  1
  Si  Si181  1  0.80816465  0.91806682  0.88978535  1
  Si  Si182  1  0.97970896  0.32826743  0.88704699  1
  Si  Si183  1  0.02359820  0.84032866  0.10815010  1
  Si  Si184  1  0.86108551  0.41889805  0.61023157  1
  Si  Si185  1  0.19212485  0.41301817  0.11034764  1
  Si  Si186  1  0.02122774  0.16082612  0.61631776  1
  Si  Si187  1  0.68847313  0.33023409  0.11204777  1
  Si  Si188  1  0.64363871  0.83343905  0.89365759  1
  Si  Si189  1  0.36711835  0.33353007  0.61278263  1
  Si  Si190  1  0.63964408  0.66477602  0.89032465  1
  Si  Si191  1  0.52148536  0.41742706  0.11090861  1
  O  O192  1  0.26931554  0.12723326  0.08127125  1
  O  O193  1  0.27219314  0.12288412  0.58976334  1
  O  O194  1  0.27513172  0.62005837  0.07959395  1
  O  O195  1  0.28646985  0.58926858  0.57271600  1
  O  O196  1  0.60308542  0.11957415  0.08315940  1
  O  O197  1  0.59990339  0.09589906  0.58281556  1
  O  O198  1  0.59945354  0.62628416  0.08262233  1
  O  O199  1  0.61721934  0.61378254  0.58786243  1
  O  O200  1  0.93538035  0.12335463  0.08173040  1
  O  O201  1  0.95598664  0.09205433  0.59473383  1
  O  O202  1  0.92228690  0.61559915  0.07240606  1
  O  O203  1  0.95206112  0.62446914  0.57665641  1
  O  O204  1  0.10045606  0.37296981  0.07943189  1
  O  O205  1  0.11751858  0.33471463  0.57157631  1
  O  O206  1  0.10043071  0.88416795  0.07973806  1
  O  O207  1  0.10347069  0.87829401  0.58770962  1
  O  O208  1  0.43250504  0.37484664  0.07848566  1
  O  O209  1  0.45108730  0.36417102  0.58507008  1
  O  O210  1  0.43524458  0.87387489  0.08464787  1
  O  O211  1  0.45792967  0.85436447  0.58468963  1
  O  O212  1  0.76775908  0.36700706  0.08136797  1
  O  O213  1  0.79306129  0.35731756  0.57905065  1
  O  O214  1  0.76682092  0.87574743  0.08398032  1
  O  O215  1  0.77705747  0.86098420  0.58907181  1
  O  O216  1  0.26636448  0.36705407  0.08169110  1
  O  O217  1  0.28961795  0.37935977  0.57374135  1
  O  O218  1  0.26908198  0.87509581  0.08396478  1
  O  O219  1  0.26887740  0.90229580  0.58210044  1
  O  O220  1  0.60100802  0.37577126  0.08390817  1
  O  O221  1  0.60858513  0.40236455  0.58216485  1
  O  O222  1  0.60166336  0.87540086  0.08731094  1
  O  O223  1  0.61724548  0.89494374  0.59214278  1
  O  O224  1  0.93318346  0.37386932  0.08128766  1
  O  O225  1  0.94785214  0.40327226  0.58121435  1
  O  O226  1  0.93486905  0.88727939  0.08245938  1
  O  O227  1  0.94048080  0.88809312  0.58869774  1
  O  O228  1  0.10211808  0.12466901  0.08174180  1
  O  O229  1  0.10984550  0.14030393  0.58922967  1
  O  O230  1  0.11019935  0.61813140  0.07071562  1
  O  O231  1  0.11433330  0.65571051  0.58016522  1
  O  O232  1  0.43684375  0.12294336  0.08543648  1
  O  O233  1  0.43667643  0.12525914  0.58863980  1
  O  O234  1  0.43728618  0.62706256  0.08328625  1
  O  O235  1  0.45884698  0.64377922  0.57965872  1
  O  O236  1  0.76969709  0.13092626  0.08287264  1
  O  O237  1  0.79175012  0.13285064  0.58046562  1
  O  O238  1  0.76214605  0.62340327  0.08438228  1
  O  O239  1  0.77169306  0.65541678  0.57843307  1
  O  O240  1  0.05403751  0.11248769  0.41203172  1
  O  O241  1  0.05067266  0.10792659  0.91615098  1
  O  O242  1  0.06026011  0.61807672  0.40829863  1
  O  O243  1  0.07150410  0.63340502  0.91833694  1
  O  O244  1  0.37632730  0.11931729  0.42427421  1
  O  O245  1  0.40719094  0.12678751  0.92877087  1
  O  O246  1  0.38486363  0.60403432  0.41007162  1
  O  O247  1  0.39416178  0.62022099  0.91746812  1
  O  O248  1  0.71168460  0.11414314  0.42067441  1
  O  O249  1  0.73055251  0.12410859  0.91802529  1
  O  O250  1  0.71017663  0.59843704  0.41925383  1
  O  O251  1  0.71869457  0.61804554  0.92851192  1
  O  O252  1  0.22922921  0.37433071  0.40953380  1
  O  O253  1  0.23387667  0.39084177  0.91642890  1
  O  O254  1  0.20778745  0.86562669  0.42019952  1
  O  O255  1  0.21713634  0.86318108  0.91906504  1
  O  O256  1  0.56427616  0.36755598  0.41342047  1
  O  O257  1  0.56718820  0.37551408  0.91707343  1
  O  O258  1  0.54625868  0.85785419  0.42576726  1
  O  O259  1  0.57442932  0.86444087  0.93519928  1
  O  O260  1  0.89518387  0.35234949  0.41056887  1
  O  O261  1  0.90005490  0.35801458  0.92024233  1
  O  O262  1  0.88963862  0.85242130  0.40990384  1
  O  O263  1  0.89661660  0.87500628  0.91811820  1
  O  O264  1  0.06059870  0.38430155  0.40861909  1
  O  O265  1  0.06780096  0.37201566  0.91790769  1
  O  O266  1  0.04590129  0.89383987  0.40946894  1
  O  O267  1  0.05618536  0.88870048  0.91649788  1
  O  O268  1  0.39723995  0.37367942  0.41117231  1
  O  O269  1  0.40034355  0.38784511  0.91718092  1
  O  O270  1  0.38886652  0.90079480  0.41998674  1
  O  O271  1  0.38263587  0.87132349  0.93006799  1
  O  O272  1  0.72924885  0.38367438  0.40746179  1
  O  O273  1  0.73374926  0.37189804  0.91429907  1
  O  O274  1  0.73510144  0.88884260  0.42399462  1
  O  O275  1  0.73396551  0.87811737  0.92145887  1
  O  O276  1  0.21347981  0.13757548  0.41065770  1
  O  O277  1  0.21404040  0.13205924  0.92669328  1
  O  O278  1  0.22384055  0.62932515  0.40951932  1
  O  O279  1  0.23283130  0.61677031  0.91746515  1
  O  O280  1  0.55266959  0.15880537  0.41645087  1
  O  O281  1  0.56786022  0.13213436  0.92121113  1
  O  O282  1  0.54890451  0.62817031  0.41255848  1
  O  O283  1  0.55495687  0.63684203  0.92077821  1
  O  O284  1  0.89704030  0.15081798  0.41896561  1
  O  O285  1  0.89221854  0.13148432  0.91781219  1
  O  O286  1  0.90007642  0.64678596  0.41800369  1
  O  O287  1  0.90909789  0.63716905  0.92409240  1
  O  O288  1  0.18992816  0.00237499  0.08220836  1
  O  O289  1  0.16640180  0.00863279  0.58994746  1
  O  O290  1  0.19394172  0.49475894  0.07984989  1
  O  O291  1  0.14512533  0.49282767  0.56819593  1
  O  O292  1  0.51777766  -0.00189264  0.08629041  1
  O  O293  1  0.49257539  -0.00707801  0.59229353  1
  O  O294  1  0.51629797  0.50035851  0.08025825  1
  O  O295  1  0.50146197  0.50568975  0.58684212  1
  O  O296  1  0.84243771  0.00299426  0.08347506  1
  O  O297  1  0.83410366  -0.00438444  0.58930079  1
  O  O298  1  0.83821260  0.49530184  0.08324987  1
  O  O299  1  0.82464483  0.49718616  0.58204857  1
  O  O300  1  0.01584506  0.24897708  0.08129405  1
  O  O301  1  -0.02049752  0.23244320  0.58184742  1
  O  O302  1  0.01197703  0.76315454  0.07123511  1
  O  O303  1  0.00593366  0.75949880  0.58573719  1
  O  O304  1  0.35676596  0.24801649  0.08102874  1
  O  O305  1  0.35463042  0.24771299  0.58729873  1
  O  O306  1  0.35011241  0.74966760  0.08214655  1
  O  O307  1  0.31022013  0.74784818  0.57631591  1
  O  O308  1  0.67545486  0.24796390  0.07985428  1
  O  O309  1  0.65311732  0.24679708  0.56710180  1
  O  O310  1  0.68393301  0.75081211  0.08431489  1
  O  O311  1  0.66171927  0.75593053  0.59399737  1
  O  O312  1  0.15385809  0.00159797  0.41092702  1
  O  O313  1  0.15719943  -0.00147467  0.91754807  1
  O  O314  1  0.15422196  0.50051724  0.40822999  1
  O  O315  1  0.13377498  0.50261692  0.91426994  1
  O  O316  1  0.51085749  -0.00371815  0.42190558  1
  O  O317  1  0.49397411  0.00759752  0.92919899  1
  O  O318  1  0.48732949  0.49427379  0.41365989  1
  O  O319  1  0.49315326  0.50351462  0.91687802  1
  O  O320  1  0.84987082  -0.00906539  0.41892064  1
  O  O321  1  0.81886927  0.00166115  0.91941249  1
  O  O322  1  0.84654206  0.48708178  0.41975067  1
  O  O323  1  0.83225876  0.48606658  0.92981199  1
  O  O324  1  0.31157035  0.25182061  0.41367334  1
  O  O325  1  0.31697523  0.26885149  0.92886061  1
  O  O326  1  0.33191965  0.73794429  0.41856789  1
  O  O327  1  0.30731782  0.74413535  0.91947969  1
  O  O328  1  0.67116489  0.25379555  0.41248413  1
  O  O329  1  0.65396590  0.25095489  0.91976638  1
  O  O330  1  0.66333702  0.73362475  0.42568827  1
  O  O331  1  0.66079154  0.74874888  0.91637810  1
  O  O332  1  1.01205259  0.25039969  0.40744670  1
  O  O333  1  0.99534892  0.24443584  0.91651872  1
  O  O334  1  1.00754860  0.75308198  0.40664800  1
  O  O335  1  0.99345784  0.75730020  0.91657676  1
  O  O336  1  0.21204551  0.08861256  0.19164235  1
  O  O337  1  0.20978407  0.08596337  0.69924965  1
  O  O338  1  0.20915982  0.58148797  0.18783930  1
  O  O339  1  0.21319332  0.58433484  0.69910974  1
  O  O340  1  0.54643216  0.08411581  0.19507119  1
  O  O341  1  0.53964673  0.08156527  0.69853905  1
  O  O342  1  0.54442784  0.57971747  0.19237624  1
  O  O343  1  0.54569887  0.58679196  0.69513343  1
  O  O344  1  0.87602864  0.08569636  0.19233305  1
  O  O345  1  0.87640927  0.08060455  0.69730738  1
  O  O346  1  0.87671449  0.58265127  0.19028877  1
  O  O347  1  0.88403609  0.58801593  0.70268095  1
  O  O348  1  0.04233409  0.33249011  0.19012438  1
  O  O349  1  0.04551167  0.33093132  0.70069906  1
  O  O350  1  0.04069820  0.83605674  0.18868312  1
  O  O351  1  0.04409213  0.83788571  0.69700351  1
  O  O352  1  0.37768348  0.32935479  0.19075237  1
  O  O353  1  0.37936291  0.33363400  0.69416300  1
  O  O354  1  0.37966807  0.82939893  0.19371885  1
  O  O355  1  0.37389396  0.83419188  0.70513987  1
  O  O356  1  0.71239916  0.32566529  0.19096387  1
  O  O357  1  0.71894124  0.32376016  0.69954216  1
  O  O358  1  0.71151720  0.83407778  0.19496725  1
  O  O359  1  0.71580198  0.84244183  0.69964174  1
  O  O360  1  0.20413582  0.41402293  0.18956958  1
  O  O361  1  0.21530965  0.41381566  0.69836341  1
  O  O362  1  0.20571074  0.91777625  0.19204961  1
  O  O363  1  0.20811645  0.92078252  0.69747365  1
  O  O364  1  0.53266001  0.41607278  0.18970326  1
  O  O365  1  0.53592723  0.41982525  0.69390820  1
  O  O366  1  0.54147016  0.91687493  0.19658599  1
  O  O367  1  0.54453981  0.91573490  0.69921738  1
  O  O368  1  0.87611991  0.41283051  0.19111014  1
  O  O369  1  0.87890939  0.41688391  0.69297087  1
  O  O370  1  0.87288010  0.91821981  0.19351926  1
  O  O371  1  0.87713103  0.91658712  0.69842455  1
  O  O372  1  0.04210171  0.16671481  0.19108314  1
  O  O373  1  0.04410092  0.16428036  0.69790729  1
  O  O374  1  0.04359927  0.66688559  0.19533161  1
  O  O375  1  0.04499937  0.67200169  0.69208751  1
  O  O376  1  0.37500979  0.16784862  0.19287959  1
  O  O377  1  0.37844195  0.16697430  0.69867268  1
  O  O378  1  0.37133564  0.66605996  0.19243022  1
  O  O379  1  0.37819313  0.66606348  0.70377644  1
  O  O380  1  0.70779510  0.16675345  0.19232644  1
  O  O381  1  0.71045254  0.16371999  0.70192830  1
  O  O382  1  0.70633513  0.66904548  0.19405969  1
  O  O383  1  0.71641108  0.66614476  0.69573873  1
  O  O384  1  0.11804115  0.08611052  0.30110034  1
  O  O385  1  0.12265951  0.08348893  0.80924360  1
  O  O386  1  0.12275337  0.58163194  0.29886982  1
  O  O387  1  0.12057170  0.58997804  0.80564214  1
  O  O388  1  0.45321984  0.08436364  0.29851983  1
  O  O389  1  0.45890357  0.08614083  0.81331522  1
  O  O390  1  0.45135713  0.57656703  0.30252538  1
  O  O391  1  0.45759061  0.58414561  0.80754736  1
  O  O392  1  0.78849273  0.08360348  0.29823680  1
  O  O393  1  0.79103657  0.08167480  0.80838192  1
  O  O394  1  0.78981277  0.58263209  0.29732642  1
  O  O395  1  0.79114822  0.58391381  0.80384955  1
  O  O396  1  0.28818731  0.33061034  0.30165920  1
  O  O397  1  0.29381497  0.33677140  0.80934499  1
  O  O398  1  0.28499805  0.82967487  0.29768944  1
  O  O399  1  0.28579035  0.83402656  0.81176680  1
  O  O400  1  0.61866154  0.32780256  0.30322292  1
  O  O401  1  0.61934358  0.32634199  0.80748377  1
  O  O402  1  0.62228623  0.83167559  0.30138444  1
  O  O403  1  0.61949494  0.84377377  0.81469350  1
  O  O404  1  0.96030589  0.33228607  0.30029501  1
  O  O405  1  0.95924219  0.33018339  0.80744669  1
  O  O406  1  0.95607614  0.83423415  0.29913069  1
  O  O407  1  0.95775700  0.83798187  0.80677553  1
  O  O408  1  0.12315101  0.41573348  0.29968279  1
  O  O409  1  0.12003703  0.41496371  0.80620063  1
  O  O410  1  0.11798385  0.91520278  0.30291842  1
  O  O411  1  0.12336709  0.91779235  0.80736997  1
  O  O412  1  0.45982990  0.41393177  0.30306642  1
  O  O413  1  0.46127065  0.41777590  0.80613988  1
  O  O414  1  0.46264547  0.91561134  0.31072768  1
  O  O415  1  0.45414707  0.91916054  0.80537003  1
  O  O416  1  0.80441151  0.41481888  0.30417484  1
  O  O417  1  0.80698181  0.41633349  0.81061194  1
  O  O418  1  0.79098696  0.91529419  0.30699147  1
  O  O419  1  0.79101655  0.91878816  0.80970962  1
  O  O420  1  0.28809818  0.16793663  0.30495798  1
  O  O421  1  0.28912712  0.17002225  0.80285420  1
  O  O422  1  0.28784635  0.66346689  0.30171798  1
  O  O423  1  0.28813553  0.66708431  0.80792025  1
  O  O424  1  0.62422791  0.16733217  0.30593052  1
  O  O425  1  0.62345674  0.16640133  0.80856873  1
  O  O426  1  0.62585660  0.66389881  0.30833420  1
  O  O427  1  0.61925635  0.65979430  0.81104001  1
  O  O428  1  0.95727112  0.16643906  0.30262615  1
  O  O429  1  0.95540341  0.16389165  0.80650555  1
  O  O430  1  0.95594758  0.66748376  0.30135338  1
  O  O431  1  0.96298869  0.67155299  0.80800659  1
  F  F432  1  0.03237785  0.00163633  0.19276879  1
  F  F433  1  0.04634934  0.00056102  0.70640149  1
  F  F434  1  0.04472229  0.49806797  0.19587393  1
  F  F435  1  0.04450833  0.50248907  0.70045007  1
  F  F436  1  0.38033297  0.00244267  0.19674797  1
  F  F437  1  0.37608150  0.00523583  0.70791951  1
  F  F438  1  0.37793140  0.50137846  0.19521320  1
  F  F439  1  0.38240793  0.50077441  0.70414573  1
  F  F440  1  0.70953672  -0.00308060  0.20136966  1
  F  F441  1  0.71150460  -0.00029405  0.70687371  1
  F  F442  1  0.71457366  0.50752876  0.19341168  1
  F  F443  1  0.71846515  0.50904989  0.69979779  1
  F  F444  1  0.21072281  0.24892064  0.19795313  1
  F  F445  1  0.21265857  0.25166714  0.70463733  1
  F  F446  1  0.20952468  0.74826304  0.19526851  1
  F  F447  1  0.21201305  0.75312142  0.70587483  1
  F  F448  1  0.54412424  0.24763729  0.19955484  1
  F  F449  1  0.54436546  0.24758618  0.70410680  1
  F  F450  1  0.54510705  0.75164076  0.19934919  1
  F  F451  1  0.53517420  0.75300482  0.70720177  1
  F  F452  1  0.87896354  0.24819285  0.19902805  1
  F  F453  1  0.88145415  0.24751544  0.70612378  1
  F  F454  1  0.87554056  0.75047979  0.19878293  1
  F  F455  1  0.88159116  0.75448864  0.70417183  1
  F  F456  1  0.28733904  0.00451676  0.29954070  1
  F  F457  1  0.28665000  0.00154644  0.80312940  1
  F  F458  1  0.28403086  0.50061828  0.29324246  1
  F  F459  1  0.30230394  0.50033330  0.80571574  1
  F  F460  1  0.62082439  0.00001000  0.29773642  1
  F  F461  1  0.62234482  0.00294347  0.80202209  1
  F  F462  1  0.61381018  0.50632822  0.29925600  1
  F  F463  1  0.61860023  0.50770974  0.80271494  1
  F  F464  1  0.95349215  0.00036030  0.29454987  1
  F  F465  1  0.95444543  0.00009915  0.80091493  1
  F  F466  1  0.95665941  0.49990498  0.29114077  1
  F  F467  1  0.96046951  0.49897305  0.79892877  1
  F  F468  1  0.12147026  0.25033012  0.29263953  1
  F  F469  1  0.12287285  0.24848685  0.80284819  1
  F  F470  1  0.12047084  0.75163546  0.29239139  1
  F  F471  1  0.12085826  0.75295938  0.79855415  1
  F  F472  1  0.45279850  0.25061793  0.29531938  1
  F  F473  1  0.45523210  0.25225999  0.79986903  1
  F  F474  1  0.45183474  0.74856458  0.29905305  1
  F  F475  1  0.45446766  0.75047588  0.80823792  1
  F  F476  1  0.78886313  0.24957819  0.29523259  1
  F  F477  1  0.79261524  0.24644235  0.80534369  1
  F  F478  1  0.78775460  0.74942531  0.29575096  1
  F  F479  1  0.80517634  0.75218257  0.80726655  1
