# generated using pymatgen
data_K24Na3Li5Mg64Fe17Si79(O5F)48
_symmetry_space_group_name_H-M   'P 1'
_cell_length_a   16.09289725
_cell_length_b   18.57971895
_cell_length_c   20.54802536
_cell_angle_alpha   90.01645523
_cell_angle_beta   100.01123717
_cell_angle_gamma   89.98028878
_symmetry_Int_Tables_number   1
_chemical_formula_structural   K24Na3Li5Mg64Fe17Si79(O5F)48
_chemical_formula_sum   'K24 Na3 Li5 Mg64 Fe17 Si79 O240 F48'
_cell_volume   6050.34118873
_cell_formula_units_Z   1
loop_
 _symmetry_equiv_pos_site_id
 _symmetry_equiv_pos_as_xyz
  1  'x, y, z'
loop_
 _atom_site_type_symbol
 _atom_site_label
 _atom_site_symmetry_multiplicity
 _atom_site_fract_x
 _atom_site_fract_y
 _atom_site_fract_z
 _atom_site_occupancy
  K  K0  1  -0.00500617  -0.00465721  0.00072270  1
  K  K1  1  -0.00095209  0.01479635  0.49874113  1
  K  K2  1  0.00738858  0.49407792  0.00801021  1
  K  K3  1  -0.00183131  0.49314341  0.49888413  1
  K  K4  1  0.32939075  0.00194880  -0.00426626  1
  K  K5  1  0.32644607  -0.00544398  0.50626249  1
  K  K6  1  0.33660019  0.51272710  0.00083526  1
  K  K7  1  0.34255654  0.50037187  0.50309590  1
  K  K8  1  0.66773719  -0.00310161  -0.00145627  1
  K  K9  1  0.66667534  0.00044530  0.50050395  1
  K  K10  1  0.66123328  0.50093107  0.00193204  1
  K  K11  1  0.65950064  0.50085461  0.49904600  1
  K  K12  1  0.17204727  0.24723288  0.00494322  1
  K  K13  1  0.16313739  0.24519453  0.49739265  1
  K  K14  1  0.17655795  0.76081811  -0.00616073  1
  K  K15  1  0.17888961  0.75644954  0.50946921  1
  K  K16  1  0.50652913  0.24373772  0.01024556  1
  K  K17  1  0.48801653  0.25092917  0.49010715  1
  K  K18  1  0.50137713  0.74733796  -0.00525738  1
  K  K19  1  0.49884381  0.74353623  0.51764018  1
  K  K20  1  0.82523131  0.25218747  0.01311478  1
  K  K21  1  0.84682500  0.25307799  0.48649297  1
  K  K22  1  0.82159600  0.75587607  -0.00983576  1
  K  K23  1  0.82121642  0.75646763  0.50761687  1
  Na  Na24  1  0.33011742  0.24773890  0.74493755  1
  Na  Na25  1  0.82667803  0.82716055  0.75307232  1
  Na  Na26  1  -0.00072867  0.41739234  0.25326262  1
  Li  Li27  1  0.66202173  0.75154381  0.74675402  1
  Li  Li28  1  0.17694163  -0.00342745  0.74392206  1
  Li  Li29  1  0.32802698  0.91759663  0.74715979  1
  Li  Li30  1  0.00178096  0.08700157  0.24866628  1
  Li  Li31  1  0.49991944  0.16684968  0.24763140  1
  Mg  Mg32  1  0.83247676  0.50067345  0.25146270  1
  Mg  Mg33  1  0.66795059  0.24910968  0.74967897  1
  Mg  Mg34  1  0.50117039  0.49996164  0.74928199  1
  Mg  Mg35  1  0.83369959  -0.00328788  0.75156308  1
  Mg  Mg36  1  0.83834328  0.00182464  0.25106624  1
  Mg  Mg37  1  -0.00151675  0.24831947  0.24984498  1
  Mg  Mg38  1  0.33490291  0.75268399  0.24573977  1
  Mg  Mg39  1  0.66663315  0.75068843  0.24711430  1
  Mg  Mg40  1  0.33404506  0.75331634  0.75066620  1
  Mg  Mg41  1  0.16916637  0.50004911  0.75038109  1
  Mg  Mg42  1  0.83351615  0.50182193  0.74900445  1
  Mg  Mg43  1  0.00206027  0.24939818  0.74984028  1
  Mg  Mg44  1  0.66534054  0.24678852  0.24810114  1
  Mg  Mg45  1  0.00125870  0.74874156  0.24991084  1
  Mg  Mg46  1  0.33557512  0.24698960  0.25256623  1
  Mg  Mg47  1  0.49979156  0.00438956  0.24754148  1
  Mg  Mg48  1  0.16811396  0.49832771  0.25059573  1
  Mg  Mg49  1  -0.00073524  0.75063303  0.75093376  1
  Mg  Mg50  1  0.16581883  0.00110198  0.24672581  1
  Mg  Mg51  1  0.50027144  0.49935103  0.25040679  1
  Mg  Mg52  1  0.49663094  -0.00189696  0.74891143  1
  Mg  Mg53  1  0.00163908  0.41681372  0.75109313  1
  Mg  Mg54  1  0.50251635  0.66629327  0.74889398  1
  Mg  Mg55  1  0.16719593  0.33405453  0.74835890  1
  Mg  Mg56  1  0.32855063  0.07870598  0.74716309  1
  Mg  Mg57  1  0.49753872  0.83639850  0.24710150  1
  Mg  Mg58  1  0.33615067  0.58427681  0.25045983  1
  Mg  Mg59  1  0.66706521  0.08264294  0.74954220  1
  Mg  Mg60  1  0.33447145  0.58582985  0.74966272  1
  Mg  Mg61  1  0.83599770  0.16498624  0.24871014  1
  Mg  Mg62  1  0.16507291  0.33220247  0.25413706  1
  Mg  Mg63  1  0.83357857  0.83415939  0.24916115  1
  Mg  Mg64  1  0.83039530  0.66646686  0.24864800  1
  Mg  Mg65  1  0.33182489  0.08484912  0.24804889  1
  Mg  Mg66  1  0.16916917  0.83811494  0.74865597  1
  Mg  Mg67  1  0.33160392  0.41468280  0.74785133  1
  Mg  Mg68  1  0.82993554  0.66831761  0.75149819  1
  Mg  Mg69  1  0.33063087  0.91759021  0.24543986  1
  Mg  Mg70  1  0.00160582  0.91646127  0.24974166  1
  Mg  Mg71  1  0.33497815  0.41388424  0.25286479  1
  Mg  Mg72  1  0.16994434  0.66766388  0.75191441  1
  Mg  Mg73  1  0.66683500  0.41621655  0.74823546  1
  Mg  Mg74  1  0.50010389  0.33102476  0.25239439  1
  Mg  Mg75  1  0.00112426  0.58530687  0.75218018  1
  Mg  Mg76  1  0.49702836  0.16559903  0.74759449  1
  Mg  Mg77  1  0.49865410  0.33187496  0.74707510  1
  Mg  Mg78  1  0.83566727  0.16467199  0.75143655  1
  Mg  Mg79  1  0.66516167  0.91285967  0.74947796  1
  Mg  Mg80  1  0.66603655  0.91791304  0.24811050  1
  Mg  Mg81  1  0.66375326  0.58590196  0.24755924  1
  Mg  Mg82  1  0.16677223  0.16318483  0.74832572  1
  Mg  Mg83  1  0.16232554  0.16360397  0.24944353  1
  Mg  Mg84  1  0.66572368  0.41488804  0.25110805  1
  Mg  Mg85  1  0.16877077  0.66565703  0.25094211  1
  Mg  Mg86  1  0.83394022  0.33335623  0.24933240  1
  Mg  Mg87  1  0.00012948  0.58269721  0.25123213  1
  Mg  Mg88  1  0.66518327  0.58812686  0.74912508  1
  Mg  Mg89  1  0.16725319  0.83482759  0.24639552  1
  Mg  Mg90  1  0.83523833  0.33416937  0.75112099  1
  Mg  Mg91  1  0.00099586  0.91658687  0.74921848  1
  Mg  Mg92  1  0.49968450  0.83384119  0.75065369  1
  Mg  Mg93  1  0.00360553  0.08123067  0.74944367  1
  Mg  Mg94  1  0.49954598  0.66611804  0.24742142  1
  Mg  Mg95  1  0.66684995  0.08534053  0.24887154  1
  Fe  Fe96  1  0.52257175  0.58190313  0.10858827  1
  Fe  Fe97  1  0.19240301  0.41551477  0.60778890  1
  Fe  Fe98  1  0.63982045  0.83231486  0.89084569  1
  Fe  Fe99  1  0.69649686  0.16266348  0.10863364  1
  Fe  Fe100  1  0.31123424  0.67015465  0.89100885  1
  Fe  Fe101  1  0.18660425  0.08366989  0.60711067  1
  Fe  Fe102  1  0.01939084  0.33412662  0.11098879  1
  Fe  Fe103  1  0.18604050  0.08751893  0.10761238  1
  Fe  Fe104  1  0.36024365  0.83664484  0.10658099  1
  Fe  Fe105  1  0.69345319  0.67250873  0.10702463  1
  Fe  Fe106  1  0.69568136  0.67124521  0.60860024  1
  Fe  Fe107  1  0.35495610  0.83838550  0.61226629  1
  Fe  Fe108  1  0.97703032  0.33783223  0.39285065  1
  Fe  Fe109  1  0.18472805  0.91748013  0.10537599  1
  Fe  Fe110  1  0.97870465  0.16612300  0.39002462  1
  Fe  Fe111  1  0.52590237  0.57719454  0.60826843  1
  Fe  Fe112  1  0.47603409  0.41390275  0.39141424  1
  Si  Si113  1  0.01914262  0.82947782  0.61399649  1
  Si  Si114  1  0.14102608  0.41690182  0.88770717  1
  Si  Si115  1  0.64206808  0.16671694  0.88412506  1
  Si  Si116  1  0.64433438  0.32721076  0.38802718  1
  Si  Si117  1  0.52801876  0.92029925  0.11322379  1
  Si  Si118  1  0.35263314  0.66815071  0.11218846  1
  Si  Si119  1  0.35935264  0.33004031  0.11667796  1
  Si  Si120  1  0.97172723  0.66727300  0.88685513  1
  Si  Si121  1  0.18779304  0.58508544  0.61344067  1
  Si  Si122  1  0.13862745  0.08460107  0.88573448  1
  Si  Si123  1  0.86560181  0.58427786  0.61437669  1
  Si  Si124  1  0.81047160  0.92007803  0.88867754  1
  Si  Si125  1  0.36397481  0.33059331  0.61203005  1
  Si  Si126  1  0.30377356  0.16595931  0.88548238  1
  Si  Si127  1  0.02773265  0.65913849  0.11694661  1
  Si  Si128  1  0.64164020  0.65941574  0.88818224  1
  Si  Si129  1  0.69865284  0.33164197  0.61496118  1
  Si  Si130  1  0.85932755  0.91864848  0.61512909  1
  Si  Si131  1  0.97513845  0.16740768  0.88676281  1
  Si  Si132  1  0.80919903  0.58110493  0.88596579  1
  Si  Si133  1  0.97512485  0.66391576  0.38635106  1
  Si  Si134  1  0.30776110  0.84058476  0.88619776  1
  Si  Si135  1  0.97572204  0.82995703  0.38598158  1
  Si  Si136  1  0.52096574  0.41284645  0.11414336  1
  Si  Si137  1  0.02133366  0.17000651  0.11189338  1
  Si  Si138  1  0.69672122  0.16635688  0.61490696  1
  Si  Si139  1  0.86036351  0.08194633  0.61566045  1
  Si  Si140  1  0.30364939  0.33001259  0.39051471  1
  Si  Si141  1  0.47635219  0.58675039  0.38795171  1
  Si  Si142  1  0.17862793  0.91466670  0.60766784  1
  Si  Si143  1  0.31102121  0.67084795  0.38543910  1
  Si  Si144  1  0.86605043  0.07736327  0.11243408  1
  Si  Si145  1  0.30503364  0.33313740  0.88618246  1
  Si  Si146  1  0.14827210  0.42392844  0.38928050  1
  Si  Si147  1  0.01938433  0.17114363  0.61442800  1
  Si  Si148  1  0.64323876  0.16259370  0.38439967  1
  Si  Si149  1  0.30771366  0.16319303  0.38657138  1
  Si  Si150  1  0.13790177  0.58350231  0.88983882  1
  Si  Si151  1  0.14267395  0.91036431  0.38530661  1
  Si  Si152  1  0.52784393  0.40661815  0.61235202  1
  Si  Si153  1  0.13875965  0.91823691  0.88348362  1
  Si  Si154  1  0.14641140  0.07564742  0.38715221  1
  Si  Si155  1  0.35552913  0.66485443  0.61103714  1
  Si  Si156  1  0.47690505  0.57584799  0.88781549  1
  Si  Si157  1  0.69022032  0.84184260  0.11375929  1
  Si  Si158  1  0.80933862  0.08479397  0.88658009  1
  Si  Si159  1  0.68818296  0.84186688  0.61005206  1
  Si  Si160  1  0.80960644  0.41599018  0.88585200  1
  Si  Si161  1  0.63974192  0.83707111  0.38426856  1
  Si  Si162  1  0.63970375  0.67279401  0.38530157  1
  Si  Si163  1  0.02133304  0.33277277  0.61509389  1
  Si  Si164  1  0.02759026  0.66621957  0.61746169  1
  Si  Si165  1  0.47448751  0.40980145  0.88456575  1
  Si  Si166  1  0.97740010  0.83393992  0.88533067  1
  Si  Si167  1  0.52445207  0.08266429  0.11258412  1
  Si  Si168  1  0.02295941  0.82232675  0.11216994  1
  Si  Si169  1  0.97550668  0.33264807  0.88641547  1
  Si  Si170  1  0.64352391  0.33216227  0.88404599  1
  Si  Si171  1  0.84961688  0.42513254  0.11312665  1
  Si  Si172  1  0.86031859  0.41933903  0.61597776  1
  Si  Si173  1  0.19435366  0.57997057  0.11729638  1
  Si  Si174  1  0.36088328  0.16326216  0.61105509  1
  Si  Si175  1  0.52795672  0.08901872  0.61335940  1
  Si  Si176  1  0.80410232  0.58723395  0.38597363  1
  Si  Si177  1  0.19544833  0.41364854  0.11438005  1
  Si  Si178  1  0.31147880  0.83428678  0.38442914  1
  Si  Si179  1  0.47454261  0.92321750  0.88790779  1
  Si  Si180  1  0.47290173  0.08862568  0.88472307  1
  Si  Si181  1  0.14688551  0.58780661  0.38734167  1
  Si  Si182  1  0.80691739  0.07899072  0.38858085  1
  Si  Si183  1  0.86264158  0.91208612  0.11480606  1
  Si  Si184  1  0.86096219  0.58772162  0.11403379  1
  Si  Si185  1  0.47488936  0.92140905  0.38459400  1
  Si  Si186  1  0.52606903  0.92385654  0.60989914  1
  Si  Si187  1  0.80947608  0.91370856  0.38507817  1
  Si  Si188  1  0.35914237  0.16565369  0.11337399  1
  Si  Si189  1  0.47481524  0.08586892  0.38414466  1
  Si  Si190  1  0.80301833  0.42099758  0.38903324  1
  Si  Si191  1  0.68932174  0.33631174  0.11232877  1
  O  O192  1  0.28474506  0.11571755  0.07453051  1
  O  O193  1  0.28523496  0.11323474  0.57392677  1
  O  O194  1  0.27605568  0.60806714  0.08809491  1
  O  O195  1  0.27099213  0.61342701  0.58551738  1
  O  O196  1  0.60051972  0.10665736  0.07459177  1
  O  O197  1  0.61037986  0.12265644  0.58497938  1
  O  O198  1  0.61504078  0.60538094  0.07070714  1
  O  O199  1  0.61210351  0.60991740  0.56715775  1
  O  O200  1  0.95301418  0.10355684  0.08781761  1
  O  O201  1  0.93748173  0.11882235  0.58606664  1
  O  O202  1  0.95381568  0.60037902  0.09017632  1
  O  O203  1  0.95576180  0.60556050  0.58975956  1
  O  O204  1  0.11738993  0.36642321  0.07687284  1
  O  O205  1  0.09981480  0.35296179  0.57986985  1
  O  O206  1  0.10021969  0.84532089  0.07710841  1
  O  O207  1  0.09763582  0.85738495  0.58040704  1
  O  O208  1  0.44498265  0.35362579  0.08899430  1
  O  O209  1  0.45524235  0.34570826  0.58695418  1
  O  O210  1  0.46471235  0.85854912  0.07953286  1
  O  O211  1  0.44578000  0.87788603  0.57450001  1
  O  O212  1  0.76515789  0.37724930  0.08145828  1
  O  O213  1  0.77789476  0.36901736  0.58702194  1
  O  O214  1  0.77632481  0.86737176  0.08648557  1
  O  O215  1  0.77156788  0.87810798  0.58290784  1
  O  O216  1  0.28206089  0.38587374  0.08737442  1
  O  O217  1  0.29078155  0.38460511  0.57649680  1
  O  O218  1  0.28006015  0.90106266  0.06827986  1
  O  O219  1  0.25582899  0.88675677  0.57181641  1
  O  O220  1  0.60356011  0.38385998  0.08413163  1
  O  O221  1  0.61363878  0.37638149  0.58581760  1
  O  O222  1  0.62204305  0.90766665  0.09229907  1
  O  O223  1  0.61022451  0.89786983  0.57965760  1
  O  O224  1  0.92938073  0.39996524  0.08041189  1
  O  O225  1  0.94193768  0.38828989  0.58788615  1
  O  O226  1  0.93789116  0.87103284  0.08457721  1
  O  O227  1  0.93456555  0.87753113  0.58399690  1
  O  O228  1  0.10413256  0.15782305  0.07751268  1
  O  O229  1  0.09650201  0.14976453  0.57848791  1
  O  O230  1  0.11177712  0.63078375  0.08856785  1
  O  O231  1  0.11268338  0.64570728  0.58793946  1
  O  O232  1  0.44675387  0.14009789  0.08757466  1
  O  O233  1  0.44906814  0.14112119  0.58235798  1
  O  O234  1  0.43195496  0.64475674  0.07843789  1
  O  O235  1  0.42865872  0.63054975  0.57508927  1
  O  O236  1  0.78735417  0.12385947  0.07277973  1
  O  O237  1  0.77320639  0.12644711  0.58572356  1
  O  O238  1  0.79897053  0.65068477  0.08084010  1
  O  O239  1  0.79548915  0.63854596  0.57768548  1
  O  O240  1  0.07481649  0.10920257  0.42378549  1
  O  O241  1  0.06154068  0.12392858  0.91766317  1
  O  O242  1  0.06353970  0.62028461  0.41558995  1
  O  O243  1  0.05571327  0.61934946  0.91705585  1
  O  O244  1  0.40044930  0.12654937  0.41623801  1
  O  O245  1  0.39685564  0.12970414  0.91549577  1
  O  O246  1  0.39496868  0.62398251  0.41547661  1
  O  O247  1  0.40574236  0.61225166  0.92359347  1
  O  O248  1  0.72112914  0.10818225  0.41554878  1
  O  O249  1  0.72774872  0.12054565  0.91391936  1
  O  O250  1  0.73072454  0.63362023  0.41489521  1
  O  O251  1  0.73002974  0.61304940  0.91612389  1
  O  O252  1  0.22511240  0.36806650  0.41972107  1
  O  O253  1  0.23034939  0.37569316  0.91833015  1
  O  O254  1  0.22950767  0.86461271  0.41418104  1
  O  O255  1  0.22749359  0.87885883  0.91444076  1
  O  O256  1  0.56809468  0.35345932  0.42409103  1
  O  O257  1  0.56308118  0.36563785  0.91328126  1
  O  O258  1  0.56431465  0.87909118  0.41408417  1
  O  O259  1  0.55441870  0.87946714  0.92835391  1
  O  O260  1  0.88926294  0.38665816  0.42739323  1
  O  O261  1  0.89588829  0.36994119  0.91475206  1
  O  O262  1  0.89619219  0.86784112  0.41441976  1
  O  O263  1  0.90145903  0.87696517  0.91347517  1
  O  O264  1  0.06592341  0.40447870  0.41977971  1
  O  O265  1  0.06280523  0.37612036  0.91592508  1
  O  O266  1  0.06439907  0.87181558  0.41574765  1
  O  O267  1  0.06533507  0.87612824  0.91710854  1
  O  O268  1  0.38839644  0.36998182  0.42688287  1
  O  O269  1  0.39806593  0.36970627  0.91521775  1
  O  O270  1  0.39590501  0.88284745  0.41310257  1
  O  O271  1  0.38761665  0.89481304  0.91176083  1
  O  O272  1  0.72580777  0.37885134  0.41690809  1
  O  O273  1  0.72977247  0.37823935  0.91397389  1
  O  O274  1  0.73047496  0.87609333  0.41444489  1
  O  O275  1  0.74156077  0.88350784  0.92637684  1
  O  O276  1  0.23814598  0.11532572  0.41660015  1
  O  O277  1  0.22849994  0.12519045  0.91753503  1
  O  O278  1  0.22785601  0.64103858  0.41459346  1
  O  O279  1  0.22078987  0.62558169  0.92521817  1
  O  O280  1  0.56160031  0.13071969  0.41467873  1
  O  O281  1  0.56106786  0.13428828  0.91303879  1
  O  O282  1  0.56075006  0.63710799  0.41419467  1
  O  O283  1  0.56889767  0.61186232  0.91689074  1
  O  O284  1  0.88664136  0.12341166  0.42576288  1
  O  O285  1  0.89375815  0.13327630  0.91500000  1
  O  O286  1  0.89692407  0.62472073  0.41534290  1
  O  O287  1  0.89391750  0.62822505  0.91625180  1
  O  O288  1  0.14055369  0.00303197  0.07013217  1
  O  O289  1  0.14739397  -0.00747458  0.57539970  1
  O  O290  1  0.17655578  0.49812331  0.08817944  1
  O  O291  1  0.15728761  0.50921916  0.57848103  1
  O  O292  1  0.49414463  0.00057944  0.08581867  1
  O  O293  1  0.51231889  0.00850208  0.58197796  1
  O  O294  1  0.48884677  0.48765385  0.07899286  1
  O  O295  1  0.50107312  0.48156234  0.57665012  1
  O  O296  1  0.85310319  -0.00692286  0.08391500  1
  O  O297  1  0.84912761  0.00101319  0.58358147  1
  O  O298  1  0.82633817  0.50841344  0.08583568  1
  O  O299  1  0.84281851  0.50077233  0.58690914  1
  O  O300  1  -0.02298149  0.24401928  0.07921277  1
  O  O301  1  -0.01637529  0.25257669  0.59287293  1
  O  O302  1  -0.00249953  0.73849838  0.08744160  1
  O  O303  1  -0.00357837  0.74605636  0.58769929  1
  O  O304  1  0.33800288  0.24956658  0.08539774  1
  O  O305  1  0.34005422  0.24747459  0.58720240  1
  O  O306  1  0.31477935  0.74459921  0.08397107  1
  O  O307  1  0.33361621  0.74395471  0.57897883  1
  O  O308  1  0.67637099  0.25829575  0.07638615  1
  O  O309  1  0.68946531  0.24897484  0.58616297  1
  O  O310  1  0.65791313  0.76713471  0.07918584  1
  O  O311  1  0.67225149  0.76545533  0.57198525  1
  O  O312  1  0.15980478  -0.00888710  0.41496856  1
  O  O313  1  0.14358051  0.00138194  0.91260487  1
  O  O314  1  0.17421345  0.50783408  0.41652278  1
  O  O315  1  0.14366636  0.49874752  0.91769874  1
  O  O316  1  0.48603895  0.00327062  0.41590874  1
  O  O317  1  0.48448989  0.00825590  0.91646427  1
  O  O318  1  0.49375109  0.50944145  0.42294194  1
  O  O319  1  0.48644641  0.49079173  0.91490008  1
  O  O320  1  0.81869695  -0.00561171  0.41671601  1
  O  O321  1  0.82680476  0.00445198  0.91804357  1
  O  O322  1  0.80070328  0.50600748  0.41579028  1
  O  O323  1  0.82473546  0.49763675  0.91555408  1
  O  O324  1  0.30784282  0.24510905  0.41718896  1
  O  O325  1  0.30749513  0.24982355  0.91434942  1
  O  O326  1  0.32913185  0.75273117  0.41485642  1
  O  O327  1  0.32639368  0.76423420  0.92515009  1
  O  O328  1  0.66782450  0.24357906  0.41464102  1
  O  O329  1  0.65872571  0.24955978  0.91271898  1
  O  O330  1  0.64841117  0.75542001  0.41457298  1
  O  O331  1  0.65173135  0.73682906  0.92437484  1
  O  O332  1  0.99687924  0.25124563  0.43771435  1
  O  O333  1  0.98623414  0.25047205  0.91509106  1
  O  O334  1  0.98415321  0.74699653  0.41575057  1
  O  O335  1  0.98234518  0.75043126  0.91570200  1
  O  O336  1  0.21111120  0.08374258  0.20007810  1
  O  O337  1  0.21006931  0.08585936  0.69730186  1
  O  O338  1  0.21193989  0.58286116  0.19789513  1
  O  O339  1  0.20612567  0.58252773  0.69465313  1
  O  O340  1  0.54732876  0.08056610  0.19283353  1
  O  O341  1  0.54717486  0.08700645  0.69379857  1
  O  O342  1  0.54325465  0.58309263  0.20161531  1
  O  O343  1  0.54551621  0.57986959  0.70077330  1
  O  O344  1  0.87199770  0.07901095  0.19214295  1
  O  O345  1  0.87557154  0.08357751  0.69614232  1
  O  O346  1  0.87698749  0.58636366  0.19537998  1
  O  O347  1  0.88002325  0.58161551  0.69550017  1
  O  O348  1  0.05034994  0.32748238  0.20025633  1
  O  O349  1  0.04028815  0.33575779  0.69653081  1
  O  O350  1  0.04174958  0.82819808  0.19346244  1
  O  O351  1  0.03951588  0.83191412  0.69408585  1
  O  O352  1  0.37492357  0.33072927  0.19695004  1
  O  O353  1  0.38154571  0.33922170  0.69204511  1
  O  O354  1  0.37881137  0.83577591  0.19982697  1
  O  O355  1  0.37937955  0.83422815  0.70246748  1
  O  O356  1  0.70754035  0.33445389  0.19341304  1
  O  O357  1  0.71464609  0.33151232  0.69579572  1
  O  O358  1  0.71093083  0.83602705  0.19525322  1
  O  O359  1  0.70150307  0.83923304  0.68892566  1
  O  O360  1  0.21261350  0.41480080  0.19539618  1
  O  O361  1  0.21008914  0.41703949  0.69997843  1
  O  O362  1  0.20942401  0.91601395  0.19890136  1
  O  O363  1  0.20035390  0.91273811  0.68738330  1
  O  O364  1  0.54361259  0.41511498  0.19505912  1
  O  O365  1  0.54711262  0.41178310  0.69371061  1
  O  O366  1  0.54348693  0.91890235  0.19487673  1
  O  O367  1  0.54301896  0.92253575  0.69048270  1
  O  O368  1  0.86264651  0.42113119  0.19304842  1
  O  O369  1  0.87695272  0.41694460  0.69687816  1
  O  O370  1  0.87919400  0.91330312  0.19549581  1
  O  O371  1  0.87942355  0.92218462  0.69439134  1
  O  O372  1  0.04458337  0.16972402  0.19249598  1
  O  O373  1  0.03840047  0.16683270  0.69547537  1
  O  O374  1  0.04573911  0.66472554  0.19761687  1
  O  O375  1  0.04558836  0.66584212  0.69804592  1
  O  O376  1  0.37210250  0.16641227  0.19352608  1
  O  O377  1  0.38173075  0.15758552  0.69087794  1
  O  O378  1  0.37505032  0.66648375  0.19431787  1
  O  O379  1  0.37708079  0.66411955  0.69242608  1
  O  O380  1  0.71313136  0.16472900  0.19999384  1
  O  O381  1  0.71352933  0.16699663  0.69560540  1
  O  O382  1  0.71127730  0.66886115  0.20011906  1
  O  O383  1  0.71375153  0.66481869  0.69970600  1
  O  O384  1  0.12845088  0.07890957  0.30734510  1
  O  O385  1  0.11747010  0.09088464  0.80685627  1
  O  O386  1  0.12583850  0.58663001  0.30708072  1
  O  O387  1  0.12285390  0.58262614  0.80873038  1
  O  O388  1  0.45536906  0.08191773  0.30481009  1
  O  O389  1  0.45736160  0.08669650  0.80467047  1
  O  O390  1  0.45610896  0.58563228  0.30713119  1
  O  O391  1  0.45619440  0.57857390  0.80711466  1
  O  O392  1  0.79135189  0.07954318  0.30808091  1
  O  O393  1  0.79092071  0.08535742  0.80594535  1
  O  O394  1  0.78834896  0.58649613  0.30584397  1
  O  O395  1  0.79283743  0.57834239  0.80588034  1
  O  O396  1  0.29069942  0.33215980  0.30962071  1
  O  O397  1  0.28538250  0.33884648  0.80719293  1
  O  O398  1  0.29117147  0.83251183  0.30462870  1
  O  O399  1  0.28545767  0.83098646  0.80686469  1
  O  O400  1  0.62501409  0.33109803  0.30712110  1
  O  O401  1  0.62730014  0.33265192  0.80371437  1
  O  O402  1  0.62287351  0.83631041  0.30397191  1
  O  O403  1  0.62013045  0.83587217  0.80043507  1
  O  O404  1  0.94821455  0.32474302  0.30349205  1
  O  O405  1  0.95691589  0.33372003  0.80584047  1
  O  O406  1  0.95781384  0.83006996  0.30566149  1
  O  O407  1  0.96517204  0.83297047  0.80612791  1
  O  O408  1  0.13775855  0.42122793  0.30952440  1
  O  O409  1  0.12203646  0.41668863  0.80748690  1
  O  O410  1  0.12180557  0.90990444  0.30537729  1
  O  O411  1  0.11917487  0.91509526  0.80401877  1
  O  O412  1  0.45608203  0.41612074  0.29985762  1
  O  O413  1  0.45764509  0.41185317  0.80426294  1
  O  O414  1  0.45867929  0.92014656  0.30470452  1
  O  O415  1  0.46741111  0.92059387  0.80852843  1
  O  O416  1  0.78796059  0.41891702  0.30808807  1
  O  O417  1  0.79159640  0.41498288  0.80533151  1
  O  O418  1  0.79058879  0.91411347  0.30495415  1
  O  O419  1  0.78577029  0.92535442  0.80918269  1
  O  O420  1  0.29198185  0.16526879  0.30672691  1
  O  O421  1  0.28536163  0.16147351  0.80670959  1
  O  O422  1  0.29178895  0.66856949  0.30497322  1
  O  O423  1  0.28940701  0.66649643  0.79929788  1
  O  O424  1  0.62586003  0.16425989  0.30509028  1
  O  O425  1  0.62637900  0.16649387  0.80378799  1
  O  O426  1  0.62288533  0.67113259  0.30536947  1
  O  O427  1  0.62106686  0.66035260  0.80851183  1
  O  O428  1  0.95379642  0.16527567  0.29943569  1
  O  O429  1  0.95614003  0.16747191  0.80614478  1
  O  O430  1  0.95734605  0.66693084  0.30600078  1
  O  O431  1  0.95795469  0.66514640  0.80669208  1
  F  F432  1  0.04535344  -0.00592611  0.20289230  1
  F  F433  1  0.03526217  0.00029262  0.69934584  1
  F  F434  1  0.05204786  0.50970772  0.20144800  1
  F  F435  1  0.04525553  0.50047634  0.70550106  1
  F  F436  1  0.37933381  0.00159949  0.20144732  1
  F  F437  1  0.38299141  0.00339768  0.69822998  1
  F  F438  1  0.37690901  0.50063845  0.20241371  1
  F  F439  1  0.37908541  0.49924413  0.70373555  1
  F  F440  1  0.71563439  -0.00072809  0.20460883  1
  F  F441  1  0.71400027  0.00328703  0.70141806  1
  F  F442  1  0.71028045  0.50044603  0.20497941  1
  F  F443  1  0.71425002  0.49671326  0.70175836  1
  F  F444  1  0.21482152  0.25012221  0.20703718  1
  F  F445  1  0.19542127  0.25014594  0.69897509  1
  F  F446  1  0.21116541  0.74807371  0.20293995  1
  F  F447  1  0.20895656  0.75100610  0.70110445  1
  F  F448  1  0.54630564  0.25328365  0.20197036  1
  F  F449  1  0.55036938  0.24871889  0.70012184  1
  F  F450  1  0.54525570  0.75196676  0.20270359  1
  F  F451  1  0.53774964  0.74898019  0.69970558  1
  F  F452  1  0.87156512  0.24980491  0.19724265  1
  F  F453  1  0.87792960  0.25009778  0.70414645  1
  F  F454  1  0.87972499  0.75004162  0.20394768  1
  F  F455  1  0.88448963  0.74017070  0.69958219  1
  F  F456  1  0.29178881  -0.00155323  0.29961698  1
  F  F457  1  0.29179516  -0.00090014  0.79799709  1
  F  F458  1  0.29075051  0.50144692  0.29875240  1
  F  F459  1  0.28959255  0.50088630  0.79951199  1
  F  F460  1  0.62197461  -0.00035152  0.29843480  1
  F  F461  1  0.62095750  0.00351851  0.79617155  1
  F  F462  1  0.62263107  0.49929043  0.30031391  1
  F  F463  1  0.62433862  0.49406856  0.79941902  1
  F  F464  1  0.95187045  -0.01146812  0.30337939  1
  F  F465  1  0.95385377  0.00168634  0.80050224  1
  F  F466  1  0.94843595  0.51197007  0.30332922  1
  F  F467  1  0.95479021  0.49887503  0.79997308  1
  F  F468  1  0.12471850  0.24611522  0.30283902  1
  F  F469  1  0.11896251  0.25252762  0.80038604  1
  F  F470  1  0.12244590  0.74964454  0.29867061  1
  F  F471  1  0.12090415  0.75004151  0.79814934  1
  F  F472  1  0.45346583  0.25165380  0.30172776  1
  F  F473  1  0.46892246  0.24961742  0.79980737  1
  F  F474  1  0.45641574  0.74991447  0.29813440  1
  F  F475  1  0.45517396  0.74577236  0.80030433  1
  F  F476  1  0.78572504  0.25131263  0.29772147  1
  F  F477  1  0.78939832  0.24987248  0.79974832  1
  F  F478  1  0.78947621  0.75303941  0.30013856  1
  F  F479  1  0.79892241  0.73691969  0.81468383  1
