# generated using pymatgen
data_K24Na3Li5Mg64Fe17Si79(O5F)48
_symmetry_space_group_name_H-M   'P 1'
_cell_length_a   16.09029423
_cell_length_b   18.59167133
_cell_length_c   20.56510144
_cell_angle_alpha   90.00841531
_cell_angle_beta   100.03768091
_cell_angle_gamma   89.96606428
_symmetry_Int_Tables_number   1
_chemical_formula_structural   K24Na3Li5Mg64Fe17Si79(O5F)48
_chemical_formula_sum   'K24 Na3 Li5 Mg64 Fe17 Si79 O240 F48'
_cell_volume   6057.78978760
_cell_formula_units_Z   1
loop_
 _symmetry_equiv_pos_site_id
 _symmetry_equiv_pos_as_xyz
  1  'x, y, z'
loop_
 _atom_site_type_symbol
 _atom_site_label
 _atom_site_symmetry_multiplicity
 _atom_site_fract_x
 _atom_site_fract_y
 _atom_site_fract_z
 _atom_site_occupancy
  K  K0  1  -0.00282335  -0.00169406  0.00863004  1
  K  K1  1  -0.01496131  -0.00738925  0.48429594  1
  K  K2  1  -0.00070030  0.48682554  -0.00273995  1
  K  K3  1  0.00864928  0.49783863  0.49977697  1
  K  K4  1  0.34009692  -0.00337790  0.00482029  1
  K  K5  1  0.33346996  -0.00071664  0.49568856  1
  K  K6  1  0.32615491  0.50073966  -0.00036937  1
  K  K7  1  0.32677291  0.50358478  0.49886426  1
  K  K8  1  0.66970080  0.01054545  0.01505713  1
  K  K9  1  0.66657952  0.00100444  0.49130244  1
  K  K10  1  0.67878251  0.50113296  -0.00188208  1
  K  K11  1  0.66601521  0.50365964  0.50261460  1
  K  K12  1  0.16047209  0.24410056  0.00811045  1
  K  K13  1  0.16143395  0.24688942  0.48169224  1
  K  K14  1  0.17108395  0.75966781  0.00994884  1
  K  K15  1  0.15964284  0.75779789  0.49315031  1
  K  K16  1  0.50188836  0.23838847  0.00525359  1
  K  K17  1  0.49914651  0.23428673  0.50077204  1
  K  K18  1  0.49482316  0.76478252  0.00695474  1
  K  K19  1  0.50094645  0.74886719  0.49662587  1
  K  K20  1  0.83788635  0.24071645  0.00598692  1
  K  K21  1  0.83797705  0.24778525  0.49634695  1
  K  K22  1  0.83422498  0.75302734  0.00220217  1
  K  K23  1  0.82950979  0.75979868  0.49118514  1
  Na  Na24  1  0.82848643  -0.00208942  0.24748468  1
  Na  Na25  1  0.16290083  0.32454357  0.25456870  1
  Na  Na26  1  0.16346278  0.17570739  0.25230396  1
  Li  Li27  1  0.67072058  0.76159592  0.25442020  1
  Li  Li28  1  0.00491824  0.24702722  0.25321358  1
  Li  Li29  1  0.16374599  0.83843437  0.25138624  1
  Li  Li30  1  0.00133699  0.41611061  0.75259844  1
  Li  Li31  1  0.66915227  0.91554342  0.24606091  1
  Mg  Mg32  1  0.16494518  0.49837050  0.25215966  1
  Mg  Mg33  1  0.00066892  0.75256589  0.25232916  1
  Mg  Mg34  1  0.50247073  0.49972307  0.74554065  1
  Mg  Mg35  1  0.83329780  0.50238942  0.24832699  1
  Mg  Mg36  1  0.50394755  -0.00110742  0.25099325  1
  Mg  Mg37  1  0.49912519  0.00100831  0.75128604  1
  Mg  Mg38  1  0.49774139  0.50212462  0.24965149  1
  Mg  Mg39  1  0.32904315  0.75335521  0.24874058  1
  Mg  Mg40  1  -0.00015552  0.25011999  0.75632286  1
  Mg  Mg41  1  0.16557765  0.50021791  0.74686941  1
  Mg  Mg42  1  0.66901289  0.25046390  0.24936045  1
  Mg  Mg43  1  0.83268438  0.00116202  0.75125926  1
  Mg  Mg44  1  0.66923959  0.74778768  0.74714524  1
  Mg  Mg45  1  0.16645970  -0.00065986  0.75351607  1
  Mg  Mg46  1  0.16513324  0.00111503  0.24954758  1
  Mg  Mg47  1  0.33425316  0.24826429  0.25029387  1
  Mg  Mg48  1  0.33189447  0.24925107  0.75172393  1
  Mg  Mg49  1  0.00406236  0.74945624  0.74537522  1
  Mg  Mg50  1  0.33427517  0.74867642  0.75099881  1
  Mg  Mg51  1  0.83882715  0.49686766  0.75173817  1
  Mg  Mg52  1  0.66636460  0.24969236  0.74982845  1
  Mg  Mg53  1  0.67046922  0.41556162  0.75012642  1
  Mg  Mg54  1  0.50029228  0.33338421  0.74746107  1
  Mg  Mg55  1  0.83894460  0.33498818  0.75564610  1
  Mg  Mg56  1  0.49887462  0.66976629  0.24761576  1
  Mg  Mg57  1  0.16282352  0.33499855  0.75028800  1
  Mg  Mg58  1  0.00283388  0.58175421  0.74717473  1
  Mg  Mg59  1  0.83071742  0.83371078  0.25032979  1
  Mg  Mg60  1  0.33328900  0.08429910  0.75216143  1
  Mg  Mg61  1  0.49845708  0.16340972  0.74858456  1
  Mg  Mg62  1  0.83136196  0.66907250  0.25031846  1
  Mg  Mg63  1  0.83513829  0.83416218  0.74789380  1
  Mg  Mg64  1  0.33246420  0.58343232  0.74619016  1
  Mg  Mg65  1  0.33145819  0.41591264  0.74703587  1
  Mg  Mg66  1  0.66560733  0.91472215  0.74772645  1
  Mg  Mg67  1  0.50044304  0.83322549  0.75141224  1
  Mg  Mg68  1  0.50135058  0.66377057  0.74608167  1
  Mg  Mg69  1  0.00241142  0.58476789  0.25284097  1
  Mg  Mg70  1  0.66939264  0.58271421  0.74803951  1
  Mg  Mg71  1  0.66405091  0.08377231  0.74970997  1
  Mg  Mg72  1  0.33023816  0.58547676  0.25048105  1
  Mg  Mg73  1  0.00212062  0.91543055  0.75022615  1
  Mg  Mg74  1  0.66498127  0.58761320  0.24831355  1
  Mg  Mg75  1  0.66691150  0.41828284  0.24803007  1
  Mg  Mg76  1  -0.00115677  0.91633441  0.24938337  1
  Mg  Mg77  1  0.16654207  0.16487280  0.75607720  1
  Mg  Mg78  1  0.50271120  0.16482878  0.25184510  1
  Mg  Mg79  1  0.66980174  0.08259806  0.24928707  1
  Mg  Mg80  1  0.50185505  0.83347505  0.24902036  1
  Mg  Mg81  1  0.16786538  0.83311778  0.75053301  1
  Mg  Mg82  1  0.33405775  0.91462278  0.75320959  1
  Mg  Mg83  1  0.00211549  0.41417793  0.25216226  1
  Mg  Mg84  1  0.83796446  0.66399009  0.74765293  1
  Mg  Mg85  1  0.33112783  0.91584212  0.24910200  1
  Mg  Mg86  1  0.50034510  0.33499181  0.25020171  1
  Mg  Mg87  1  0.83402442  0.16617291  0.24705780  1
  Mg  Mg88  1  0.33510768  0.08333717  0.25204238  1
  Mg  Mg89  1  -0.00267678  0.08595118  0.24774823  1
  Mg  Mg90  1  0.16615409  0.66413969  0.74707321  1
  Mg  Mg91  1  0.00242374  0.08431794  0.75587350  1
  Mg  Mg92  1  0.33041102  0.41450098  0.25033185  1
  Mg  Mg93  1  0.83516023  0.33423483  0.24740836  1
  Mg  Mg94  1  0.16573051  0.66786661  0.25193614  1
  Mg  Mg95  1  0.83545477  0.16641489  0.75456679  1
  Fe  Fe96  1  0.14122155  0.57991381  0.39084260  1
  Fe  Fe97  1  0.52526170  0.07820643  0.60874310  1
  Fe  Fe98  1  0.86266129  0.07830622  0.10480729  1
  Fe  Fe99  1  0.35534908  0.83658119  0.11033855  1
  Fe  Fe100  1  0.81160755  0.41761073  0.89234135  1
  Fe  Fe101  1  0.79437108  0.91859890  0.39120047  1
  Fe  Fe102  1  0.19431703  0.58454049  0.60720622  1
  Fe  Fe103  1  0.69373033  0.17081765  0.10871341  1
  Fe  Fe104  1  0.02086593  0.83956976  0.60856986  1
  Fe  Fe105  1  0.47236351  0.08607647  0.89104989  1
  Fe  Fe106  1  0.31100526  0.82619897  0.89066047  1
  Fe  Fe107  1  0.97277453  0.16150404  0.89533657  1
  Fe  Fe108  1  0.97342376  0.83434338  0.39027219  1
  Fe  Fe109  1  0.14430554  0.07827148  0.89520015  1
  Fe  Fe110  1  0.02229132  0.66832664  0.60541356  1
  Fe  Fe111  1  0.48079184  0.08018862  0.39085444  1
  Fe  Fe112  1  0.52858203  0.58603057  0.60727368  1
  Si  Si113  1  0.52469803  0.08379928  0.11358199  1
  Si  Si114  1  0.63826015  0.17032654  0.88440274  1
  Si  Si115  1  0.47706080  0.41305743  0.88217888  1
  Si  Si116  1  0.18640265  0.41222613  0.61195356  1
  Si  Si117  1  0.30948192  0.33904436  0.88508523  1
  Si  Si118  1  0.02520722  0.16428068  0.61711066  1
  Si  Si119  1  0.85936395  0.90451283  0.10846665  1
  Si  Si120  1  0.69631013  0.83201017  0.61353203  1
  Si  Si121  1  0.69016183  0.33140595  0.61449105  1
  Si  Si122  1  0.80516784  0.91468745  0.88444275  1
  Si  Si123  1  0.35502351  0.33234578  0.61374415  1
  Si  Si124  1  0.36269322  0.67024480  0.61219383  1
  Si  Si125  1  0.13979396  0.08615003  0.38316731  1
  Si  Si126  1  0.35874758  0.16568817  0.11561808  1
  Si  Si127  1  0.14447171  0.41268374  0.38891247  1
  Si  Si128  1  0.19728218  0.91888184  0.61430667  1
  Si  Si129  1  0.69334498  0.82883952  0.11437406  1
  Si  Si130  1  0.69037487  0.34260756  0.11094030  1
  Si  Si131  1  0.97396335  0.16747598  0.38441588  1
  Si  Si132  1  0.80401804  0.58398255  0.38374129  1
  Si  Si133  1  0.02287608  0.32807551  0.61697179  1
  Si  Si134  1  0.81200231  0.41940919  0.38429074  1
  Si  Si135  1  0.19144912  0.08445217  0.61602717  1
  Si  Si136  1  0.97020891  0.66236480  0.38701531  1
  Si  Si137  1  0.19104552  0.41466298  0.11604083  1
  Si  Si138  1  0.14343365  0.58483625  0.88593016  1
  Si  Si139  1  0.97491369  0.33312176  0.38463142  1
  Si  Si140  1  0.35830783  0.83197890  0.61672795  1
  Si  Si141  1  0.70422920  0.66525722  0.61094753  1
  Si  Si142  1  0.63666993  0.66066927  0.38394279  1
  Si  Si143  1  0.14381648  0.41996447  0.88511318  1
  Si  Si144  1  0.97908174  0.67172389  0.88435397  1
  Si  Si145  1  0.85426656  0.92669143  0.61418968  1
  Si  Si146  1  0.52087748  0.41947993  0.11348680  1
  Si  Si147  1  0.80644314  0.09303688  0.38947118  1
  Si  Si148  1  0.64148620  0.82967715  0.88429422  1
  Si  Si149  1  0.63114997  0.82496437  0.38703993  1
  Si  Si150  1  0.48095076  0.91733361  0.88941799  1
  Si  Si151  1  0.97363266  0.83690371  0.88460054  1
  Si  Si152  1  0.86419614  0.57464388  0.61291159  1
  Si  Si153  1  0.69577871  0.16752349  0.61433012  1
  Si  Si154  1  0.19137274  0.57806432  0.11432338  1
  Si  Si155  1  0.47216002  0.41911737  0.38588011  1
  Si  Si156  1  0.81452777  0.58864273  0.88712586  1
  Si  Si157  1  0.64216899  0.34292263  0.38489102  1
  Si  Si158  1  0.19255089  0.08743704  0.11752403  1
  Si  Si159  1  0.79665971  0.08128915  0.88630167  1
  Si  Si160  1  0.53042339  0.91657848  0.11496676  1
  Si  Si161  1  0.35395266  0.16839183  0.61278034  1
  Si  Si162  1  0.47466513  0.91136200  0.38691678  1
  Si  Si163  1  0.30392780  0.17377250  0.89142959  1
  Si  Si164  1  0.48040263  0.57642623  0.88312077  1
  Si  Si165  1  0.52415295  0.90697996  0.61251927  1
  Si  Si166  1  0.02160721  0.33508299  0.11587345  1
  Si  Si167  1  0.64343046  0.66507987  0.88394856  1
  Si  Si168  1  0.02783209  0.83049744  0.11446279  1
  Si  Si169  1  0.85992633  0.42228798  0.11367619  1
  Si  Si170  1  0.31697675  0.65778505  0.88775969  1
  Si  Si171  1  0.85836813  0.08803124  0.61804676  1
  Si  Si172  1  0.02862752  0.66612737  0.11459647  1
  Si  Si173  1  0.98309069  0.33116781  0.89227174  1
  Si  Si174  1  0.52213565  0.58411933  0.11283386  1
  Si  Si175  1  0.30754857  0.67280651  0.38720853  1
  Si  Si176  1  0.68997689  0.66461253  0.11308478  1
  Si  Si177  1  0.02589593  0.17018017  0.11330956  1
  Si  Si178  1  0.31309018  0.32955998  0.38642707  1
  Si  Si179  1  0.52237888  0.41343015  0.61041847  1
  Si  Si180  1  0.18631413  0.92409567  0.11254256  1
  Si  Si181  1  0.14221887  0.92287857  0.38623959  1
  Si  Si182  1  0.85686221  0.41109003  0.61651783  1
  Si  Si183  1  0.46952689  0.58463747  0.38443272  1
  Si  Si184  1  0.35417895  0.66420884  0.11202439  1
  Si  Si185  1  0.35802125  0.33206675  0.11477033  1
  Si  Si186  1  0.85971412  0.58808718  0.11370107  1
  Si  Si187  1  0.14405896  0.91031732  0.88964965  1
  Si  Si188  1  0.64106250  0.33294259  0.88531143  1
  Si  Si189  1  0.30543110  0.83808938  0.38367395  1
  Si  Si190  1  0.31084235  0.16512224  0.38839094  1
  Si  Si191  1  0.64408326  0.17781184  0.38927795  1
  O  O192  1  0.27157430  0.12299913  0.08588634  1
  O  O193  1  0.26717482  0.12280178  0.58436875  1
  O  O194  1  0.27042208  0.61285689  0.08384165  1
  O  O195  1  0.29776651  0.60818205  0.58100148  1
  O  O196  1  0.58965521  0.12542629  0.07553259  1
  O  O197  1  0.62255648  0.11427169  0.57926548  1
  O  O198  1  0.60319711  0.61745042  0.08342503  1
  O  O199  1  0.62460656  0.61883466  0.57476287  1
  O  O200  1  0.95209585  0.12237376  0.07043380  1
  O  O201  1  0.94293771  0.11323168  0.58883515  1
  O  O202  1  0.93492428  0.63101935  0.08398247  1
  O  O203  1  0.94490521  0.59101691  0.57969075  1
  O  O204  1  0.10161440  0.37413802  0.08665675  1
  O  O205  1  0.10484642  0.35777111  0.58652233  1
  O  O206  1  0.09777810  0.87863184  0.08410095  1
  O  O207  1  0.12186020  0.86824558  0.57910702  1
  O  O208  1  0.43461045  0.37333619  0.08402113  1
  O  O209  1  0.43863346  0.36149979  0.58537882  1
  O  O210  1  0.44809169  0.87335931  0.07713410  1
  O  O211  1  0.44426065  0.85178397  0.58727135  1
  O  O212  1  0.76646558  0.38875546  0.08424493  1
  O  O213  1  0.77221437  0.36290697  0.58526312  1
  O  O214  1  0.77214608  0.85744814  0.07942880  1
  O  O215  1  0.77137160  0.87548064  0.58601146  1
  O  O216  1  0.26875701  0.37435621  0.08568942  1
  O  O217  1  0.27091958  0.38013610  0.58463008  1
  O  O218  1  0.25828727  0.89019192  0.07526825  1
  O  O219  1  0.28594937  0.89222800  0.58968366  1
  O  O220  1  0.60244872  0.38982496  0.08426823  1
  O  O221  1  0.60491194  0.37763621  0.58337906  1
  O  O222  1  0.61092728  0.87945864  0.08554017  1
  O  O223  1  0.60522023  0.86968820  0.58507772  1
  O  O224  1  0.93469305  0.38108370  0.08288649  1
  O  O225  1  0.93725053  0.37566172  0.58651682  1
  O  O226  1  0.93409899  0.85857937  0.07835828  1
  O  O227  1  0.93572549  0.90978086  0.58206450  1
  O  O228  1  0.11527392  0.14276034  0.09068355  1
  O  O229  1  0.10495575  0.13036960  0.58705027  1
  O  O230  1  0.10148992  0.61930294  0.08508837  1
  O  O231  1  0.11813234  0.65203617  0.56875775  1
  O  O232  1  0.43195259  0.12288633  0.08531214  1
  O  O233  1  0.43087427  0.13807941  0.57992869  1
  O  O234  1  0.43533471  0.62745875  0.08310159  1
  O  O235  1  0.44977941  0.65972541  0.58295962  1
  O  O236  1  0.76798514  0.12764414  0.06250538  1
  O  O237  1  0.78589327  0.14777389  0.58974170  1
  O  O238  1  0.76891197  0.62699380  0.08158402  1
  O  O239  1  0.78698983  0.63135316  0.58483849  1
  O  O240  1  0.06226930  0.12416745  0.41529271  1
  O  O241  1  0.04820267  0.09161550  0.93072937  1
  O  O242  1  0.03718079  0.59984350  0.41558555  1
  O  O243  1  0.06532093  0.62547166  0.91480938  1
  O  O244  1  0.38746724  0.11620117  0.42654556  1
  O  O245  1  0.37948181  0.12120044  0.92595078  1
  O  O246  1  0.39659792  0.62778406  0.41467198  1
  O  O247  1  0.39684927  0.60055182  0.91361116  1
  O  O248  1  0.73798330  0.14553748  0.41982597  1
  O  O249  1  0.70800917  0.10684054  0.90925654  1
  O  O250  1  0.72010163  0.61053801  0.41284487  1
  O  O251  1  0.73183166  0.62406041  0.91469623  1
  O  O252  1  0.22994994  0.36179962  0.41283707  1
  O  O253  1  0.23245328  0.37690393  0.91637232  1
  O  O254  1  0.22865302  0.87485986  0.41511157  1
  O  O255  1  0.20736840  0.84466868  0.91717515  1
  O  O256  1  0.56603903  0.38482048  0.41453385  1
  O  O257  1  0.55072624  0.35449498  0.91041036  1
  O  O258  1  0.54269546  0.84714246  0.41398704  1
  O  O259  1  0.56146133  0.86055420  0.91383382  1
  O  O260  1  0.89651760  0.37292626  0.41617752  1
  O  O261  1  0.90756488  0.36415088  0.92728000  1
  O  O262  1  0.89034190  0.87077331  0.43243593  1
  O  O263  1  0.89049996  0.86752481  0.91358474  1
  O  O264  1  0.06423871  0.37305824  0.41704222  1
  O  O265  1  0.06667059  0.38511652  0.91612059  1
  O  O266  1  0.06914397  0.89143788  0.42270419  1
  O  O267  1  0.05214792  0.88945361  0.91395553  1
  O  O268  1  0.39939825  0.37643173  0.41791467  1
  O  O269  1  0.39215203  0.39077638  0.91195114  1
  O  O270  1  0.38814644  0.88675393  0.41458519  1
  O  O271  1  0.40143143  0.88909145  0.92114155  1
  O  O272  1  0.73003707  0.38699548  0.41351579  1
  O  O273  1  0.71034510  0.38968202  0.92056735  1
  O  O274  1  0.70526523  0.87426501  0.42735938  1
  O  O275  1  0.72813428  0.87440396  0.91356669  1
  O  O276  1  0.22256258  0.13728073  0.41153942  1
  O  O277  1  0.21878045  0.15680470  0.92019698  1
  O  O278  1  0.23406740  0.64030463  0.42249001  1
  O  O279  1  0.23381595  0.62407868  0.91579004  1
  O  O280  1  0.57316763  0.14055499  0.42482155  1
  O  O281  1  0.55590744  0.15606510  0.91678530  1
  O  O282  1  0.55991622  0.62181619  0.41548842  1
  O  O283  1  0.56458323  0.62581127  0.91218447  1
  O  O284  1  0.89954152  0.13099466  0.41971086  1
  O  O285  1  0.86876228  0.13521219  0.92022961  1
  O  O286  1  0.88009907  0.63855358  0.41204272  1
  O  O287  1  0.89695490  0.64133110  0.91413888  1
  O  O288  1  0.16876032  0.00764688  0.08427880  1
  O  O289  1  0.18171436  0.00263951  0.58662647  1
  O  O290  1  0.18178848  0.49619362  0.08253484  1
  O  O291  1  0.16363232  0.48897728  0.57841494  1
  O  O292  1  0.51900722  0.00006437  0.08661621  1
  O  O293  1  0.50197012  -0.01627687  0.57746195  1
  O  O294  1  0.50489407  0.50160516  0.08382495  1
  O  O295  1  0.50311977  0.49070038  0.57513629  1
  O  O296  1  0.85084219  -0.01833592  0.07202626  1
  O  O297  1  0.82391081  0.00934875  0.58980055  1
  O  O298  1  0.85654036  0.50550980  0.08422160  1
  O  O299  1  0.83303857  0.49218014  0.58684715  1
  O  O300  1  0.01394981  0.25462915  0.08365402  1
  O  O301  1  0.00464842  0.24579814  0.58607452  1
  O  O302  1  0.03258091  0.74724973  0.08404447  1
  O  O303  1  -0.02766464  0.75467346  0.57554255  1
  O  O304  1  0.35257981  0.24952363  0.08563296  1
  O  O305  1  0.33416422  0.25129886  0.58473123  1
  O  O306  1  0.33622155  0.74115634  0.07734756  1
  O  O307  1  0.32610312  0.75227677  0.58914490  1
  O  O308  1  0.67849160  0.26679386  0.07424880  1
  O  O309  1  0.67315300  0.24975970  0.58535592  1
  O  O310  1  0.67410552  0.74580419  0.08203748  1
  O  O311  1  0.69492074  0.74968071  0.58476707  1
  O  O312  1  0.16226085  0.00610425  0.41651624  1
  O  O313  1  0.18203463  -0.01518622  0.92310490  1
  O  O314  1  0.16647210  0.48753085  0.42802828  1
  O  O315  1  0.15349254  0.50249858  0.91658386  1
  O  O316  1  0.50598278  -0.01354969  0.42304420  1
  O  O317  1  0.51290813  -0.00532967  0.92048764  1
  O  O318  1  0.47306614  0.50188726  0.41376561  1
  O  O319  1  0.50515069  0.49420025  0.91097651  1
  O  O320  1  0.80540693  0.01545915  0.42437808  1
  O  O321  1  0.81430551  -0.00308838  0.91252384  1
  O  O322  1  0.82585383  0.50194901  0.41326145  1
  O  O323  1  0.83320494  0.51289060  0.92463478  1
  O  O324  1  0.32644362  0.24875681  0.41857419  1
  O  O325  1  0.33122436  0.25875353  0.91497391  1
  O  O326  1  0.32490386  0.75611705  0.41402086  1
  O  O327  1  0.34478501  0.73298997  0.92336616  1
  O  O328  1  0.65128817  0.26293130  0.41681634  1
  O  O329  1  0.67225670  0.25149450  0.90997144  1
  O  O330  1  0.64991584  0.74059267  0.41634395  1
  O  O331  1  0.65523374  0.74707042  0.91357615  1
  O  O332  1  0.98169912  0.25092913  0.41508735  1
  O  O333  1  1.01140628  0.25370567  0.92484906  1
  O  O334  1  0.99886118  0.73899031  0.41966109  1
  O  O335  1  0.99333134  0.75440957  0.91372414  1
  O  O336  1  0.21692840  0.08009839  0.19636052  1
  O  O337  1  0.21126911  0.08529519  0.69646622  1
  O  O338  1  0.21045866  0.58049748  0.19425559  1
  O  O339  1  0.21270642  0.58211798  0.70018910  1
  O  O340  1  0.54347432  0.08726017  0.19401407  1
  O  O341  1  0.54551665  0.08143374  0.70006611  1
  O  O342  1  0.54068363  0.58303188  0.19318282  1
  O  O343  1  0.54889497  0.58223027  0.69923754  1
  O  O344  1  0.87871665  0.08934888  0.19415159  1
  O  O345  1  0.87658862  0.08462585  0.69829504  1
  O  O346  1  0.87602426  0.58547100  0.19375730  1
  O  O347  1  0.87833896  0.57946998  0.69414243  1
  O  O348  1  0.03366218  0.33796891  0.19404618  1
  O  O349  1  0.04266031  0.32831508  0.69653408  1
  O  O350  1  0.04285949  0.83077616  0.19362935  1
  O  O351  1  0.04607610  0.83490911  0.70148878  1
  O  O352  1  0.38022665  0.33615089  0.19468594  1
  O  O353  1  0.37483515  0.33331529  0.69443399  1
  O  O354  1  0.37711133  0.83322589  0.20124676  1
  O  O355  1  0.38008835  0.83260358  0.69728599  1
  O  O356  1  0.70753938  0.33996113  0.19205205  1
  O  O357  1  0.70775024  0.33241029  0.69464207  1
  O  O358  1  0.71422405  0.82674865  0.19272749  1
  O  O359  1  0.71186912  0.83189963  0.69444721  1
  O  O360  1  0.21331672  0.42161995  0.19499454  1
  O  O361  1  0.20839432  0.41317954  0.69303631  1
  O  O362  1  0.20954753  0.92147717  0.19234713  1
  O  O363  1  0.21116631  0.91903024  0.69528972  1
  O  O364  1  0.53982236  0.41916894  0.19406700  1
  O  O365  1  0.54311851  0.41502116  0.69164608  1
  O  O366  1  0.54099798  0.91564569  0.19469016  1
  O  O367  1  0.54397354  0.91186134  0.69372916  1
  O  O368  1  0.87520433  0.42100307  0.19379479  1
  O  O369  1  0.87526920  0.41283373  0.69592918  1
  O  O370  1  0.87999244  0.90573690  0.18775981  1
  O  O371  1  0.87311087  0.91955873  0.69526144  1
  O  O372  1  0.03323791  0.16805628  0.19174888  1
  O  O373  1  0.04425683  0.16716352  0.69698112  1
  O  O374  1  0.04270174  0.66537323  0.19425250  1
  O  O375  1  0.04490778  0.66487033  0.69904019  1
  O  O376  1  0.37979472  0.16862314  0.19549278  1
  O  O377  1  0.37194704  0.16848882  0.69372316  1
  O  O378  1  0.37406303  0.66293202  0.19272912  1
  O  O379  1  0.37951507  0.66712641  0.69429436  1
  O  O380  1  0.71002896  0.17051589  0.20067761  1
  O  O381  1  0.71074555  0.16706655  0.69535113  1
  O  O382  1  0.71134729  0.66015967  0.19210861  1
  O  O383  1  0.71512792  0.66525009  0.69233141  1
  O  O384  1  0.11859450  0.07982482  0.30447748  1
  O  O385  1  0.12355664  0.08187986  0.80206002  1
  O  O386  1  0.12374798  0.58286349  0.29889419  1
  O  O387  1  0.12481685  0.58261306  0.80627485  1
  O  O388  1  0.45754178  0.08362997  0.29983458  1
  O  O389  1  0.45238235  0.08427284  0.79918512  1
  O  O390  1  0.45367940  0.58321482  0.30392562  1
  O  O391  1  0.45958471  0.58019236  0.80303492  1
  O  O392  1  0.78584802  0.09481631  0.31005860  1
  O  O393  1  0.78553812  0.08139526  0.80495789  1
  O  O394  1  0.78650452  0.58191955  0.30316457  1
  O  O395  1  0.79355203  0.58564420  0.80617298  1
  O  O396  1  0.30354333  0.33217134  0.30734381  1
  O  O397  1  0.29002837  0.33632566  0.80454900  1
  O  O398  1  0.28855282  0.83467186  0.30416587  1
  O  O399  1  0.29064214  0.83100578  0.79902294  1
  O  O400  1  0.62296003  0.34077298  0.30445594  1
  O  O401  1  0.62244689  0.33468206  0.80388629  1
  O  O402  1  0.61532318  0.82644118  0.30792841  1
  O  O403  1  0.62583782  0.83041589  0.80372144  1
  O  O404  1  0.95085602  0.34036903  0.30594472  1
  O  O405  1  0.95849799  0.33055683  0.81158528  1
  O  O406  1  0.95394430  0.83319197  0.29858620  1
  O  O407  1  0.95385953  0.83420367  0.80438663  1
  O  O408  1  0.12056810  0.42292878  0.30979116  1
  O  O409  1  0.13056466  0.41856276  0.80567220  1
  O  O410  1  0.12319022  0.92096588  0.30627577  1
  O  O411  1  0.12469406  0.91537735  0.80807557  1
  O  O412  1  0.45649990  0.41814692  0.30536484  1
  O  O413  1  0.45753614  0.41539265  0.80166529  1
  O  O414  1  0.45705371  0.91622208  0.30645311  1
  O  O415  1  0.46112174  0.91557976  0.80733094  1
  O  O416  1  0.79029639  0.41971406  0.30387305  1
  O  O417  1  0.78978407  0.41706872  0.80058036  1
  O  O418  1  0.78206243  0.90776887  0.30359665  1
  O  O419  1  0.78824090  0.91412122  0.80385240  1
  O  O420  1  0.30334015  0.16773057  0.30910396  1
  O  O421  1  0.29064319  0.16987517  0.80933749  1
  O  O422  1  0.29021151  0.66740190  0.30622475  1
  O  O423  1  0.29670466  0.66239609  0.80719451  1
  O  O424  1  0.62255018  0.17551281  0.30883536  1
  O  O425  1  0.62203235  0.16940454  0.80319143  1
  O  O426  1  0.61665868  0.65920099  0.30447028  1
  O  O427  1  0.62699382  0.66580162  0.80370544  1
  O  O428  1  0.95142398  0.16561264  0.30567940  1
  O  O429  1  0.95516433  0.16572197  0.80234188  1
  O  O430  1  0.95364202  0.66396231  0.30524396  1
  O  O431  1  0.95857684  0.66833287  0.80438797  1
  F  F432  1  0.04519352  -0.00106878  0.19848433  1
  F  F433  1  0.04442167  -0.00001997  0.70373532  1
  F  F434  1  0.04285923  0.49908439  0.20075223  1
  F  F435  1  0.04692631  0.49893713  0.70203691  1
  F  F436  1  0.37965372  -0.00121292  0.20205496  1
  F  F437  1  0.37724039  -0.00265805  0.70263033  1
  F  F438  1  0.37765251  0.49973237  0.20197986  1
  F  F439  1  0.37995818  0.49780235  0.70026963  1
  F  F440  1  0.69630575  0.00516043  0.19288308  1
  F  F441  1  0.71138585  -0.00116698  0.70197768  1
  F  F442  1  0.70979398  0.50142020  0.20000162  1
  F  F443  1  0.71413349  0.50055260  0.70126659  1
  F  F444  1  0.22771717  0.25406651  0.19117725  1
  F  F445  1  0.21102530  0.24958869  0.70484963  1
  F  F446  1  0.21319570  0.74063663  0.19781965  1
  F  F447  1  0.21370595  0.74724129  0.70275222  1
  F  F448  1  0.54608177  0.25438157  0.20218933  1
  F  F449  1  0.54426851  0.25028074  0.70016688  1
  F  F450  1  0.53603139  0.74796867  0.19674372  1
  F  F451  1  0.54871228  0.74962485  0.70233812  1
  F  F452  1  0.86641773  0.25366382  0.19855060  1
  F  F453  1  0.87791940  0.25182082  0.70418376  1
  F  F454  1  0.87960112  0.74408450  0.19913090  1
  F  F455  1  0.87841527  0.74997637  0.70222084  1
  F  F456  1  0.28908480  -0.00041018  0.29922289  1
  F  F457  1  0.28915757  0.00011496  0.79841052  1
  F  F458  1  0.29025606  0.49981806  0.29934038  1
  F  F459  1  0.29119200  0.49714012  0.79716743  1
  F  F460  1  0.61894026  0.00974361  0.30182019  1
  F  F461  1  0.62315312  -0.00476817  0.79751073  1
  F  F462  1  0.61968015  0.50051958  0.29599650  1
  F  F463  1  0.62350198  0.49826729  0.79765034  1
  F  F464  1  0.96442044  -0.00003460  0.29876263  1
  F  F465  1  0.95254949  -0.00244448  0.79855088  1
  F  F466  1  0.95182879  0.50092664  0.29634863  1
  F  F467  1  0.95575787  0.50540479  0.80088520  1
  F  F468  1  0.10765741  0.25226184  0.31891517  1
  F  F469  1  0.12315738  0.25199914  0.80010745  1
  F  F470  1  0.11957439  0.74573781  0.29934733  1
  F  F471  1  0.12443504  0.74692087  0.79944686  1
  F  F472  1  0.45846990  0.25307778  0.29784002  1
  F  F473  1  0.45388539  0.25146140  0.79487462  1
  F  F474  1  0.45064597  0.74459930  0.29832066  1
  F  F475  1  0.45941402  0.74666944  0.79774063  1
  F  F476  1  0.78563093  0.26083107  0.30090982  1
  F  F477  1  0.78644368  0.25076901  0.79809831  1
  F  F478  1  0.79065698  0.74629743  0.29929732  1
  F  F479  1  0.78938902  0.74865062  0.79665511  1
