# generated using pymatgen
data_K24Na3Li5Mg64Fe17Si79(O5F)48
_symmetry_space_group_name_H-M   'P 1'
_cell_length_a   16.08395915
_cell_length_b   18.57125807
_cell_length_c   20.53804793
_cell_angle_alpha   90.00591375
_cell_angle_beta   100.00928498
_cell_angle_gamma   89.98680179
_symmetry_Int_Tables_number   1
_chemical_formula_structural   K24Na3Li5Mg64Fe17Si79(O5F)48
_chemical_formula_sum   'K24 Na3 Li5 Mg64 Fe17 Si79 O240 F48'
_cell_volume   6041.32890280
_cell_formula_units_Z   1
loop_
 _symmetry_equiv_pos_site_id
 _symmetry_equiv_pos_as_xyz
  1  'x, y, z'
loop_
 _atom_site_type_symbol
 _atom_site_label
 _atom_site_symmetry_multiplicity
 _atom_site_fract_x
 _atom_site_fract_y
 _atom_site_fract_z
 _atom_site_occupancy
  K  K0  1  0.00756226  0.00309861  0.00333960  1
  K  K1  1  -0.00882119  0.00388465  0.49600046  1
  K  K2  1  -0.00275634  0.50440395  0.00333452  1
  K  K3  1  -0.00509093  0.50006637  0.49356732  1
  K  K4  1  0.32913995  -0.00058841  -0.00122899  1
  K  K5  1  0.34091679  -0.00787230  0.50417863  1
  K  K6  1  0.34055940  0.51283492  -0.00090925  1
  K  K7  1  0.33170952  0.50058006  0.50265779  1
  K  K8  1  0.65886641  0.00615183  -0.00206008  1
  K  K9  1  0.67456218  0.00527070  0.50702001  1
  K  K10  1  0.66681129  0.49761512  -0.00078184  1
  K  K11  1  0.66905045  0.50324549  0.50552020  1
  K  K12  1  0.15942345  0.24825779  -0.00228284  1
  K  K13  1  0.16606431  0.24728574  0.49645004  1
  K  K14  1  0.17429703  0.75431346  0.00308249  1
  K  K15  1  0.17074186  0.75414395  0.49810963  1
  K  K16  1  0.51337183  0.24512751  -0.00644475  1
  K  K17  1  0.50855545  0.24998292  0.51286508  1
  K  K18  1  0.48901423  0.74863574  -0.00364055  1
  K  K19  1  0.49843257  0.74748462  0.50717174  1
  K  K20  1  0.83076727  0.24280602  -0.00364313  1
  K  K21  1  0.84226990  0.24105273  0.50473394  1
  K  K22  1  0.83585382  0.75111357  0.00159392  1
  K  K23  1  0.82513960  0.74923828  0.49797737  1
  Na  Na24  1  0.67207640  0.25155536  0.75037631  1
  Na  Na25  1  0.00294059  0.91993086  0.25136342  1
  Na  Na26  1  0.33047171  0.91928489  0.74518618  1
  Li  Li27  1  0.16406083  0.50298782  0.25093775  1
  Li  Li28  1  0.49656965  -0.00267331  0.24339324  1
  Li  Li29  1  0.00072048  0.08788716  0.74379006  1
  Li  Li30  1  0.49764966  0.66909965  0.74687728  1
  Li  Li31  1  0.83034805  0.32689597  0.75036946  1
  Mg  Mg32  1  0.66746518  0.24748215  0.24811624  1
  Mg  Mg33  1  0.50012404  0.50046529  0.24878665  1
  Mg  Mg34  1  0.50117411  0.00235062  0.74845124  1
  Mg  Mg35  1  0.33247017  0.25289600  0.24895009  1
  Mg  Mg36  1  0.16857842  0.00011354  0.24951676  1
  Mg  Mg37  1  0.16827261  0.49934516  0.75480425  1
  Mg  Mg38  1  0.83351286  -0.00116704  0.25019767  1
  Mg  Mg39  1  -0.00000461  0.24971547  0.24998249  1
  Mg  Mg40  1  0.33658428  0.74989144  0.75162909  1
  Mg  Mg41  1  -0.00285236  0.24817532  0.74852396  1
  Mg  Mg42  1  0.83366513  0.50092997  0.25254053  1
  Mg  Mg43  1  0.00126469  0.75293214  0.25246218  1
  Mg  Mg44  1  0.33496356  0.24865705  0.74863834  1
  Mg  Mg45  1  0.83876091  0.00084780  0.75147588  1
  Mg  Mg46  1  0.00107567  0.74799178  0.75057741  1
  Mg  Mg47  1  0.33316750  0.74835165  0.24876210  1
  Mg  Mg48  1  0.50170788  0.50150393  0.74898202  1
  Mg  Mg49  1  0.66362818  0.75158335  0.25064348  1
  Mg  Mg50  1  0.66504196  0.74805909  0.74807892  1
  Mg  Mg51  1  0.16394646  0.00303916  0.74616803  1
  Mg  Mg52  1  0.83170080  0.49715864  0.74946444  1
  Mg  Mg53  1  0.33127154  0.08380407  0.74896505  1
  Mg  Mg54  1  0.33413331  0.08482796  0.24541095  1
  Mg  Mg55  1  0.33069245  0.41920124  0.24931729  1
  Mg  Mg56  1  0.83786931  0.16628146  0.75068476  1
  Mg  Mg57  1  0.66117159  0.58607254  0.74613385  1
  Mg  Mg58  1  -0.00019975  0.91794240  0.74854916  1
  Mg  Mg59  1  0.16821617  0.83451160  0.74931724  1
  Mg  Mg60  1  0.16405923  0.33765597  0.24870937  1
  Mg  Mg61  1  0.83054498  0.66458833  0.74841321  1
  Mg  Mg62  1  0.66626831  0.91555192  0.74815080  1
  Mg  Mg63  1  0.49843558  0.16483985  0.24711025  1
  Mg  Mg64  1  0.67037412  0.08565881  0.74922234  1
  Mg  Mg65  1  0.83318723  0.66597332  0.25400061  1
  Mg  Mg66  1  -0.00315122  0.41390301  0.75221670  1
  Mg  Mg67  1  -0.00019395  0.41876206  0.24981457  1
  Mg  Mg68  1  0.50059105  0.33393102  0.24850007  1
  Mg  Mg69  1  0.83530182  0.16335993  0.24960155  1
  Mg  Mg70  1  0.83316925  0.83289338  0.74759238  1
  Mg  Mg71  1  0.00002774  0.58180832  0.75246730  1
  Mg  Mg72  1  0.16420110  0.16482058  0.74619165  1
  Mg  Mg73  1  0.49770728  0.83207251  0.74793590  1
  Mg  Mg74  1  0.66161513  0.91760265  0.24836248  1
  Mg  Mg75  1  0.66936760  0.41468531  0.25047095  1
  Mg  Mg76  1  0.49633500  0.83744155  0.24515005  1
  Mg  Mg77  1  0.66755508  0.58457234  0.25194148  1
  Mg  Mg78  1  0.33401719  0.91794541  0.24643538  1
  Mg  Mg79  1  0.17042876  0.66548581  0.75407854  1
  Mg  Mg80  1  0.83609456  0.33438075  0.25170716  1
  Mg  Mg81  1  0.66187760  0.08036261  0.24866764  1
  Mg  Mg82  1  0.16954066  0.83572916  0.25007071  1
  Mg  Mg83  1  0.00298981  0.08569179  0.25179157  1
  Mg  Mg84  1  0.33801915  0.58641777  0.75336948  1
  Mg  Mg85  1  0.00148331  0.58479827  0.25343273  1
  Mg  Mg86  1  0.32897945  0.58371141  0.24993450  1
  Mg  Mg87  1  0.16539203  0.16716227  0.24877775  1
  Mg  Mg88  1  0.50238915  0.33409212  0.75064760  1
  Mg  Mg89  1  0.49728456  0.66564108  0.25043740  1
  Mg  Mg90  1  0.33469557  0.41561264  0.75114232  1
  Mg  Mg91  1  0.16758717  0.66471920  0.25097024  1
  Mg  Mg92  1  0.16602230  0.33299195  0.75170683  1
  Mg  Mg93  1  0.50097007  0.16678286  0.74952801  1
  Mg  Mg94  1  0.83319232  0.83361433  0.25097317  1
  Mg  Mg95  1  0.66743383  0.41544133  0.74993167  1
  Fe  Fe96  1  0.85687570  0.42203158  0.11166647  1
  Fe  Fe97  1  0.31173051  0.66285527  0.39123176  1
  Fe  Fe98  1  0.69038037  0.66605804  0.60800621  1
  Fe  Fe99  1  0.19203170  0.92079747  0.10753779  1
  Fe  Fe100  1  0.64525111  0.16570906  0.89148170  1
  Fe  Fe101  1  0.35494834  0.66026008  0.10987025  1
  Fe  Fe102  1  0.15064656  0.91562682  0.39276320  1
  Fe  Fe103  1  0.97558044  0.16193902  0.39079845  1
  Fe  Fe104  1  0.18593381  0.07984436  0.60515962  1
  Fe  Fe105  1  0.30862160  0.66920213  0.89312661  1
  Fe  Fe106  1  0.86659098  0.08235128  0.61208142  1
  Fe  Fe107  1  0.35547382  0.16214712  0.61004964  1
  Fe  Fe108  1  0.02010736  0.16866978  0.10944078  1
  Fe  Fe109  1  0.80366286  0.58450229  0.39268915  1
  Fe  Fe110  1  0.52341639  0.91863756  0.10717224  1
  Fe  Fe111  1  0.35553547  0.83390153  0.60755103  1
  Fe  Fe112  1  0.52443073  0.41260936  0.60979240  1
  Si  Si113  1  0.30850154  0.33211002  0.88772645  1
  Si  Si114  1  0.70038221  0.16667490  0.61251768  1
  Si  Si115  1  0.69160890  0.32809620  0.11284002  1
  Si  Si116  1  0.63117303  0.66945421  0.38795082  1
  Si  Si117  1  0.53161880  0.08753970  0.61199393  1
  Si  Si118  1  0.30563122  0.16588587  0.88617048  1
  Si  Si119  1  0.13978652  0.92088580  0.88398612  1
  Si  Si120  1  0.81374507  0.07728356  0.88925970  1
  Si  Si121  1  0.02565255  0.82969694  0.11207264  1
  Si  Si122  1  0.15228778  0.08340463  0.38896222  1
  Si  Si123  1  0.52782047  0.41436626  0.11418532  1
  Si  Si124  1  0.97784342  0.83160630  0.88447645  1
  Si  Si125  1  0.80794289  0.41238060  0.38976817  1
  Si  Si126  1  0.85456802  0.07511564  0.11105337  1
  Si  Si127  1  0.97419160  0.66973625  0.39033144  1
  Si  Si128  1  0.02364476  0.82402090  0.61519009  1
  Si  Si129  1  0.51854399  0.58082488  0.61029545  1
  Si  Si130  1  0.03067813  0.17571737  0.61056200  1
  Si  Si131  1  0.69222244  0.67118875  0.11649391  1
  Si  Si132  1  0.80286475  0.91184417  0.38491823  1
  Si  Si133  1  0.80088226  0.07863888  0.38553725  1
  Si  Si134  1  0.97454099  0.16682485  0.88499507  1
  Si  Si135  1  0.80896305  0.42098586  0.88632955  1
  Si  Si136  1  0.02342574  0.33785451  0.11139774  1
  Si  Si137  1  0.69138346  0.83540586  0.61251948  1
  Si  Si138  1  0.69222888  0.83415645  0.11252467  1
  Si  Si139  1  0.35676911  0.33959478  0.11316233  1
  Si  Si140  1  0.47464172  0.41609601  0.88823986  1
  Si  Si141  1  0.81059242  0.91139431  0.88502893  1
  Si  Si142  1  0.86074553  0.91113006  0.61195596  1
  Si  Si143  1  0.35803653  0.83121952  0.10832142  1
  Si  Si144  1  0.63395004  0.83578159  0.38451261  1
  Si  Si145  1  0.02564426  0.33804292  0.61590407  1
  Si  Si146  1  0.97874526  0.33329823  0.38867248  1
  Si  Si147  1  0.97477785  0.66607450  0.88623874  1
  Si  Si148  1  0.31826056  0.82967164  0.38746863  1
  Si  Si149  1  0.52989353  0.92113816  0.61171094  1
  Si  Si150  1  0.86177356  0.41746222  0.61594743  1
  Si  Si151  1  0.53320514  0.58108545  0.11295855  1
  Si  Si152  1  0.13864196  0.08675923  0.88353674  1
  Si  Si153  1  0.19099977  0.41826709  0.61746205  1
  Si  Si154  1  0.64333682  0.66569953  0.88515363  1
  Si  Si155  1  0.13772113  0.58617032  0.38913391  1
  Si  Si156  1  0.64387451  0.33928411  0.89040820  1
  Si  Si157  1  0.47989960  0.41379075  0.38379705  1
  Si  Si158  1  0.18484652  0.57722027  0.11344900  1
  Si  Si159  1  0.47909223  0.58145206  0.88803981  1
  Si  Si160  1  0.52085975  0.08824482  0.11120871  1
  Si  Si161  1  0.18951170  0.41401583  0.11499704  1
  Si  Si162  1  0.63669857  0.16272240  0.38315363  1
  Si  Si163  1  0.19361315  0.58097082  0.61819245  1
  Si  Si164  1  0.17705104  0.91481720  0.61000024  1
  Si  Si165  1  0.69865812  0.33588578  0.61280731  1
  Si  Si166  1  0.80962204  0.58545049  0.88650494  1
  Si  Si167  1  0.97145795  0.33115066  0.88588108  1
  Si  Si168  1  0.35468585  0.66488011  0.61393246  1
  Si  Si169  1  0.47284858  0.08251796  0.88897474  1
  Si  Si170  1  0.19515081  0.09276133  0.10907474  1
  Si  Si171  1  0.69163517  0.16160905  0.11470173  1
  Si  Si172  1  0.30986969  0.33896476  0.38482609  1
  Si  Si173  1  0.47476229  0.57566111  0.38631668  1
  Si  Si174  1  0.14114448  0.41950234  0.38465635  1
  Si  Si175  1  0.13812860  0.57819618  0.89080768  1
  Si  Si176  1  0.47790449  0.91691489  0.88387869  1
  Si  Si177  1  0.02311874  0.66566502  0.11532462  1
  Si  Si178  1  0.64253910  0.32710465  0.38459084  1
  Si  Si179  1  0.86370142  0.58124018  0.61428465  1
  Si  Si180  1  0.30848334  0.17370657  0.38376613  1
  Si  Si181  1  0.47154743  0.92263889  0.38173890  1
  Si  Si182  1  0.36113440  0.17474926  0.11216703  1
  Si  Si183  1  0.02944221  0.66023408  0.61802805  1
  Si  Si184  1  0.35096658  0.33168123  0.61283237  1
  Si  Si185  1  0.64180305  0.83202383  0.88552458  1
  Si  Si186  1  0.85674003  0.91042643  0.11538560  1
  Si  Si187  1  0.85478125  0.58992194  0.11492429  1
  Si  Si188  1  0.13906702  0.41157389  0.88869587  1
  Si  Si189  1  0.97269845  0.83431765  0.38839066  1
  Si  Si190  1  0.46894877  0.08780103  0.38215015  1
  Si  Si191  1  0.30650944  0.83746775  0.88756648  1
  O  O192  1  0.28227435  0.12290286  0.08213605  1
  O  O193  1  0.28093569  0.09486070  0.56839935  1
  O  O194  1  0.26236223  0.59976244  0.07715683  1
  O  O195  1  0.27678116  0.60520506  0.58856745  1
  O  O196  1  0.60567698  0.11791827  0.08349462  1
  O  O197  1  0.61532440  0.11800258  0.58369293  1
  O  O198  1  0.61812097  0.61303784  0.08678070  1
  O  O199  1  0.59790129  0.60758470  0.57596362  1
  O  O200  1  0.93016315  0.10456599  0.07589217  1
  O  O201  1  0.95579613  0.12239906  0.57633815  1
  O  O202  1  0.93781253  0.61894144  0.08514367  1
  O  O203  1  0.95434923  0.60266050  0.59023584  1
  O  O204  1  0.11512255  0.35624295  0.08623889  1
  O  O205  1  0.10947135  0.36759520  0.58753175  1
  O  O206  1  0.09728386  0.86169431  0.07379711  1
  O  O207  1  0.10489400  0.85013940  0.58438340  1
  O  O208  1  0.43691453  0.37558894  0.08460397  1
  O  O209  1  0.43063166  0.35330781  0.57800977  1
  O  O210  1  0.44461343  0.84634054  0.07855931  1
  O  O211  1  0.45236683  0.87196888  0.57601143  1
  O  O212  1  0.76418006  0.36179821  0.07736741  1
  O  O213  1  0.78525731  0.36319227  0.58385461  1
  O  O214  1  0.78145842  0.85284315  0.08559391  1
  O  O215  1  0.77777482  0.86006956  0.58532205  1
  O  O216  1  0.27399870  0.38878201  0.08362067  1
  O  O217  1  0.27394612  0.39270196  0.58818268  1
  O  O218  1  0.28837534  0.89094471  0.07559738  1
  O  O219  1  0.26093083  0.89363114  0.58002920  1
  O  O220  1  0.60028677  0.36909043  0.08481203  1
  O  O221  1  0.61960514  0.38226950  0.57304214  1
  O  O222  1  0.62379095  0.89074290  0.07626706  1
  O  O223  1  0.61890176  0.89647937  0.58703415  1
  O  O224  1  0.95809083  0.40163542  0.08170068  1
  O  O225  1  0.94764770  0.39313226  0.58699606  1
  O  O226  1  0.93915488  0.87905136  0.08696931  1
  O  O227  1  0.93951383  0.87039397  0.58447747  1
  O  O228  1  0.12141700  0.14953573  0.07876803  1
  O  O229  1  0.11528774  0.15992882  0.58026305  1
  O  O230  1  0.10021122  0.62743968  0.08462752  1
  O  O231  1  0.11384591  0.63457955  0.58921768  1
  O  O232  1  0.44649733  0.14957767  0.08480305  1
  O  O233  1  0.45596031  0.13944777  0.57809855  1
  O  O234  1  0.45150873  0.62440604  0.07730718  1
  O  O235  1  0.43844339  0.63655714  0.58562545  1
  O  O236  1  0.76809956  0.12351668  0.08413085  1
  O  O237  1  0.77221705  0.13771793  0.57250999  1
  O  O238  1  0.77937248  0.64995614  0.08952022  1
  O  O239  1  0.79170715  0.63589116  0.57967298  1
  O  O240  1  0.07036486  0.10540629  0.42126645  1
  O  O241  1  0.06648469  0.13011552  0.91629258  1
  O  O242  1  0.05358701  0.61515881  0.41824431  1
  O  O243  1  0.05541723  0.61523363  0.91653284  1
  O  O244  1  0.39166540  0.12477924  0.41373096  1
  O  O245  1  0.38965038  0.11837497  0.91602672  1
  O  O246  1  0.39332724  0.59051557  0.41961789  1
  O  O247  1  0.41105745  0.62174935  0.92472072  1
  O  O248  1  0.71474445  0.10884388  0.41145766  1
  O  O249  1  0.74367726  0.11216529  0.92735711  1
  O  O250  1  0.71254800  0.62605711  0.42530166  1
  O  O251  1  0.73358817  0.62532007  0.91717585  1
  O  O252  1  0.23010361  0.37505530  0.41405093  1
  O  O253  1  0.22966583  0.37070115  0.91745621  1
  O  O254  1  0.23727806  0.84847246  0.42183853  1
  O  O255  1  0.23192706  0.88627723  0.91469803  1
  O  O256  1  0.55912507  0.35911515  0.41154295  1
  O  O257  1  0.56280182  0.37531951  0.92088311  1
  O  O258  1  0.55970520  0.87959324  0.41323088  1
  O  O259  1  0.56612959  0.87269699  0.91625380  1
  O  O260  1  0.89584477  0.36754875  0.41598659  1
  O  O261  1  0.89652159  0.37552562  0.91502413  1
  O  O262  1  0.88532058  0.86270638  0.41530647  1
  O  O263  1  0.89686895  0.86437160  0.91431144  1
  O  O264  1  0.06226406  0.38500786  0.41622062  1
  O  O265  1  0.06388285  0.36903943  0.91825264  1
  O  O266  1  0.04721734  0.88814934  0.42024098  1
  O  O267  1  0.06410732  0.87696507  0.91369700  1
  O  O268  1  0.39589830  0.38622026  0.41280491  1
  O  O269  1  0.39606925  0.37613383  0.91798286  1
  O  O270  1  0.39352936  0.89037305  0.41388771  1
  O  O271  1  0.39776529  0.87968953  0.91102668  1
  O  O272  1  0.72809232  0.37098672  0.41601926  1
  O  O273  1  0.72922892  0.38942526  0.91825249  1
  O  O274  1  0.72374617  0.87589450  0.41496558  1
  O  O275  1  0.73279234  0.87239515  0.91543892  1
  O  O276  1  0.22593230  0.14666665  0.41229062  1
  O  O277  1  0.22767234  0.12809221  0.91639509  1
  O  O278  1  0.21587556  0.63365224  0.42636629  1
  O  O279  1  0.22196779  0.61849066  0.92599160  1
  O  O280  1  0.55426069  0.13476537  0.41279817  1
  O  O281  1  0.55367460  0.12629153  0.92757797  1
  O  O282  1  0.54853347  0.63492898  0.41390867  1
  O  O283  1  0.57191723  0.62012711  0.91604970  1
  O  O284  1  0.87919277  0.12572812  0.42199442  1
  O  O285  1  0.90474232  0.11881718  0.91576846  1
  O  O286  1  0.89670737  0.64278170  0.42525721  1
  O  O287  1  0.89446436  0.63353582  0.91664866  1
  O  O288  1  0.17229622  0.01528992  0.07421475  1
  O  O289  1  0.13620278  -0.01019254  0.57867366  1
  O  O290  1  0.15855684  0.49394562  0.08661028  1
  O  O291  1  0.16622951  0.49998222  0.58908045  1
  O  O292  1  0.49207962  0.01315855  0.07518532  1
  O  O293  1  0.51597658  0.00439072  0.58326563  1
  O  O294  1  0.52610055  0.49645163  0.08511882  1
  O  O295  1  0.48761711  0.50343601  0.57723605  1
  O  O296  1  0.83277584  -0.00865918  0.08412156  1
  O  O297  1  0.84579034  -0.01197917  0.57603198  1
  O  O298  1  0.82325341  0.51505195  0.07908404  1
  O  O299  1  0.84017669  0.49923190  0.58579945  1
  O  O300  1  -0.01142935  0.26210470  0.07799559  1
  O  O301  1  0.00014324  0.25933204  0.58473567  1
  O  O302  1  0.00418673  0.74623089  0.08261401  1
  O  O303  1  0.00254005  0.74048382  0.58893378  1
  O  O304  1  0.34070890  0.25758436  0.08338525  1
  O  O305  1  0.31290787  0.25529508  0.58383632  1
  O  O306  1  0.32231218  0.75225985  0.08123699  1
  O  O307  1  0.32606355  0.73947342  0.57604988  1
  O  O308  1  0.67653115  0.24419780  0.08676089  1
  O  O309  1  0.68091567  0.25122769  0.58810965  1
  O  O310  1  0.66549613  0.75110363  0.08589860  1
  O  O311  1  0.66253696  0.75991662  0.57663921  1
  O  O312  1  0.19090909  0.00810393  0.41996817  1
  O  O313  1  0.14065984  0.00358861  0.91306376  1
  O  O314  1  0.15298927  0.50116899  0.41525910  1
  O  O315  1  0.14168300  0.49381292  0.91826780  1
  O  O316  1  0.48488095  0.00576961  0.41069074  1
  O  O317  1  0.48410038  -0.00174051  0.91640933  1
  O  O318  1  0.50984049  0.49376413  0.41158747  1
  O  O319  1  0.48545531  0.49788415  0.91903112  1
  O  O320  1  0.81301393  -0.00535095  0.41330166  1
  O  O321  1  0.82732766  -0.00778329  0.91601407  1
  O  O322  1  0.81885494  0.48967918  0.42599032  1
  O  O323  1  0.82493962  0.50385028  0.91767557  1
  O  O324  1  0.32737167  0.25660459  0.41292014  1
  O  O325  1  0.31770643  0.24922149  0.91734561  1
  O  O326  1  0.35757225  0.75301636  0.41718344  1
  O  O327  1  0.31327215  0.76261080  0.92869811  1
  O  O328  1  0.65696335  0.24450746  0.41273043  1
  O  O329  1  0.66034699  0.26141285  0.92537433  1
  O  O330  1  0.63794610  0.75380597  0.41447101  1
  O  O331  1  0.64958892  0.74890657  0.91548227  1
  O  O332  1  0.99783505  0.25645816  0.42426226  1
  O  O333  1  0.97552608  0.24916867  0.91712989  1
  O  O334  1  0.99669979  0.75218448  0.41844062  1
  O  O335  1  0.99186489  0.74873354  0.91456177  1
  O  O336  1  0.21369810  0.09027995  0.19065285  1
  O  O337  1  0.21029139  0.08444655  0.69792515  1
  O  O338  1  0.20638026  0.58234982  0.19329621  1
  O  O339  1  0.20844044  0.58020193  0.69865065  1
  O  O340  1  0.54253761  0.08834319  0.19154754  1
  O  O341  1  0.54719815  0.08415660  0.69278978  1
  O  O342  1  0.54689147  0.58121860  0.19409609  1
  O  O343  1  0.54218920  0.58004011  0.69118469  1
  O  O344  1  0.87270952  0.07986157  0.19169835  1
  O  O345  1  0.88018979  0.08100228  0.70260854  1
  O  O346  1  0.87603468  0.58627466  0.19573636  1
  O  O347  1  0.87912814  0.58220518  0.69565009  1
  O  O348  1  0.04156845  0.33595363  0.19323573  1
  O  O349  1  0.04451310  0.33703415  0.69647845  1
  O  O350  1  0.04701687  0.82553882  0.19164764  1
  O  O351  1  0.04079235  0.82835521  0.69588297  1
  O  O352  1  0.37698568  0.33665975  0.19368067  1
  O  O353  1  0.37269849  0.33533493  0.69473209  1
  O  O354  1  0.37539873  0.83311693  0.19056782  1
  O  O355  1  0.38103745  0.82557256  0.69730589  1
  O  O356  1  0.70916354  0.33178014  0.19405128  1
  O  O357  1  0.71389640  0.34440525  0.69167870  1
  O  O358  1  0.70826826  0.83292110  0.19371069  1
  O  O359  1  0.71087165  0.83263385  0.69391901  1
  O  O360  1  0.21280938  0.41304495  0.19449106  1
  O  O361  1  0.20862427  0.41722590  0.69836883  1
  O  O362  1  0.21352414  0.91787580  0.19873894  1
  O  O363  1  0.19303361  0.91574350  0.69078039  1
  O  O364  1  0.54486007  0.41476675  0.19482352  1
  O  O365  1  0.54461104  0.41691479  0.70183005  1
  O  O366  1  0.54578713  0.91589260  0.19759883  1
  O  O367  1  0.54540955  0.91806540  0.69280638  1
  O  O368  1  0.87602051  0.41807400  0.20367925  1
  O  O369  1  0.88085206  0.42072369  0.69561886  1
  O  O370  1  0.86722395  0.91468759  0.19472946  1
  O  O371  1  0.87781078  0.91281278  0.69321609  1
  O  O372  1  0.04549653  0.16935487  0.20081668  1
  O  O373  1  0.04633589  0.17488233  0.69128852  1
  O  O374  1  0.04092094  0.66626819  0.19574527  1
  O  O375  1  0.04601357  0.66219889  0.69885471  1
  O  O376  1  0.37727237  0.17362095  0.19271366  1
  O  O377  1  0.37860831  0.16685685  0.70267675  1
  O  O378  1  0.37983379  0.66258860  0.20111058  1
  O  O379  1  0.37111336  0.66510641  0.69420448  1
  O  O380  1  0.70968749  0.16348027  0.19539215  1
  O  O381  1  0.72073622  0.15868590  0.69205763  1
  O  O382  1  0.70777740  0.66921629  0.19692968  1
  O  O383  1  0.71228734  0.66648829  0.69986397  1
  O  O384  1  0.13034313  0.08508477  0.30723633  1
  O  O385  1  0.12300105  0.08649357  0.80438714  1
  O  O386  1  0.12019962  0.58853329  0.30887590  1
  O  O387  1  0.12233754  0.58034824  0.80977486  1
  O  O388  1  0.45193514  0.09135451  0.30261363  1
  O  O389  1  0.45760863  0.08312178  0.80860166  1
  O  O390  1  0.45900751  0.57819667  0.30530045  1
  O  O391  1  0.45779131  0.57891515  0.80818640  1
  O  O392  1  0.78587874  0.08204828  0.30466646  1
  O  O393  1  0.79170001  0.07913485  0.80903501  1
  O  O394  1  0.78668164  0.58313847  0.30060101  1
  O  O395  1  0.79371415  0.58378102  0.80658510  1
  O  O396  1  0.29155787  0.33696491  0.30443757  1
  O  O397  1  0.28970752  0.33433248  0.80752492  1
  O  O398  1  0.29672985  0.83154659  0.30591424  1
  O  O399  1  0.28327822  0.82741884  0.80846875  1
  O  O400  1  0.62456938  0.33061402  0.30380851  1
  O  O401  1  0.62159875  0.34202012  0.81102453  1
  O  O402  1  0.62118726  0.83362614  0.30437904  1
  O  O403  1  0.62635308  0.83274768  0.80532408  1
  O  O404  1  0.95932500  0.33315082  0.30761986  1
  O  O405  1  0.96154961  0.33306913  0.80671623  1
  O  O406  1  0.95077489  0.82777504  0.30843353  1
  O  O407  1  0.95753581  0.82974333  0.80434790  1
  O  O408  1  0.12150370  0.41562644  0.30504888  1
  O  O409  1  0.12340559  0.41435122  0.80832995  1
  O  O410  1  0.13414208  0.91725052  0.30291353  1
  O  O411  1  0.12106652  0.91643887  0.80410400  1
  O  O412  1  0.45906986  0.41423811  0.30312065  1
  O  O413  1  0.45448850  0.41587859  0.80820783  1
  O  O414  1  0.45375202  0.91700890  0.30231468  1
  O  O415  1  0.46972684  0.91812254  0.80503281  1
  O  O416  1  0.78770673  0.41434157  0.30863904  1
  O  O417  1  0.78884547  0.42237528  0.80707175  1
  O  O418  1  0.78624107  0.91407275  0.30448791  1
  O  O419  1  0.79054073  0.91165664  0.80480420  1
  O  O420  1  0.29199847  0.17189363  0.30305264  1
  O  O421  1  0.28768586  0.17032334  0.80660914  1
  O  O422  1  0.28693984  0.66486284  0.29983974  1
  O  O423  1  0.28895348  0.66544407  0.80181455  1
  O  O424  1  0.62046570  0.16629648  0.30260137  1
  O  O425  1  0.61897715  0.15885348  0.80198729  1
  O  O426  1  0.62041762  0.66660718  0.30677819  1
  O  O427  1  0.62840762  0.66676078  0.80594668  1
  O  O428  1  0.95264483  0.16791472  0.29936101  1
  O  O429  1  0.95968806  0.16930356  0.80599172  1
  O  O430  1  0.95568555  0.66767138  0.30894672  1
  O  O431  1  0.95657418  0.66514785  0.80577522  1
  F  F432  1  0.05092275  0.01247318  0.19862163  1
  F  F433  1  0.04168172  -0.00148506  0.70298612  1
  F  F434  1  0.03965197  0.50287243  0.20412652  1
  F  F435  1  0.04718339  0.49864733  0.70684699  1
  F  F436  1  0.37524852  0.00329447  0.19779140  1
  F  F437  1  0.38584979  0.01045222  0.69927546  1
  F  F438  1  0.38074285  0.49781664  0.19977132  1
  F  F439  1  0.37668698  0.49988297  0.70544041  1
  F  F440  1  0.71150999  0.00012981  0.20128771  1
  F  F441  1  0.71640470  -0.00260136  0.70383613  1
  F  F442  1  0.70997594  0.49765358  0.20201976  1
  F  F443  1  0.71278963  0.50338933  0.70235994  1
  F  F444  1  0.21311225  0.25400564  0.20216138  1
  F  F445  1  0.21224048  0.25373556  0.70468329  1
  F  F446  1  0.21059425  0.74983741  0.20155664  1
  F  F447  1  0.20741711  0.74859178  0.70265662  1
  F  F448  1  0.54543431  0.25136671  0.20017565  1
  F  F449  1  0.53380365  0.25206834  0.70014645  1
  F  F450  1  0.54565300  0.74750232  0.20185267  1
  F  F451  1  0.54877651  0.75310001  0.70119019  1
  F  F452  1  0.87490050  0.25172952  0.20131967  1
  F  F453  1  0.88143935  0.24766682  0.69915445  1
  F  F454  1  0.87774313  0.74861941  0.20430836  1
  F  F455  1  0.88017778  0.74733193  0.70244018  1
  F  F456  1  0.29220585  0.00576112  0.29593090  1
  F  F457  1  0.28178886  0.00783752  0.80200858  1
  F  F458  1  0.29301792  0.49887012  0.29847442  1
  F  F459  1  0.28826343  0.49802248  0.80210769  1
  F  F460  1  0.62618203  0.00119241  0.30027712  1
  F  F461  1  0.62444742  -0.00135055  0.79660458  1
  F  F462  1  0.62134669  0.49740961  0.29758700  1
  F  F463  1  0.62354259  0.50446204  0.79933979  1
  F  F464  1  0.94784313  0.01071202  0.30128827  1
  F  F465  1  0.95144614  -0.01535737  0.80671801  1
  F  F466  1  0.95446204  0.50256349  0.30271731  1
  F  F467  1  0.95483019  0.49987721  0.80124773  1
  F  F468  1  0.12422586  0.25457126  0.29855923  1
  F  F469  1  0.12135249  0.25132414  0.79922766  1
  F  F470  1  0.12152090  0.74965566  0.29788729  1
  F  F471  1  0.11940981  0.74797224  0.80056841  1
  F  F472  1  0.45555157  0.25248532  0.29612612  1
  F  F473  1  0.45375222  0.25472474  0.80252968  1
  F  F474  1  0.45756354  0.75255777  0.29608376  1
  F  F475  1  0.45689895  0.75176940  0.80277436  1
  F  F476  1  0.78618806  0.24916719  0.29716497  1
  F  F477  1  0.80389149  0.24527362  0.80558360  1
  F  F478  1  0.78447086  0.75064825  0.29909663  1
  F  F479  1  0.79112706  0.75085835  0.79905997  1
