# generated using pymatgen
data_K24Na3Li5Mg64Fe17Si79(O5F)48
_symmetry_space_group_name_H-M   'P 1'
_cell_length_a   16.09250278
_cell_length_b   18.59121030
_cell_length_c   20.57276003
_cell_angle_alpha   90.01425804
_cell_angle_beta   100.04087590
_cell_angle_gamma   89.96206382
_symmetry_Int_Tables_number   1
_chemical_formula_structural   K24Na3Li5Mg64Fe17Si79(O5F)48
_chemical_formula_sum   'K24 Na3 Li5 Mg64 Fe17 Si79 O240 F48'
_cell_volume   6060.66710770
_cell_formula_units_Z   1
loop_
 _symmetry_equiv_pos_site_id
 _symmetry_equiv_pos_as_xyz
  1  'x, y, z'
loop_
 _atom_site_type_symbol
 _atom_site_label
 _atom_site_symmetry_multiplicity
 _atom_site_fract_x
 _atom_site_fract_y
 _atom_site_fract_z
 _atom_site_occupancy
  K  K0  1  0.00145858  0.00388784  0.00195359  1
  K  K1  1  0.00001503  -0.00516170  0.49819400  1
  K  K2  1  -0.00680438  0.49971194  0.00017280  1
  K  K3  1  0.00536409  0.49296788  0.50133498  1
  K  K4  1  0.32271729  0.01394737  -0.00552728  1
  K  K5  1  0.33386039  -0.00150181  0.50219045  1
  K  K6  1  0.33508267  0.49816375  0.00068168  1
  K  K7  1  0.33854424  0.49613557  0.50205658  1
  K  K8  1  0.66395596  0.00729482  -0.00215169  1
  K  K9  1  0.66692826  0.00445907  0.49899144  1
  K  K10  1  0.66934783  0.48495345  0.00444283  1
  K  K11  1  0.66005888  0.49117378  0.49602813  1
  K  K12  1  0.16091013  0.25041011  -0.00223879  1
  K  K13  1  0.15436054  0.25774836  0.50403926  1
  K  K14  1  0.16154766  0.74679541  -0.00130964  1
  K  K15  1  0.16226170  0.74063627  0.49562300  1
  K  K16  1  0.49521850  0.25132865  0.00432266  1
  K  K17  1  0.49881583  0.26130311  0.50055895  1
  K  K18  1  0.49313334  0.73559862  0.00103886  1
  K  K19  1  0.49773263  0.74450223  0.50305197  1
  K  K20  1  0.83090235  0.25717511  -0.00226746  1
  K  K21  1  0.83451068  0.26474812  0.49820998  1
  K  K22  1  0.83726440  0.74098531  0.00025850  1
  K  K23  1  0.84076161  0.74398732  0.49946834  1
  Na  Na24  1  0.66552749  0.24994008  0.75284721  1
  Na  Na25  1  0.50392548  0.17055977  0.25436842  1
  Na  Na26  1  0.16469945  0.67013188  0.25882635  1
  Li  Li27  1  0.00461198  0.74578990  0.25669593  1
  Li  Li28  1  0.50588716  0.49325486  0.25852668  1
  Li  Li29  1  0.16920937  0.83310243  0.75055613  1
  Li  Li30  1  0.33278614  0.41436462  0.75962896  1
  Li  Li31  1  0.65869181  0.41885471  0.26119078  1
  Mg  Mg32  1  0.16921523  0.49899838  0.75111910  1
  Mg  Mg33  1  0.83409900  0.00206560  0.74851254  1
  Mg  Mg34  1  -0.00155147  0.25104325  0.74973394  1
  Mg  Mg35  1  0.16541571  0.00049083  0.24632334  1
  Mg  Mg36  1  0.16720845  -0.00141672  0.75048884  1
  Mg  Mg37  1  0.50096083  -0.00043391  0.24990055  1
  Mg  Mg38  1  0.49935995  0.00091998  0.74668983  1
  Mg  Mg39  1  0.49676230  0.49940838  0.75345496  1
  Mg  Mg40  1  0.33298422  0.75013050  0.74925009  1
  Mg  Mg41  1  0.82958895  0.49918959  0.24608058  1
  Mg  Mg42  1  0.66737813  0.75115204  0.74779125  1
  Mg  Mg43  1  0.83266673  0.49967055  0.74614239  1
  Mg  Mg44  1  0.66545678  0.25364758  0.25083394  1
  Mg  Mg45  1  0.32915604  0.25379626  0.75503869  1
  Mg  Mg46  1  0.33668918  0.25152552  0.25337932  1
  Mg  Mg47  1  0.83315797  -0.00276866  0.25106111  1
  Mg  Mg48  1  0.66659934  0.74799384  0.25215023  1
  Mg  Mg49  1  0.16526388  0.50028941  0.25199213  1
  Mg  Mg50  1  0.33259223  0.74861750  0.25175497  1
  Mg  Mg51  1  0.00398724  0.75159407  0.74769262  1
  Mg  Mg52  1  -0.00016419  0.25158410  0.24417457  1
  Mg  Mg53  1  0.16561046  0.33648220  0.75229210  1
  Mg  Mg54  1  0.16419413  0.83251981  0.24973422  1
  Mg  Mg55  1  -0.00020876  0.91235698  0.25033269  1
  Mg  Mg56  1  0.49606765  0.33502083  0.75393303  1
  Mg  Mg57  1  0.16639802  0.16530889  0.74901683  1
  Mg  Mg58  1  0.83299886  0.33559048  0.74975372  1
  Mg  Mg59  1  0.66800731  0.08388394  0.25283641  1
  Mg  Mg60  1  0.66785427  0.58467851  0.75176325  1
  Mg  Mg61  1  0.00283741  0.08476775  0.74840581  1
  Mg  Mg62  1  0.33232946  0.91501946  0.74715234  1
  Mg  Mg63  1  0.66473131  0.57931758  0.25080708  1
  Mg  Mg64  1  0.33449408  0.58222323  0.25671820  1
  Mg  Mg65  1  0.83663017  0.66672888  0.24976112  1
  Mg  Mg66  1  -0.00071097  0.41782026  0.24690878  1
  Mg  Mg67  1  0.16901775  0.66887967  0.75128732  1
  Mg  Mg68  1  0.33783501  0.58127498  0.75374089  1
  Mg  Mg69  1  0.82938428  0.33716106  0.24817980  1
  Mg  Mg70  1  0.00517665  0.91585468  0.75033008  1
  Mg  Mg71  1  0.66480419  0.08498841  0.74653206  1
  Mg  Mg72  1  0.33295938  0.91530385  0.24807806  1
  Mg  Mg73  1  0.00220186  0.58552576  0.25055030  1
  Mg  Mg74  1  0.83237203  0.16595368  0.24776568  1
  Mg  Mg75  1  0.83389639  0.66594186  0.74753844  1
  Mg  Mg76  1  0.16529511  0.16617074  0.24611930  1
  Mg  Mg77  1  0.83423587  0.16786496  0.74744436  1
  Mg  Mg78  1  0.33789765  0.41788912  0.25416558  1
  Mg  Mg79  1  0.49985243  0.83561690  0.74537685  1
  Mg  Mg80  1  0.49992293  0.66103389  0.25393844  1
  Mg  Mg81  1  0.50133992  0.66523750  0.75331277  1
  Mg  Mg82  1  0.66616501  0.41458266  0.75375334  1
  Mg  Mg83  1  0.33149415  0.08567724  0.75071451  1
  Mg  Mg84  1  0.83419485  0.83525318  0.74730261  1
  Mg  Mg85  1  0.00097766  0.41589453  0.74794110  1
  Mg  Mg86  1  0.16715724  0.33491013  0.24965699  1
  Mg  Mg87  1  0.66429718  0.91750647  0.74499747  1
  Mg  Mg88  1  0.50423184  0.33718253  0.25469003  1
  Mg  Mg89  1  0.33491845  0.08361287  0.24779243  1
  Mg  Mg90  1  0.49634103  0.16809885  0.74810202  1
  Mg  Mg91  1  0.50148260  0.83213087  0.25102039  1
  Mg  Mg92  1  0.83594761  0.83190485  0.25304848  1
  Mg  Mg93  1  0.66938520  0.91468337  0.25271444  1
  Mg  Mg94  1  -0.00158528  0.08469039  0.24546734  1
  Mg  Mg95  1  -0.00030804  0.58471416  0.74746728  1
  Fe  Fe96  1  0.48168629  0.58478363  0.89536878  1
  Fe  Fe97  1  0.30889386  0.16994310  0.89139625  1
  Fe  Fe98  1  0.85757596  0.58701319  0.60716778  1
  Fe  Fe99  1  0.81087842  0.91374154  0.39186102  1
  Fe  Fe100  1  0.14771042  0.58001600  0.39532514  1
  Fe  Fe101  1  0.47355618  0.41489728  0.89285755  1
  Fe  Fe102  1  0.13819503  0.08001443  0.89021513  1
  Fe  Fe103  1  0.52100378  0.92108757  0.60520108  1
  Fe  Fe104  1  0.85570762  0.41938099  0.10759491  1
  Fe  Fe105  1  0.80182334  0.41431911  0.88881664  1
  Fe  Fe106  1  0.02230847  0.16478317  0.10569283  1
  Fe  Fe107  1  0.46768575  0.41754393  0.39568563  1
  Fe  Fe108  1  0.13843529  0.42294133  0.89121212  1
  Fe  Fe109  1  0.02429461  0.32880160  0.60799801  1
  Fe  Fe110  1  0.96934152  0.16890152  0.88606704  1
  Fe  Fe111  1  0.14412086  0.41165379  0.38924516  1
  Fe  Fe112  1  0.64255995  0.33206610  0.39520174  1
  Si  Si113  1  0.13972133  0.91834464  0.38396733  1
  Si  Si114  1  0.85953096  0.91295112  0.61334291  1
  Si  Si115  1  0.47815406  0.07714447  0.38444813  1
  Si  Si116  1  0.31447442  0.67657341  0.39115361  1
  Si  Si117  1  0.30908510  0.66977688  0.88765277  1
  Si  Si118  1  0.52847348  0.41448029  0.11968011  1
  Si  Si119  1  0.47522116  0.91479824  0.38419056  1
  Si  Si120  1  0.14272927  0.59287208  0.88662272  1
  Si  Si121  1  0.03233254  0.67096894  0.61161977  1
  Si  Si122  1  0.85574939  0.59138272  0.11130904  1
  Si  Si123  1  0.80191792  0.08542355  0.88427972  1
  Si  Si124  1  0.30293700  0.32198016  0.38966274  1
  Si  Si125  1  0.81437292  0.08277815  0.38729719  1
  Si  Si126  1  0.19893579  0.41812298  0.11581964  1
  Si  Si127  1  0.52632279  0.58015778  0.11771959  1
  Si  Si128  1  0.97511049  0.83531869  0.88410702  1
  Si  Si129  1  0.35940886  0.66281365  0.11700003  1
  Si  Si130  1  0.35858136  0.33708992  0.61888605  1
  Si  Si131  1  0.19434616  0.91335318  0.11317063  1
  Si  Si132  1  0.19471072  0.91686662  0.61381627  1
  Si  Si133  1  0.31184377  0.15794816  0.38478017  1
  Si  Si134  1  0.35563958  0.17334597  0.61361910  1
  Si  Si135  1  0.80962021  0.58504102  0.38334628  1
  Si  Si136  1  0.35504487  0.82804684  0.60948503  1
  Si  Si137  1  0.19756142  0.07983331  0.11067445  1
  Si  Si138  1  0.68718928  0.67117257  0.61201438  1
  Si  Si139  1  0.69228576  0.83581312  0.61129628  1
  Si  Si140  1  0.02500210  0.66853331  0.11621847  1
  Si  Si141  1  0.47411077  0.07895993  0.88561430  1
  Si  Si142  1  0.52741572  0.58187801  0.61689874  1
  Si  Si143  1  0.30794408  0.84088035  0.38475956  1
  Si  Si144  1  0.97464904  0.66354183  0.38727511  1
  Si  Si145  1  0.63838704  0.83087437  0.38828497  1
  Si  Si146  1  0.97297930  0.33612113  0.88642869  1
  Si  Si147  1  0.63316974  0.32613915  0.88960705  1
  Si  Si148  1  0.85602393  0.91045633  0.11403682  1
  Si  Si149  1  0.96988541  0.33495234  0.38282598  1
  Si  Si150  1  0.52702502  0.41553091  0.61794905  1
  Si  Si151  1  0.97391054  0.67084000  0.88369996  1
  Si  Si152  1  0.63550137  0.15973544  0.88216144  1
  Si  Si153  1  0.02961973  0.33752067  0.10808656  1
  Si  Si154  1  0.47502433  0.59016887  0.39270277  1
  Si  Si155  1  0.19549108  0.08083255  0.61111182  1
  Si  Si156  1  0.64652234  0.83772429  0.88291301  1
  Si  Si157  1  0.64745794  0.67495675  0.88763707  1
  Si  Si158  1  0.68774158  0.83179816  0.11507593  1
  Si  Si159  1  0.19595098  0.58413167  0.61774543  1
  Si  Si160  1  0.68737268  0.66807912  0.11549689  1
  Si  Si161  1  0.02390214  0.15730787  0.60727968  1
  Si  Si162  1  0.80961941  0.58662676  0.88657473  1
  Si  Si163  1  0.64373541  0.66505027  0.38650047  1
  Si  Si164  1  0.52424956  0.08003989  0.11617483  1
  Si  Si165  1  0.19427031  0.41875420  0.61518895  1
  Si  Si166  1  0.51984623  0.09087948  0.60875697  1
  Si  Si167  1  0.47777270  0.91469654  0.88325377  1
  Si  Si168  1  0.97874692  0.82941527  0.38755813  1
  Si  Si169  1  0.69147449  0.33232146  0.61563433  1
  Si  Si170  1  0.36016008  0.82881413  0.11498311  1
  Si  Si171  1  0.85556913  0.07838529  0.61084791  1
  Si  Si172  1  0.69325166  0.16486510  0.61267516  1
  Si  Si173  1  0.64864552  0.16200114  0.38895328  1
  Si  Si174  1  0.52339070  0.91592594  0.11433825  1
  Si  Si175  1  0.30340654  0.33585049  0.89169681  1
  Si  Si176  1  0.36081810  0.66303274  0.61645786  1
  Si  Si177  1  0.68984652  0.32685496  0.11225363  1
  Si  Si178  1  0.97455871  0.16968272  0.38222950  1
  Si  Si179  1  0.14026163  0.08365174  0.38362631  1
  Si  Si180  1  0.85267632  0.41637892  0.60723103  1
  Si  Si181  1  0.19253267  0.58295481  0.11791217  1
  Si  Si182  1  0.31347350  0.83305062  0.88332612  1
  Si  Si183  1  0.35994278  0.16818232  0.11668603  1
  Si  Si184  1  0.14651141  0.91156255  0.88633344  1
  Si  Si185  1  0.02828212  0.83733712  0.61456872  1
  Si  Si186  1  0.02670414  0.83440509  0.11360168  1
  Si  Si187  1  0.68764163  0.16211644  0.11396871  1
  Si  Si188  1  0.80692217  0.42068644  0.38395942  1
  Si  Si189  1  0.36222189  0.33410283  0.11668173  1
  Si  Si190  1  0.81035992  0.92125811  0.88286362  1
  Si  Si191  1  0.85180352  0.07653031  0.11117225  1
  O  O192  1  0.27815798  0.11880821  0.08493348  1
  O  O193  1  0.27058336  0.12533440  0.58202967  1
  O  O194  1  0.26805457  0.62575221  0.08652076  1
  O  O195  1  0.27735890  0.61521807  0.58769615  1
  O  O196  1  0.60191052  0.11487306  0.08439785  1
  O  O197  1  0.60324565  0.12476433  0.58202769  1
  O  O198  1  0.60178616  0.62164327  0.08571857  1
  O  O199  1  0.60212191  0.62202601  0.58512005  1
  O  O200  1  0.92519390  0.10807525  0.07582720  1
  O  O201  1  0.93769284  0.10741872  0.58095698  1
  O  O202  1  0.93375277  0.63252967  0.08118153  1
  O  O203  1  0.95008807  0.62893143  0.57463821  1
  O  O204  1  0.11614297  0.37089808  0.08500570  1
  O  O205  1  0.11581353  0.37213788  0.57669996  1
  O  O206  1  0.10249817  0.87625657  0.08215836  1
  O  O207  1  0.10153726  0.88211230  0.58461482  1
  O  O208  1  0.44011043  0.37154515  0.08720070  1
  O  O209  1  0.43995585  0.37104410  0.58945200  1
  O  O210  1  0.43736250  0.86923547  0.08542522  1
  O  O211  1  0.42574051  0.86333151  0.57215294  1
  O  O212  1  0.76212504  0.36002293  0.07521938  1
  O  O213  1  0.76652632  0.36678164  0.58160517  1
  O  O214  1  0.77014798  0.86281790  0.08586562  1
  O  O215  1  0.78141184  0.85792242  0.58587891  1
  O  O216  1  0.27805483  0.38162817  0.08612984  1
  O  O217  1  0.27954790  0.38929750  0.58795510  1
  O  O218  1  0.26904879  0.86715525  0.08534245  1
  O  O219  1  0.26366079  0.86849142  0.58239055  1
  O  O220  1  0.60195439  0.37322175  0.08682581  1
  O  O221  1  0.60229577  0.37522266  0.58692986  1
  O  O222  1  0.60408854  0.88154436  0.08484634  1
  O  O223  1  0.62105742  0.89132157  0.57655659  1
  O  O224  1  0.95341550  0.39086898  0.07676099  1
  O  O225  1  0.92633822  0.38042893  0.57273491  1
  O  O226  1  0.93506617  0.87417803  0.08315884  1
  O  O227  1  0.94049482  0.88086514  0.58364431  1
  O  O228  1  0.11166819  0.11652631  0.07515466  1
  O  O229  1  0.10241291  0.11402463  0.57940464  1
  O  O230  1  0.10351458  0.62656362  0.08813409  1
  O  O231  1  0.11687127  0.63724496  0.58721668  1
  O  O232  1  0.44030520  0.12915357  0.08976723  1
  O  O233  1  0.43751776  0.14381838  0.58282028  1
  O  O234  1  0.43575882  0.62196216  0.08741588  1
  O  O235  1  0.43997055  0.62626360  0.58719483  1
  O  O236  1  0.76236203  0.11956152  0.08363824  1
  O  O237  1  0.76973788  0.12503904  0.58027132  1
  O  O238  1  0.77016291  0.64210046  0.08517214  1
  O  O239  1  0.76355816  0.64700902  0.57596785  1
  O  O240  1  0.06172923  0.12317691  0.41151492  1
  O  O241  1  0.03810952  0.09406771  0.92027548  1
  O  O242  1  0.04846968  0.61299487  0.42608333  1
  O  O243  1  0.06011010  0.62778908  0.91512433  1
  O  O244  1  0.39475363  0.10668756  0.41395343  1
  O  O245  1  0.39692222  0.10126734  0.92105749  1
  O  O246  1  0.40449516  0.63827403  0.42433699  1
  O  O247  1  0.38196208  0.61819223  0.92600817  1
  O  O248  1  0.72945250  0.10734496  0.41636490  1
  O  O249  1  0.71169120  0.10197532  0.90976726  1
  O  O250  1  0.72699530  0.61536951  0.41355217  1
  O  O251  1  0.73296876  0.62818065  0.91593737  1
  O  O252  1  0.21486277  0.33193087  0.41648816  1
  O  O253  1  0.21747952  0.35148387  0.92240968  1
  O  O254  1  0.22946443  0.87835905  0.41406460  1
  O  O255  1  0.22849514  0.85746689  0.91183347  1
  O  O256  1  0.55943192  0.36567077  0.43869097  1
  O  O257  1  0.55018536  0.33914530  0.92306749  1
  O  O258  1  0.54885803  0.85611447  0.41229373  1
  O  O259  1  0.56244256  0.86537235  0.91179610  1
  O  O260  1  0.88441686  0.36270614  0.40917591  1
  O  O261  1  0.88590763  0.34676190  0.91613624  1
  O  O262  1  0.90582118  0.85788273  0.42682410  1
  O  O263  1  0.89506793  0.87304788  0.91252685  1
  O  O264  1  0.04408586  0.38562007  0.41964318  1
  O  O265  1  0.03543610  0.40187171  0.91695086  1
  O  O266  1  0.06565982  0.87776376  0.41498248  1
  O  O267  1  0.06405001  0.87500853  0.91451659  1
  O  O268  1  0.37458577  0.37561359  0.42743406  1
  O  O269  1  0.36894462  0.40088716  0.91876074  1
  O  O270  1  0.38938340  0.89285999  0.41231835  1
  O  O271  1  0.39675482  0.88368483  0.91426525  1
  O  O272  1  0.73279837  0.39696801  0.42301315  1
  O  O273  1  0.71006012  0.37790068  0.92386317  1
  O  O274  1  0.71188470  0.88405002  0.42318741  1
  O  O275  1  0.72733743  0.89066484  0.91187573  1
  O  O276  1  0.23048655  0.12322509  0.41411203  1
  O  O277  1  0.22093301  0.14138160  0.93246484  1
  O  O278  1  0.23669716  0.64806538  0.42349038  1
  O  O279  1  0.21788921  0.65319505  0.91143134  1
  O  O280  1  0.56289551  0.12432518  0.41156866  1
  O  O281  1  0.55605408  0.13000805  0.91573259  1
  O  O282  1  0.56502005  0.63466038  0.41868845  1
  O  O283  1  0.56913905  0.65431457  0.92266112  1
  O  O284  1  0.89406597  0.13847833  0.41288777  1
  O  O285  1  0.86845355  0.14386051  0.91807384  1
  O  O286  1  0.88536549  0.64132900  0.41333749  1
  O  O287  1  0.89426131  0.63736722  0.91311397  1
  O  O288  1  0.19829627  -0.00508764  0.08443589  1
  O  O289  1  0.19672730  -0.00189606  0.58082395  1
  O  O290  1  0.18587245  0.50111748  0.08603324  1
  O  O291  1  0.17871859  0.50315229  0.58840953  1
  O  O292  1  0.50784016  -0.00220277  0.08414822  1
  O  O293  1  0.49725931  0.01478335  0.57147120  1
  O  O294  1  0.51909373  0.49785990  0.08909087  1
  O  O295  1  0.51775719  0.49886504  0.58850129  1
  O  O296  1  0.83517634  -0.00827201  0.08453931  1
  O  O297  1  0.83811431  -0.00545405  0.58320021  1
  O  O298  1  0.83779793  0.51487002  0.07531534  1
  O  O299  1  0.82921690  0.49526855  0.57458453  1
  O  O300  1  0.01333427  0.25862371  0.07378594  1
  O  O301  1  0.01126947  0.23392610  0.57028316  1
  O  O302  1  0.02322573  0.75182300  0.08404545  1
  O  O303  1  0.02578828  0.75569651  0.58388061  1
  O  O304  1  0.35107836  0.25063937  0.08696589  1
  O  O305  1  0.33913872  0.25577644  0.58541293  1
  O  O306  1  0.35592603  0.74605590  0.08656844  1
  O  O307  1  0.34366423  0.74369481  0.58382737  1
  O  O308  1  0.67177174  0.24262018  0.08267066  1
  O  O309  1  0.68155019  0.24855660  0.58755495  1
  O  O310  1  0.66700740  0.75070463  0.08529767  1
  O  O311  1  0.66211895  0.75435431  0.58618085  1
  O  O312  1  0.14664788  0.00116315  0.41413973  1
  O  O313  1  0.16987850  -0.01423195  0.92468489  1
  O  O314  1  0.18523761  0.49367094  0.43446033  1
  O  O315  1  0.16890180  0.51803325  0.92350190  1
  O  O316  1  0.50067441  -0.00490046  0.41450786  1
  O  O317  1  0.50256601  -0.00443263  0.91173686  1
  O  O318  1  0.48213937  0.51356520  0.42938564  1
  O  O319  1  0.51799726  0.49947882  0.93437700  1
  O  O320  1  0.84394034  0.00668500  0.42190706  1
  O  O321  1  0.82794754  0.00237139  0.91245508  1
  O  O322  1  0.83580251  0.50387317  0.41068862  1
  O  O323  1  0.82705098  0.50936931  0.92077141  1
  O  O324  1  0.33464524  0.23789866  0.41390077  1
  O  O325  1  0.34649946  0.26048036  0.92315510  1
  O  O326  1  0.32914874  0.76204998  0.41717025  1
  O  O327  1  0.33598957  0.75268220  0.91440532  1
  O  O328  1  0.66785578  0.23635831  0.42845375  1
  O  O329  1  0.66316134  0.24032711  0.90877289  1
  O  O330  1  0.66026725  0.74804500  0.41512498  1
  O  O331  1  0.67503436  0.75857153  0.91282747  1
  O  O332  1  0.98986680  0.25121961  0.41072374  1
  O  O333  1  1.01465773  0.25892125  0.91292083  1
  O  O334  1  0.99942021  0.74672339  0.41354348  1
  O  O335  1  0.98342602  0.75337834  0.91444398  1
  O  O336  1  0.21112928  0.08049140  0.19188110  1
  O  O337  1  0.21172249  0.08010540  0.69079991  1
  O  O338  1  0.21503991  0.58033469  0.19684257  1
  O  O339  1  0.21247207  0.58638524  0.69790371  1
  O  O340  1  0.54800142  0.07442216  0.19510926  1
  O  O341  1  0.53917774  0.08471122  0.68950386  1
  O  O342  1  0.54488957  0.58798892  0.19660562  1
  O  O343  1  0.54690886  0.58580178  0.69677536  1
  O  O344  1  0.87261443  0.07913321  0.19223094  1
  O  O345  1  0.87447507  0.07955707  0.69084450  1
  O  O346  1  0.87521946  0.58791938  0.19163976  1
  O  O347  1  0.87787021  0.58644541  0.69907355  1
  O  O348  1  0.04409028  0.33260620  0.18946720  1
  O  O349  1  0.04278490  0.33133803  0.69901199  1
  O  O350  1  0.04604446  0.83941669  0.19264605  1
  O  O351  1  0.04098638  0.83530194  0.69395055  1
  O  O352  1  0.37605802  0.33259267  0.19642743  1
  O  O353  1  0.37528417  0.33061790  0.69782980  1
  O  O354  1  0.37871211  0.83279450  0.19517760  1
  O  O355  1  0.37639555  0.83283126  0.69026961  1
  O  O356  1  0.71477840  0.32385573  0.19139976  1
  O  O357  1  0.71159437  0.33849508  0.69440670  1
  O  O358  1  0.70512356  0.83248028  0.19505847  1
  O  O359  1  0.71058459  0.83582235  0.69264613  1
  O  O360  1  0.21548751  0.41684153  0.19599333  1
  O  O361  1  0.20735812  0.41745752  0.69479585  1
  O  O362  1  0.21038719  0.91533039  0.19350914  1
  O  O363  1  0.21303735  0.91922066  0.69320081  1
  O  O364  1  0.54392980  0.41592667  0.19808559  1
  O  O365  1  0.54535592  0.41751669  0.69759229  1
  O  O366  1  0.54281676  0.91421370  0.19474918  1
  O  O367  1  0.54294831  0.91782537  0.69701600  1
  O  O368  1  0.87667279  0.41684874  0.19875159  1
  O  O369  1  0.87598890  0.41816443  0.68852557  1
  O  O370  1  0.87704124  0.91292727  0.19398509  1
  O  O371  1  0.87754101  0.91585588  0.69367832  1
  O  O372  1  0.04442957  0.16442503  0.19774311  1
  O  O373  1  0.04364089  0.16180853  0.68729872  1
  O  O374  1  0.03515074  0.66909004  0.19429780  1
  O  O375  1  0.04488962  0.66975588  0.69243133  1
  O  O376  1  0.36980541  0.16706158  0.19579988  1
  O  O377  1  0.37396546  0.16600128  0.69324380  1
  O  O378  1  0.37717218  0.66652280  0.19693928  1
  O  O379  1  0.37910911  0.66869343  0.69627280  1
  O  O380  1  0.70856602  0.16187059  0.19419723  1
  O  O381  1  0.71448937  0.15787938  0.69167307  1
  O  O382  1  0.70703401  0.66887152  0.19553983  1
  O  O383  1  0.70875614  0.66947822  0.69324518  1
  O  O384  1  0.12452855  0.08170156  0.30341009  1
  O  O385  1  0.12302614  0.08080991  0.79686014  1
  O  O386  1  0.11785469  0.57454909  0.30521682  1
  O  O387  1  0.12204458  0.58898334  0.80573872  1
  O  O388  1  0.45295924  0.07322322  0.30526830  1
  O  O389  1  0.45559661  0.08028771  0.80442695  1
  O  O390  1  0.45458772  0.59006075  0.31262392  1
  O  O391  1  0.45886013  0.58605173  0.80306351  1
  O  O392  1  0.79427169  0.08131581  0.30593632  1
  O  O393  1  0.78805901  0.08202225  0.80329807  1
  O  O394  1  0.78950321  0.58632051  0.30297410  1
  O  O395  1  0.78963819  0.58791622  0.80567462  1
  O  O396  1  0.28882169  0.32893028  0.30821138  1
  O  O397  1  0.28385640  0.33060398  0.81031247  1
  O  O398  1  0.29060824  0.83773370  0.30447870  1
  O  O399  1  0.29863667  0.83405297  0.80372002  1
  O  O400  1  0.62318915  0.32897080  0.30506839  1
  O  O401  1  0.61567852  0.33820943  0.80979088  1
  O  O402  1  0.62267776  0.83253460  0.30690411  1
  O  O403  1  0.62674294  0.83594956  0.80264406  1
  O  O404  1  0.95612781  0.33171620  0.30209241  1
  O  O405  1  0.95473002  0.33644842  0.80418905  1
  O  O406  1  0.95527180  0.83738063  0.30779604  1
  O  O407  1  0.95648643  0.83495667  0.80384317  1
  O  O408  1  0.12024724  0.41463166  0.29667959  1
  O  O409  1  0.12077695  0.42111815  0.79960174  1
  O  O410  1  0.12381653  0.92030261  0.30374542  1
  O  O411  1  0.12412782  0.91658091  0.80626428  1
  O  O412  1  0.45392200  0.41485106  0.30530274  1
  O  O413  1  0.45578209  0.41868718  0.80190510  1
  O  O414  1  0.45699822  0.91489736  0.30348742  1
  O  O415  1  0.45710000  0.91496952  0.80297729  1
  O  O416  1  0.78882529  0.41958770  0.30389897  1
  O  O417  1  0.78776969  0.41983430  0.79723720  1
  O  O418  1  0.78909648  0.91479474  0.29964831  1
  O  O419  1  0.79108765  0.91756052  0.80246551  1
  O  O420  1  0.28967045  0.15981309  0.30451018  1
  O  O421  1  0.28712024  0.16530642  0.79870249  1
  O  O422  1  0.30215914  0.67181902  0.31128012  1
  O  O423  1  0.29380792  0.66868733  0.80679448  1
  O  O424  1  0.63733945  0.16478496  0.30914211  1
  O  O425  1  0.61371954  0.15558232  0.80274144  1
  O  O426  1  0.62339623  0.66729952  0.30613142  1
  O  O427  1  0.62728590  0.67161199  0.80640806  1
  O  O428  1  0.95577380  0.16472980  0.30206771  1
  O  O429  1  0.95417432  0.16489560  0.79356958  1
  O  O430  1  0.95504314  0.66279327  0.30709230  1
  O  O431  1  0.95770439  0.67152239  0.80359294  1
  F  F432  1  0.04428578  -0.00163381  0.19955525  1
  F  F433  1  0.04475948  -0.00394386  0.69823788  1
  F  F434  1  0.04335167  0.50205048  0.19694547  1
  F  F435  1  0.04621615  0.50548604  0.69937476  1
  F  F436  1  0.37906727  -0.00316995  0.19906843  1
  F  F437  1  0.37786276  -0.00016781  0.70030947  1
  F  F438  1  0.37362151  0.50328761  0.20430081  1
  F  F439  1  0.38276859  0.51040644  0.69625992  1
  F  F440  1  0.71049046  -0.00096709  0.20185797  1
  F  F441  1  0.71241500  -0.00051394  0.69942545  1
  F  F442  1  0.71316615  0.50937697  0.19594297  1
  F  F443  1  0.70890642  0.50529009  0.70026116  1
  F  F444  1  0.21444539  0.24903306  0.20296676  1
  F  F445  1  0.20992768  0.25102136  0.70038959  1
  F  F446  1  0.21821024  0.75992578  0.19891138  1
  F  F447  1  0.21515149  0.74776418  0.70120496  1
  F  F448  1  0.54793369  0.25687063  0.19802885  1
  F  F449  1  0.53119120  0.25131055  0.69918728  1
  F  F450  1  0.54457897  0.74972612  0.20293034  1
  F  F451  1  0.54612253  0.75019887  0.70148702  1
  F  F452  1  0.87847344  0.24668984  0.19920201  1
  F  F453  1  0.87648932  0.25185748  0.69617151  1
  F  F454  1  0.87043104  0.75205745  0.20121508  1
  F  F455  1  0.88004189  0.75230064  0.70068337  1
  F  F456  1  0.28708241  -0.00145045  0.29493746  1
  F  F457  1  0.28995927  -0.00212263  0.79652208  1
  F  F458  1  0.28753311  0.49964969  0.30216524  1
  F  F459  1  0.28655680  0.50553525  0.79937488  1
  F  F460  1  0.62158793  -0.00290860  0.29928455  1
  F  F461  1  0.62177749  0.00001504  0.79481648  1
  F  F462  1  0.62493522  0.50618577  0.30413633  1
  F  F463  1  0.62293091  0.50326877  0.79853431  1
  F  F464  1  0.95656827  -0.00009083  0.29509715  1
  F  F465  1  0.95396961  -0.00239139  0.79458870  1
  F  F466  1  0.95158132  0.50219636  0.29409748  1
  F  F467  1  0.95463088  0.50173572  0.79471036  1
  F  F468  1  0.12068785  0.24824976  0.29515134  1
  F  F469  1  0.11984869  0.24599295  0.79510943  1
  F  F470  1  0.12101317  0.76645495  0.30657455  1
  F  F471  1  0.11980398  0.74909623  0.79820336  1
  F  F472  1  0.45093523  0.25715149  0.30433671  1
  F  F473  1  0.45162596  0.24652698  0.79934332  1
  F  F474  1  0.45572384  0.75169567  0.29797045  1
  F  F475  1  0.45697346  0.75395275  0.79596318  1
  F  F476  1  0.79098595  0.24801446  0.29589895  1
  F  F477  1  0.79951041  0.24899029  0.79748643  1
  F  F478  1  0.78630169  0.75003404  0.29960546  1
  F  F479  1  0.78941969  0.75275184  0.79535725  1
