# generated using pymatgen
data_K24Na3Li5Mg64Fe17Si79(O5F)48
_symmetry_space_group_name_H-M   'P 1'
_cell_length_a   16.07585653
_cell_length_b   18.57202476
_cell_length_c   20.53894199
_cell_angle_alpha   89.99250372
_cell_angle_beta   100.01722287
_cell_angle_gamma   90.00830316
_symmetry_Int_Tables_number   1
_chemical_formula_structural   K24Na3Li5Mg64Fe17Si79(O5F)48
_chemical_formula_sum   'K24 Na3 Li5 Mg64 Fe17 Si79 O240 F48'
_cell_volume   6038.64997203
_cell_formula_units_Z   1
loop_
 _symmetry_equiv_pos_site_id
 _symmetry_equiv_pos_as_xyz
  1  'x, y, z'
loop_
 _atom_site_type_symbol
 _atom_site_label
 _atom_site_symmetry_multiplicity
 _atom_site_fract_x
 _atom_site_fract_y
 _atom_site_fract_z
 _atom_site_occupancy
  K  K0  1  -0.01025153  0.00050801  0.00027760  1
  K  K1  1  -0.00714159  -0.00582885  0.50130212  1
  K  K2  1  0.00168603  0.49602669  -0.00703448  1
  K  K3  1  -0.00603863  0.50329679  0.51046585  1
  K  K4  1  0.33825277  -0.00368497  -0.00162055  1
  K  K5  1  0.33198774  0.00018369  0.50304462  1
  K  K6  1  0.32906106  0.49757728  -0.00179439  1
  K  K7  1  0.33260481  0.50077923  0.50447330  1
  K  K8  1  0.67431409  0.00474552  0.01180943  1
  K  K9  1  0.66833754  -0.00054523  0.49643488  1
  K  K10  1  0.67861635  0.49870937  0.00004941  1
  K  K11  1  0.67822215  0.49427545  0.49758824  1
  K  K12  1  0.16107454  0.26151357  -0.00338160  1
  K  K13  1  0.17238636  0.25644295  0.50891374  1
  K  K14  1  0.17874765  0.74326856  0.00256476  1
  K  K15  1  0.15891687  0.74629925  0.50408783  1
  K  K16  1  0.50216776  0.25398175  -0.00226508  1
  K  K17  1  0.48721827  0.25343219  0.50193540  1
  K  K18  1  0.49726403  0.75044849  0.00279064  1
  K  K19  1  0.50490147  0.74655447  0.49610177  1
  K  K20  1  0.83094452  0.25235631  -0.00246679  1
  K  K21  1  0.83898539  0.25142075  0.50090506  1
  K  K22  1  0.82760000  0.74402146  0.00416717  1
  K  K23  1  0.83160136  0.75626373  0.49894340  1
  Na  Na24  1  0.83600311  0.00204583  0.24520868  1
  Na  Na25  1  0.49649711  0.67018789  0.75292767  1
  Na  Na26  1  0.50219258  0.33219091  0.74826224  1
  Li  Li27  1  0.66862782  0.24984219  0.24886953  1
  Li  Li28  1  0.16572705  0.49713256  0.75194547  1
  Li  Li29  1  -0.00103752  0.91637940  0.74380924  1
  Li  Li30  1  -0.00551123  0.08157417  0.24774763  1
  Li  Li31  1  0.33144572  0.91566882  0.74921006  1
  Mg  Mg32  1  0.00153528  0.24998754  0.74951858  1
  Mg  Mg33  1  0.33188875  0.75195198  0.75227927  1
  Mg  Mg34  1  0.33483179  0.74831946  0.25069157  1
  Mg  Mg35  1  0.66714366  0.75143024  0.25139894  1
  Mg  Mg36  1  0.33598754  0.24956351  0.75021355  1
  Mg  Mg37  1  0.00080402  0.75435738  0.74917757  1
  Mg  Mg38  1  -0.00055328  0.75142351  0.25054571  1
  Mg  Mg39  1  0.83385574  0.50068056  0.25136263  1
  Mg  Mg40  1  0.50018310  0.49911490  0.24901713  1
  Mg  Mg41  1  0.66541412  0.75031543  0.75184710  1
  Mg  Mg42  1  0.16830268  -0.00402276  0.74804664  1
  Mg  Mg43  1  0.83651228  0.00036175  0.74524689  1
  Mg  Mg44  1  0.49885066  0.50005711  0.74924119  1
  Mg  Mg45  1  0.16781589  0.50208078  0.25022902  1
  Mg  Mg46  1  0.50158807  0.00201304  0.25029638  1
  Mg  Mg47  1  0.66856240  0.24982817  0.74782490  1
  Mg  Mg48  1  0.33332560  0.25139182  0.24792185  1
  Mg  Mg49  1  0.83470195  0.49766213  0.75234823  1
  Mg  Mg50  1  0.16336749  0.00147618  0.24963415  1
  Mg  Mg51  1  0.49766964  -0.00293435  0.74874321  1
  Mg  Mg52  1  -0.00125458  0.24414703  0.24643397  1
  Mg  Mg53  1  0.16841746  0.33624729  0.74907808  1
  Mg  Mg54  1  0.50196566  0.16888802  0.24919458  1
  Mg  Mg55  1  0.66750917  0.41368057  0.25121094  1
  Mg  Mg56  1  0.66626789  0.91558761  0.75055320  1
  Mg  Mg57  1  0.66715906  0.41471961  0.74881574  1
  Mg  Mg58  1  0.16765329  0.83448556  0.25211681  1
  Mg  Mg59  1  0.50153256  0.83545645  0.24934221  1
  Mg  Mg60  1  0.16514628  0.66509535  0.75119434  1
  Mg  Mg61  1  0.49638321  0.83342021  0.75199578  1
  Mg  Mg62  1  0.83250090  0.16780764  0.24774554  1
  Mg  Mg63  1  0.50017744  0.66484437  0.25154954  1
  Mg  Mg64  1  0.16361369  0.16519818  0.24770101  1
  Mg  Mg65  1  0.66516645  0.58390623  0.75314626  1
  Mg  Mg66  1  0.33270084  0.41567441  0.24719077  1
  Mg  Mg67  1  0.83589221  0.83651138  0.74768221  1
  Mg  Mg68  1  0.83308956  0.66676501  0.75238023  1
  Mg  Mg69  1  0.50059136  0.33197533  0.24773759  1
  Mg  Mg70  1  0.66662412  0.08384353  0.74622796  1
  Mg  Mg71  1  0.00037630  0.41484445  0.25108529  1
  Mg  Mg72  1  0.00224655  0.41689711  0.75077429  1
  Mg  Mg73  1  0.00136473  0.58371849  0.75118805  1
  Mg  Mg74  1  0.00043692  0.58559858  0.25230393  1
  Mg  Mg75  1  0.66840117  0.58465591  0.25120464  1
  Mg  Mg76  1  0.33220562  0.41612558  0.75109651  1
  Mg  Mg77  1  0.16739756  0.16410241  0.74862793  1
  Mg  Mg78  1  0.66872562  0.08709656  0.24698588  1
  Mg  Mg79  1  -0.00235887  0.92076588  0.24670385  1
  Mg  Mg80  1  0.33422175  0.91672658  0.25193520  1
  Mg  Mg81  1  -0.00100661  0.07966643  0.74569619  1
  Mg  Mg82  1  0.83033042  0.66594672  0.25097516  1
  Mg  Mg83  1  0.50057140  0.16385197  0.74782103  1
  Mg  Mg84  1  0.83238901  0.33491086  0.75191348  1
  Mg  Mg85  1  0.33449498  0.07970179  0.74893733  1
  Mg  Mg86  1  0.16947131  0.66608199  0.25172495  1
  Mg  Mg87  1  0.83210625  0.16512835  0.74541273  1
  Mg  Mg88  1  0.83035145  0.83550305  0.24744516  1
  Mg  Mg89  1  0.33262324  0.58641894  0.25157727  1
  Mg  Mg90  1  0.66808956  0.91625875  0.24857503  1
  Mg  Mg91  1  0.83249919  0.33245108  0.25121917  1
  Mg  Mg92  1  0.33267675  0.08532251  0.24985573  1
  Mg  Mg93  1  0.33014704  0.58175089  0.75220228  1
  Mg  Mg94  1  0.16551708  0.33422097  0.24835491  1
  Mg  Mg95  1  0.16487666  0.83567648  0.74867388  1
  Fe  Fe96  1  0.69256946  0.66015451  0.10963462  1
  Fe  Fe97  1  0.36713600  0.66703856  0.10897603  1
  Fe  Fe98  1  0.64069534  0.83512200  0.39155863  1
  Fe  Fe99  1  0.02397608  0.83541528  0.60905539  1
  Fe  Fe100  1  0.35458136  0.33212569  0.10823074  1
  Fe  Fe101  1  0.80690259  0.41585908  0.89353825  1
  Fe  Fe102  1  0.85753926  0.08673757  0.10621375  1
  Fe  Fe103  1  0.68805629  0.83110464  0.10593848  1
  Fe  Fe104  1  0.80919423  0.58134201  0.39222176  1
  Fe  Fe105  1  0.36260391  0.33421372  0.61000187  1
  Fe  Fe106  1  0.68415327  0.33472719  0.60644177  1
  Fe  Fe107  1  0.68207105  0.16723235  0.60554535  1
  Fe  Fe108  1  0.85905259  0.41266333  0.61075524  1
  Fe  Fe109  1  0.30788727  0.66779551  0.39477343  1
  Fe  Fe110  1  0.19239110  0.58470671  0.10995866  1
  Fe  Fe111  1  0.85740922  0.08724038  0.60495786  1
  Fe  Fe112  1  0.14261153  0.41759088  0.88977122  1
  Si  Si113  1  0.14474532  0.08073190  0.88461449  1
  Si  Si114  1  0.47577823  0.91541837  0.88573860  1
  Si  Si115  1  0.97733978  0.16002998  0.88377856  1
  Si  Si116  1  0.81024753  0.91872375  0.38652251  1
  Si  Si117  1  0.84857115  0.91696395  0.60860950  1
  Si  Si118  1  0.02859761  0.67140831  0.11562700  1
  Si  Si119  1  0.47594632  0.07955385  0.88529934  1
  Si  Si120  1  0.64164445  0.66719011  0.88777314  1
  Si  Si121  1  0.68852300  0.17365296  0.11057168  1
  Si  Si122  1  0.02637247  0.83442330  0.11571142  1
  Si  Si123  1  0.18935012  0.58216384  0.61725018  1
  Si  Si124  1  0.14114605  0.91961130  0.38487210  1
  Si  Si125  1  0.35750171  0.84048256  0.11306026  1
  Si  Si126  1  0.31095673  0.16388141  0.88439719  1
  Si  Si127  1  0.97753861  0.32775964  0.38521136  1
  Si  Si128  1  0.30978564  0.66807813  0.88736502  1
  Si  Si129  1  0.81262807  0.41076304  0.38801948  1
  Si  Si130  1  0.68802322  0.66780934  0.61716136  1
  Si  Si131  1  0.52226958  0.09086438  0.11394441  1
  Si  Si132  1  0.52087758  0.58813573  0.61673938  1
  Si  Si133  1  0.97241099  0.67191920  0.38777018  1
  Si  Si134  1  0.47463250  0.08960059  0.38520478  1
  Si  Si135  1  0.31077463  0.32983661  0.88882187  1
  Si  Si136  1  0.64000598  0.16422537  0.88553437  1
  Si  Si137  1  0.14579882  0.91646095  0.88573425  1
  Si  Si138  1  0.80754357  0.91719316  0.88527404  1
  Si  Si139  1  0.52130474  0.90977946  0.61604868  1
  Si  Si140  1  0.85340364  0.58521417  0.61638853  1
  Si  Si141  1  0.53115982  0.57594797  0.11335179  1
  Si  Si142  1  0.35778899  0.83042166  0.61602783  1
  Si  Si143  1  0.02598149  0.32906811  0.11497681  1
  Si  Si144  1  0.52285343  0.92555846  0.11181211  1
  Si  Si145  1  0.46991782  0.92383305  0.38801661  1
  Si  Si146  1  0.64163317  0.83348245  0.88756434  1
  Si  Si147  1  0.52602404  0.41403901  0.11334301  1
  Si  Si148  1  0.80679581  0.08223399  0.88389541  1
  Si  Si149  1  0.13434176  0.58350818  0.39024027  1
  Si  Si150  1  0.18430309  0.41890860  0.11265261  1
  Si  Si151  1  0.18987097  0.91676972  0.11632095  1
  Si  Si152  1  0.19619697  0.41698473  0.61293994  1
  Si  Si153  1  0.52904321  0.42836194  0.61002197  1
  Si  Si154  1  0.35099450  0.66779799  0.61680642  1
  Si  Si155  1  0.97541492  0.32559628  0.89088976  1
  Si  Si156  1  0.35191595  0.16336499  0.11220385  1
  Si  Si157  1  0.14009848  0.59040883  0.88871419  1
  Si  Si158  1  0.69401796  0.33923812  0.11588781  1
  Si  Si159  1  0.86317917  0.41538154  0.11619772  1
  Si  Si160  1  0.19774861  0.08122663  0.61433108  1
  Si  Si161  1  0.97488495  0.67445024  0.88689634  1
  Si  Si162  1  0.47223907  0.57646039  0.38887134  1
  Si  Si163  1  0.19224723  0.08037431  0.11434051  1
  Si  Si164  1  0.47359895  0.58087510  0.88753198  1
  Si  Si165  1  0.81057359  0.58876269  0.89079429  1
  Si  Si166  1  0.47821658  0.41243362  0.38519534  1
  Si  Si167  1  0.64241971  0.33023106  0.38379299  1
  Si  Si168  1  0.30597389  0.16957865  0.38494696  1
  Si  Si169  1  0.63593588  0.66204927  0.39120820  1
  Si  Si170  1  0.63927813  0.33088995  0.88929888  1
  Si  Si171  1  0.14268462  0.08424081  0.38428973  1
  Si  Si172  1  0.64326983  0.16548773  0.38395849  1
  Si  Si173  1  0.52312656  0.07250127  0.61214388  1
  Si  Si174  1  0.02199859  0.66503180  0.61371163  1
  Si  Si175  1  0.80895100  0.08615814  0.38339451  1
  Si  Si176  1  0.30803849  0.83893089  0.38865164  1
  Si  Si177  1  0.86907492  0.58193034  0.11369793  1
  Si  Si178  1  0.03382448  0.16487405  0.61128831  1
  Si  Si179  1  0.36179922  0.16177120  0.61179723  1
  Si  Si180  1  0.86129683  0.91163848  0.10829254  1
  Si  Si181  1  0.97647934  0.16531384  0.38405288  1
  Si  Si182  1  0.13954283  0.41684688  0.38601757  1
  Si  Si183  1  0.97548967  0.83869702  0.88451580  1
  Si  Si184  1  0.03159822  0.33196173  0.61206689  1
  Si  Si185  1  0.47282975  0.41789456  0.88630464  1
  Si  Si186  1  0.68832892  0.83220683  0.61612183  1
  Si  Si187  1  0.19537901  0.91629416  0.61133941  1
  Si  Si188  1  0.30883076  0.83313320  0.88547232  1
  Si  Si189  1  0.30668486  0.33577914  0.38471489  1
  Si  Si190  1  0.97685905  0.83740625  0.38332607  1
  Si  Si191  1  0.03041958  0.16530817  0.11015284  1
  O  O192  1  0.27966897  0.10016009  0.08692510  1
  O  O193  1  0.28056065  0.10824704  0.58451499  1
  O  O194  1  0.28287565  0.60558906  0.06888319  1
  O  O195  1  0.26895860  0.61713737  0.58503704  1
  O  O196  1  0.59867003  0.12898019  0.08298120  1
  O  O197  1  0.60224796  0.09129759  0.57752217  1
  O  O198  1  0.61944395  0.58170333  0.08568735  1
  O  O199  1  0.60231996  0.62199156  0.58672849  1
  O  O200  1  0.95558521  0.11560219  0.07183516  1
  O  O201  1  0.95964469  0.11326882  0.57495389  1
  O  O202  1  0.95458596  0.61202600  0.08775279  1
  O  O203  1  0.93696743  0.61583331  0.58833138  1
  O  O204  1  0.10900131  0.35815879  0.08778657  1
  O  O205  1  0.11553260  0.36353789  0.58497571  1
  O  O206  1  0.11247596  0.86094706  0.08762188  1
  O  O207  1  0.11817219  0.86895721  0.57255123  1
  O  O208  1  0.45610881  0.35637897  0.07910444  1
  O  O209  1  0.45504630  0.37265817  0.57698658  1
  O  O210  1  0.43380935  0.88220105  0.08351432  1
  O  O211  1  0.44336042  0.85483939  0.58685778  1
  O  O212  1  0.77709127  0.36997235  0.08629934  1
  O  O213  1  0.77761934  0.35201585  0.56750521  1
  O  O214  1  0.78929638  0.85511028  0.07462649  1
  O  O215  1  0.76782838  0.86008906  0.58400997  1
  O  O216  1  0.26617055  0.39718477  0.08043455  1
  O  O217  1  0.26931744  0.39187280  0.57237718  1
  O  O218  1  0.27345208  0.89248146  0.08642337  1
  O  O219  1  0.28314163  0.88790521  0.58588100  1
  O  O220  1  0.61560919  0.39387005  0.08703640  1
  O  O221  1  0.61373469  0.41452142  0.57914309  1
  O  O222  1  0.59807576  0.89740232  0.07617659  1
  O  O223  1  0.60485169  0.88178806  0.58716906  1
  O  O224  1  0.94160876  0.37748748  0.08688037  1
  O  O225  1  0.95478843  0.38108653  0.57591850  1
  O  O226  1  0.95219660  0.88955132  0.08254402  1
  O  O227  1  0.92650351  0.88829842  0.57461754  1
  O  O228  1  0.11883547  0.13819348  0.08420264  1
  O  O229  1  0.12131889  0.13690900  0.58555884  1
  O  O230  1  0.11004961  0.65645421  0.08228079  1
  O  O231  1  0.10272587  0.62654495  0.58625509  1
  O  O232  1  0.43708410  0.13733608  0.08399941  1
  O  O233  1  0.44076995  0.12330294  0.58320612  1
  O  O234  1  0.46597757  0.63716204  0.07905771  1
  O  O235  1  0.43766566  0.64058077  0.59099874  1
  O  O236  1  0.75900855  0.14237160  0.07063436  1
  O  O237  1  0.77745413  0.15269821  0.56781722  1
  O  O238  1  0.79162814  0.62989791  0.07759973  1
  O  O239  1  0.77182132  0.63969201  0.58922761  1
  O  O240  1  0.06253837  0.11847942  0.41369526  1
  O  O241  1  0.06392273  0.11395081  0.91417564  1
  O  O242  1  0.05071108  0.61638447  0.41660001  1
  O  O243  1  0.06295415  0.63322413  0.91822714  1
  O  O244  1  0.39599619  0.12911466  0.41415779  1
  O  O245  1  0.39664572  0.11679761  0.91434167  1
  O  O246  1  0.39357168  0.59999640  0.42373095  1
  O  O247  1  0.39624469  0.62223231  0.91727746  1
  O  O248  1  0.72828125  0.11865437  0.41493834  1
  O  O249  1  0.73154065  0.12462029  0.91426505  1
  O  O250  1  0.71054312  0.60680099  0.42259700  1
  O  O251  1  0.73085883  0.62754462  0.92002419  1
  O  O252  1  0.22953457  0.37518147  0.41463112  1
  O  O253  1  0.23831564  0.36125409  0.92577077  1
  O  O254  1  0.22396569  0.87131453  0.41580651  1
  O  O255  1  0.23217293  0.87102446  0.91865045  1
  O  O256  1  0.56146438  0.36315055  0.41452388  1
  O  O257  1  0.55598354  0.36801051  0.91388337  1
  O  O258  1  0.54772679  0.87646014  0.42505931  1
  O  O259  1  0.56457565  0.87352037  0.91712001  1
  O  O260  1  0.89474699  0.35715572  0.41340270  1
  O  O261  1  0.89607855  0.35265244  0.92392404  1
  O  O262  1  0.89918063  0.87316390  0.41421203  1
  O  O263  1  0.89919281  0.87972600  0.91542392  1
  O  O264  1  0.06313470  0.37503309  0.41490735  1
  O  O265  1  0.05794774  0.36994555  0.92644167  1
  O  O266  1  0.06016742  0.88670570  0.41329325  1
  O  O267  1  0.06421353  0.88189805  0.91411405  1
  O  O268  1  0.39603964  0.37711213  0.41340918  1
  O  O269  1  0.39732086  0.37659916  0.91665138  1
  O  O270  1  0.38197048  0.89956481  0.41335176  1
  O  O271  1  0.39674893  0.87775813  0.91504093  1
  O  O272  1  0.72886293  0.37550269  0.41311042  1
  O  O273  1  0.71973988  0.37230417  0.93130565  1
  O  O274  1  0.73900815  0.88833367  0.42629176  1
  O  O275  1  0.73197710  0.87472632  0.91528473  1
  O  O276  1  0.22961846  0.13020917  0.41591584  1
  O  O277  1  0.23132692  0.12703297  0.91426182  1
  O  O278  1  0.21360831  0.62974333  0.42713454  1
  O  O279  1  0.22809613  0.63701135  0.91618001  1
  O  O280  1  0.56210183  0.13248394  0.41470190  1
  O  O281  1  0.56504677  0.12062293  0.91604816  1
  O  O282  1  0.55033552  0.63088005  0.41720050  1
  O  O283  1  0.56190365  0.62686282  0.91407227  1
  O  O284  1  0.89576827  0.13203062  0.41382339  1
  O  O285  1  0.89840900  0.12060690  0.91249552  1
  O  O286  1  0.89406023  0.64992129  0.42302267  1
  O  O287  1  0.89493527  0.63991370  0.91670951  1
  O  O288  1  0.16401747  -0.00149161  0.08740870  1
  O  O289  1  0.17938296  0.00028439  0.58329423  1
  O  O290  1  0.14363198  0.49449278  0.08428953  1
  O  O291  1  0.17183140  0.50066618  0.58722710  1
  O  O292  1  0.50356590  0.00945982  0.08424593  1
  O  O293  1  0.49245186  -0.01040996  0.58683780  1
  O  O294  1  0.49308229  0.49480526  0.08852876  1
  O  O295  1  0.49475012  0.51040695  0.58218552  1
  O  O296  1  0.83663056  -0.00919172  0.07686029  1
  O  O297  1  0.81835510  -0.00553131  0.57659728  1
  O  O298  1  0.85536214  0.49738312  0.08687372  1
  O  O299  1  0.83072571  0.50851804  0.58191322  1
  O  O300  1  0.00977249  0.24872712  0.08275967  1
  O  O301  1  0.02118645  0.24824821  0.58325193  1
  O  O302  1  -0.00367853  0.75335344  0.08944212  1
  O  O303  1  0.00620388  0.74073943  0.57522723  1
  O  O304  1  0.31879298  0.23833957  0.07793742  1
  O  O305  1  0.34296590  0.23844505  0.57539788  1
  O  O306  1  0.34080832  0.76356324  0.07745699  1
  O  O307  1  0.33120284  0.74963396  0.58558335  1
  O  O308  1  0.66977399  0.25857694  0.08519956  1
  O  O309  1  0.63053827  0.25119915  0.57254714  1
  O  O310  1  0.65256795  0.74400797  0.06675323  1
  O  O311  1  0.66702492  0.74996684  0.58885567  1
  O  O312  1  0.15814303  0.00201328  0.41449809  1
  O  O313  1  0.16015026  -0.00092396  0.91640588  1
  O  O314  1  0.14508128  0.49835776  0.41637442  1
  O  O315  1  0.15167207  0.51272761  0.92392394  1
  O  O316  1  0.48323216  0.00808972  0.41524020  1
  O  O317  1  0.48383684  -0.00226713  0.91686903  1
  O  O318  1  0.49734635  0.49320500  0.41556745  1
  O  O319  1  0.48583731  0.49941336  0.92093872  1
  O  O320  1  0.82883044  0.00377072  0.41081719  1
  O  O321  1  0.81136345  -0.00015777  0.91505429  1
  O  O322  1  0.83635873  0.48675672  0.42435686  1
  O  O323  1  0.82691587  0.51155737  0.92679538  1
  O  O324  1  0.31368173  0.25260522  0.41385763  1
  O  O325  1  0.32918040  0.24484724  0.91474034  1
  O  O326  1  0.33429516  0.76342478  0.42531638  1
  O  O327  1  0.32385859  0.75115588  0.91653632  1
  O  O328  1  0.65764864  0.24791540  0.41249812  1
  O  O329  1  0.64178078  0.24541854  0.91681925  1
  O  O330  1  0.65423199  0.74097956  0.42527292  1
  O  O331  1  0.64754889  0.75081895  0.91626976  1
  O  O332  1  0.99622671  0.24663072  0.41624868  1
  O  O333  1  0.99117912  0.23983840  0.91645112  1
  O  O334  1  0.99966065  0.75554451  0.41194291  1
  O  O335  1  0.98520971  0.75723828  0.91673812  1
  O  O336  1  0.21057130  0.08268028  0.19495524  1
  O  O337  1  0.21298611  0.08150881  0.69478582  1
  O  O338  1  0.21116488  0.58340488  0.20286314  1
  O  O339  1  0.20920730  0.58606406  0.69680279  1
  O  O340  1  0.54032874  0.08746392  0.19430784  1
  O  O341  1  0.54163906  0.07719687  0.69335276  1
  O  O342  1  0.54404769  0.58033388  0.19543745  1
  O  O343  1  0.54578797  0.58196372  0.69588192  1
  O  O344  1  0.88156290  0.09649595  0.19377666  1
  O  O345  1  0.87853063  0.08383999  0.69773327  1
  O  O346  1  0.88182909  0.58222703  0.19475028  1
  O  O347  1  0.87386247  0.58585908  0.69766122  1
  O  O348  1  0.04259003  0.33122358  0.19577085  1
  O  O349  1  0.04472096  0.33048828  0.69292826  1
  O  O350  1  0.04624499  0.83458334  0.19629793  1
  O  O351  1  0.04588492  0.83278719  0.69967140  1
  O  O352  1  0.37687005  0.33246600  0.20034559  1
  O  O353  1  0.36839795  0.33195225  0.69953789  1
  O  O354  1  0.37589289  0.83775644  0.19442700  1
  O  O355  1  0.37711024  0.82963395  0.69566788  1
  O  O356  1  0.71426814  0.33799977  0.19552869  1
  O  O357  1  0.71119450  0.33228331  0.69945407  1
  O  O358  1  0.71032906  0.83332629  0.19826476  1
  O  O359  1  0.70873343  0.83385126  0.69673626  1
  O  O360  1  0.20655638  0.41612161  0.19473107  1
  O  O361  1  0.21479048  0.41330196  0.69279830  1
  O  O362  1  0.21065778  0.91741711  0.19680733  1
  O  O363  1  0.20756217  0.91551747  0.69139991  1
  O  O364  1  0.54373602  0.41395459  0.19460359  1
  O  O365  1  0.54734593  0.42694885  0.69080651  1
  O  O366  1  0.53871992  0.92158429  0.19270287  1
  O  O367  1  0.54215930  0.91342923  0.69646910  1
  O  O368  1  0.87956380  0.41564267  0.19682831  1
  O  O369  1  0.88151001  0.41546779  0.70302674  1
  O  O370  1  0.88118570  0.90778407  0.18877332  1
  O  O371  1  0.86791228  0.91628509  0.68967779  1
  O  O372  1  0.04822112  0.16852955  0.19044772  1
  O  O373  1  0.04680772  0.16466556  0.69252423  1
  O  O374  1  0.04472860  0.66881159  0.19708098  1
  O  O375  1  0.04140374  0.66786708  0.69479996  1
  O  O376  1  0.37284067  0.16558921  0.19349770  1
  O  O377  1  0.37754088  0.16277698  0.69283197  1
  O  O378  1  0.38055741  0.66685709  0.20158434  1
  O  O379  1  0.36314191  0.66796275  0.69607885  1
  O  O380  1  0.71006867  0.16743517  0.19039161  1
  O  O381  1  0.71062889  0.16448720  0.69891507  1
  O  O382  1  0.70990917  0.66787208  0.20202342  1
  O  O383  1  0.70805974  0.66758970  0.69775951  1
  O  O384  1  0.13060738  0.08491359  0.30493237  1
  O  O385  1  0.12614029  0.08163136  0.80446275  1
  O  O386  1  0.12086623  0.58364263  0.30926262  1
  O  O387  1  0.11953887  0.59082003  0.80864990  1
  O  O388  1  0.45496125  0.08731670  0.30459723  1
  O  O389  1  0.45808095  0.07944272  0.80516483  1
  O  O390  1  0.45601046  0.57854473  0.30778803  1
  O  O391  1  0.45146709  0.57751313  0.80840243  1
  O  O392  1  0.78580877  0.09227221  0.30441250  1
  O  O393  1  0.78863592  0.08023565  0.80424454  1
  O  O394  1  0.79142301  0.58121532  0.30063485  1
  O  O395  1  0.79130088  0.58685115  0.80991344  1
  O  O396  1  0.28701304  0.33376388  0.30464387  1
  O  O397  1  0.28989993  0.33032093  0.80834067  1
  O  O398  1  0.29040995  0.83587340  0.30731586  1
  O  O399  1  0.28657829  0.83227806  0.80621420  1
  O  O400  1  0.62121372  0.33420875  0.30413273  1
  O  O401  1  0.63343744  0.33090723  0.81011821  1
  O  O402  1  0.61917245  0.83622913  0.30002835  1
  O  O403  1  0.62370256  0.83475225  0.80730486  1
  O  O404  1  0.96040150  0.33083978  0.30481449  1
  O  O405  1  0.95988918  0.32857374  0.80960320  1
  O  O406  1  0.95817329  0.83580695  0.30305028  1
  O  O407  1  0.95372398  0.83406684  0.80528774  1
  O  O408  1  0.12299500  0.41560694  0.30548573  1
  O  O409  1  0.12118293  0.41344568  0.79926200  1
  O  O410  1  0.12611320  0.91796007  0.30467993  1
  O  O411  1  0.13195470  0.91738461  0.80672755  1
  O  O412  1  0.45783463  0.41430881  0.30492505  1
  O  O413  1  0.45281452  0.42387267  0.80727063  1
  O  O414  1  0.45588510  0.92122025  0.30675144  1
  O  O415  1  0.46130688  0.91706122  0.80639081  1
  O  O416  1  0.79386971  0.41463476  0.30707231  1
  O  O417  1  0.78763337  0.41849391  0.80276227  1
  O  O418  1  0.78736561  0.91246884  0.30705863  1
  O  O419  1  0.78952799  0.91633719  0.80507458  1
  O  O420  1  0.28891172  0.16800487  0.30452676  1
  O  O421  1  0.29098553  0.16265094  0.80416841  1
  O  O422  1  0.28841414  0.66965178  0.30364649  1
  O  O423  1  0.29051161  0.66736972  0.80724676  1
  O  O424  1  0.62112798  0.16333013  0.30432829  1
  O  O425  1  0.62159611  0.16189624  0.80570038  1
  O  O426  1  0.62008479  0.66482559  0.30953763  1
  O  O427  1  0.63202152  0.66826120  0.80855148  1
  O  O428  1  0.95770899  0.17004868  0.30485919  1
  O  O429  1  0.96076547  0.16299912  0.80378259  1
  O  O430  1  0.95663395  0.66820457  0.30662194  1
  O  O431  1  0.95645141  0.67117831  0.80638850  1
  F  F432  1  0.05062473  -0.00446328  0.19655443  1
  F  F433  1  0.05057532  0.00226454  0.69956504  1
  F  F434  1  0.04481242  0.49969101  0.20565531  1
  F  F435  1  0.03813886  0.50296862  0.70122128  1
  F  F436  1  0.37819710  0.00159251  0.20355120  1
  F  F437  1  0.38008485  0.00050216  0.70060223  1
  F  F438  1  0.37798733  0.49962799  0.20400683  1
  F  F439  1  0.37680167  0.50206502  0.70087248  1
  F  F440  1  0.69720539  0.00187624  0.19720494  1
  F  F441  1  0.71031936  -0.00301088  0.70256119  1
  F  F442  1  0.71373989  0.49604833  0.20365069  1
  F  F443  1  0.71366560  0.50556401  0.70521069  1
  F  F444  1  0.21133131  0.24973182  0.20228413  1
  F  F445  1  0.21311488  0.24704195  0.70331403  1
  F  F446  1  0.21203726  0.75412590  0.20308165  1
  F  F447  1  0.21018847  0.74970783  0.70382376  1
  F  F448  1  0.53950239  0.24911135  0.19994329  1
  F  F449  1  0.54948683  0.23823086  0.70013726  1
  F  F450  1  0.54275414  0.74906661  0.20308096  1
  F  F451  1  0.54943412  0.75978191  0.70156779  1
  F  F452  1  0.87943627  0.25439551  0.19936011  1
  F  F453  1  0.88180127  0.25011098  0.70387348  1
  F  F454  1  0.87968436  0.74819377  0.20377420  1
  F  F455  1  0.87700833  0.74981698  0.70255627  1
  F  F456  1  0.28783068  0.00218411  0.29831452  1
  F  F457  1  0.28744117  0.00238021  0.79968274  1
  F  F458  1  0.28839231  0.49509359  0.30043742  1
  F  F459  1  0.28936125  0.49907070  0.79993960  1
  F  F460  1  0.61986366  0.00327138  0.29812768  1
  F  F461  1  0.62109671  -0.00103330  0.79795265  1
  F  F462  1  0.62150961  0.49754994  0.29776288  1
  F  F463  1  0.62054628  0.50051348  0.80064435  1
  F  F464  1  0.97026323  -0.00209495  0.30243071  1
  F  F465  1  0.95457522  -0.00012185  0.79808251  1
  F  F466  1  0.95644685  0.49857360  0.29968625  1
  F  F467  1  0.95580437  0.50411753  0.80251284  1
  F  F468  1  0.12196634  0.24952266  0.29751042  1
  F  F469  1  0.12299323  0.24649056  0.79728213  1
  F  F470  1  0.12155788  0.75147970  0.29941250  1
  F  F471  1  0.12197417  0.74986281  0.80052593  1
  F  F472  1  0.45326746  0.24751447  0.30012083  1
  F  F473  1  0.45148848  0.23489177  0.80305724  1
  F  F474  1  0.45533009  0.75455725  0.29964744  1
  F  F475  1  0.44908798  0.76057199  0.80644357  1
  F  F476  1  0.79324737  0.25065754  0.29817634  1
  F  F477  1  0.79225326  0.24581200  0.80026902  1
  F  F478  1  0.79162193  0.75131163  0.30118522  1
  F  F479  1  0.78847912  0.75319922  0.79841427  1
