# generated using pymatgen
data_K24Na3Li5Mg64Fe17Si79(O5F)48
_symmetry_space_group_name_H-M   'P 1'
_cell_length_a   16.09923953
_cell_length_b   18.58942366
_cell_length_c   20.55868374
_cell_angle_alpha   89.99796620
_cell_angle_beta   100.00698438
_cell_angle_gamma   89.98878443
_symmetry_Int_Tables_number   1
_chemical_formula_structural   K24Na3Li5Mg64Fe17Si79(O5F)48
_chemical_formula_sum   'K24 Na3 Li5 Mg64 Fe17 Si79 O240 F48'
_cell_volume   6059.10815343
_cell_formula_units_Z   1
loop_
 _symmetry_equiv_pos_site_id
 _symmetry_equiv_pos_as_xyz
  1  'x, y, z'
loop_
 _atom_site_type_symbol
 _atom_site_label
 _atom_site_symmetry_multiplicity
 _atom_site_fract_x
 _atom_site_fract_y
 _atom_site_fract_z
 _atom_site_occupancy
  K  K0  1  -0.00640248  -0.00087331  0.00396991  1
  K  K1  1  0.00073376  -0.00561901  0.49337392  1
  K  K2  1  0.01550741  0.49991715  0.00749062  1
  K  K3  1  0.00824440  0.50425218  0.50302417  1
  K  K4  1  0.32073897  0.00713122  0.00761252  1
  K  K5  1  0.33150760  -0.00269893  0.48417687  1
  K  K6  1  0.33239352  0.49857048  0.00688697  1
  K  K7  1  0.32827505  0.50185136  0.50004232  1
  K  K8  1  0.67968525  0.00835467  0.00380329  1
  K  K9  1  0.66825669  -0.00260095  0.49812040  1
  K  K10  1  0.64936798  0.49914293  -0.00515992  1
  K  K11  1  0.65674192  0.49400149  0.50253624  1
  K  K12  1  0.17063755  0.25941134  0.00774091  1
  K  K13  1  0.18140994  0.25258687  0.49107894  1
  K  K14  1  0.16294020  0.74747116  0.00526717  1
  K  K15  1  0.16380006  0.73818040  0.49310773  1
  K  K16  1  0.50520580  0.25024642  0.00211986  1
  K  K17  1  0.50036212  0.25820455  0.49354946  1
  K  K18  1  0.49731117  0.74369146  0.00584983  1
  K  K19  1  0.49784654  0.74629729  0.49321003  1
  K  K20  1  0.83978425  0.24522699  0.00175115  1
  K  K21  1  0.82635578  0.25277363  0.50101010  1
  K  K22  1  0.83872015  0.74877916  -0.00133456  1
  K  K23  1  0.84275928  0.73883115  0.50285380  1
  Na  Na24  1  0.83318933  0.00024957  0.75427598  1
  Na  Na25  1  0.16883464  0.16959288  0.25529126  1
  Na  Na26  1  0.00086826  0.91846719  0.24578225  1
  Li  Li27  1  0.49005289  0.50346120  0.73950467  1
  Li  Li28  1  0.17385036  0.50623937  0.24878911  1
  Li  Li29  1  0.49444018  0.83389200  0.25022684  1
  Li  Li30  1  0.33578911  0.57640191  0.74247734  1
  Li  Li31  1  0.16964885  0.66290779  0.24714467  1
  Mg  Mg32  1  0.83194057  0.49860638  0.75009284  1
  Mg  Mg33  1  -0.00001127  0.74708955  0.74994634  1
  Mg  Mg34  1  0.33308967  0.75220014  0.24928785  1
  Mg  Mg35  1  0.00236032  0.25145332  0.25137124  1
  Mg  Mg36  1  0.50080594  0.50213226  0.24921207  1
  Mg  Mg37  1  0.66539329  0.74711671  0.74683798  1
  Mg  Mg38  1  0.33210198  0.74776485  0.74656065  1
  Mg  Mg39  1  0.16899542  0.50151087  0.75110674  1
  Mg  Mg40  1  0.83481776  0.49903479  0.25031104  1
  Mg  Mg41  1  0.49964134  -0.00095685  0.75097511  1
  Mg  Mg42  1  0.16745240  0.00027819  0.25258332  1
  Mg  Mg43  1  0.66539420  0.74972091  0.24808631  1
  Mg  Mg44  1  0.33260755  0.25030780  0.75360298  1
  Mg  Mg45  1  -0.00143270  0.25304624  0.75412516  1
  Mg  Mg46  1  0.66521753  0.25072681  0.74981464  1
  Mg  Mg47  1  0.00378785  0.74917579  0.24845755  1
  Mg  Mg48  1  0.83548612  -0.00049257  0.24862510  1
  Mg  Mg49  1  0.66569050  0.25068474  0.25015903  1
  Mg  Mg50  1  0.16496123  0.00228436  0.75103962  1
  Mg  Mg51  1  0.50083000  -0.00464112  0.25503076  1
  Mg  Mg52  1  0.33264222  0.25275658  0.25375074  1
  Mg  Mg53  1  0.16860613  0.33647663  0.75380707  1
  Mg  Mg54  1  0.66093421  0.58095113  0.74675544  1
  Mg  Mg55  1  0.83459143  0.83321288  0.75159226  1
  Mg  Mg56  1  -0.00027378  0.91628818  0.74980081  1
  Mg  Mg57  1  0.32984340  0.58628088  0.24659248  1
  Mg  Mg58  1  0.16618926  0.83197923  0.25063126  1
  Mg  Mg59  1  0.17062883  0.33874337  0.25455827  1
  Mg  Mg60  1  0.83196100  0.33461304  0.75136289  1
  Mg  Mg61  1  0.83287646  0.33406652  0.25108130  1
  Mg  Mg62  1  0.49857765  0.66930314  0.24460313  1
  Mg  Mg63  1  0.33455600  0.41999928  0.74859035  1
  Mg  Mg64  1  0.33241661  0.08494386  0.75243865  1
  Mg  Mg65  1  0.33240308  0.91642850  0.74913907  1
  Mg  Mg66  1  0.83451369  0.83300437  0.24755563  1
  Mg  Mg67  1  0.00175036  0.41687917  0.75263944  1
  Mg  Mg68  1  0.49438747  0.66210623  0.74400374  1
  Mg  Mg69  1  0.66436058  0.41594532  0.24971489  1
  Mg  Mg70  1  0.33207877  0.41961343  0.25400558  1
  Mg  Mg71  1  0.66672263  0.08322650  0.25095382  1
  Mg  Mg72  1  0.00575798  0.58207426  0.24853747  1
  Mg  Mg73  1  0.66596557  0.91351583  0.25209263  1
  Mg  Mg74  1  0.83458168  0.66512781  0.24686256  1
  Mg  Mg75  1  0.00069021  0.08354761  0.25155090  1
  Mg  Mg76  1  0.66454170  0.58351642  0.24581077  1
  Mg  Mg77  1  0.50018352  0.16503353  0.25638133  1
  Mg  Mg78  1  0.16834804  0.66444851  0.74848980  1
  Mg  Mg79  1  0.50090060  0.33681912  0.25097245  1
  Mg  Mg80  1  0.33420986  0.08373395  0.25606024  1
  Mg  Mg81  1  0.00206778  0.58575789  0.75073231  1
  Mg  Mg82  1  0.83266972  0.16605274  0.75271552  1
  Mg  Mg83  1  0.00465219  0.41771766  0.25106315  1
  Mg  Mg84  1  0.16533318  0.83413411  0.74703999  1
  Mg  Mg85  1  0.83439488  0.16493576  0.24882512  1
  Mg  Mg86  1  0.66642711  0.08342829  0.75075481  1
  Mg  Mg87  1  0.83364804  0.66349619  0.74836489  1
  Mg  Mg88  1  0.66112853  0.41675247  0.74650739  1
  Mg  Mg89  1  0.33385872  0.91544802  0.25254995  1
  Mg  Mg90  1  0.49889354  0.83176643  0.74864673  1
  Mg  Mg91  1  0.49897124  0.16574729  0.75180752  1
  Mg  Mg92  1  -0.00065665  0.08552019  0.75397512  1
  Mg  Mg93  1  0.49747017  0.33766211  0.74631700  1
  Mg  Mg94  1  0.66778220  0.91547645  0.75151423  1
  Mg  Mg95  1  0.16761820  0.16823817  0.75272363  1
  Fe  Fe96  1  0.31441964  0.16392579  0.39734923  1
  Fe  Fe97  1  0.02827956  0.66507391  0.60837529  1
  Fe  Fe98  1  0.14905040  0.42004084  0.89113559  1
  Fe  Fe99  1  0.51962795  0.58694296  0.60491354  1
  Fe  Fe100  1  0.48223018  0.90729283  0.39157472  1
  Fe  Fe101  1  0.18425516  0.91933422  0.11102244  1
  Fe  Fe102  1  0.30856018  0.33998516  0.39665783  1
  Fe  Fe103  1  0.30974715  0.16518452  0.89236716  1
  Fe  Fe104  1  0.64151793  0.33562951  0.39029932  1
  Fe  Fe105  1  0.52665580  0.41350133  0.10835513  1
  Fe  Fe106  1  0.86280380  0.08265432  0.10987539  1
  Fe  Fe107  1  0.80348599  0.08651873  0.89159036  1
  Fe  Fe108  1  0.69002266  0.33002790  0.60971404  1
  Fe  Fe109  1  0.19913732  0.41949692  0.11394433  1
  Fe  Fe110  1  0.97481792  0.33628119  0.89292108  1
  Fe  Fe111  1  0.51987462  0.58358246  0.10589083  1
  Fe  Fe112  1  0.97473472  0.66217035  0.89070081  1
  Si  Si113  1  0.19621621  0.58000975  0.61099188  1
  Si  Si114  1  0.81271095  0.91550393  0.38551717  1
  Si  Si115  1  0.36491612  0.32536535  0.11455558  1
  Si  Si116  1  0.02446457  0.17074660  0.61528014  1
  Si  Si117  1  0.79877310  0.41476903  0.88703104  1
  Si  Si118  1  0.14269411  0.91740781  0.88319612  1
  Si  Si119  1  0.86167492  0.08651559  0.61600588  1
  Si  Si120  1  0.86218228  0.41540608  0.11658399  1
  Si  Si121  1  0.81280510  0.58141852  0.38317503  1
  Si  Si122  1  0.18949956  0.08651838  0.61495541  1
  Si  Si123  1  0.62946530  0.33692051  0.88341679  1
  Si  Si124  1  0.64073467  0.82757255  0.88504162  1
  Si  Si125  1  0.47338418  0.07733958  0.88744624  1
  Si  Si126  1  0.15153255  0.58607127  0.88838943  1
  Si  Si127  1  0.46613077  0.58714558  0.87857683  1
  Si  Si128  1  0.80603972  0.91046077  0.88820926  1
  Si  Si129  1  0.52881127  0.91695635  0.11674072  1
  Si  Si130  1  0.80970782  0.41868075  0.38720571  1
  Si  Si131  1  0.69466725  0.66896166  0.60984654  1
  Si  Si132  1  0.79922955  0.58108012  0.88573299  1
  Si  Si133  1  0.97046542  0.33161117  0.38699286  1
  Si  Si134  1  0.47283215  0.42688987  0.38898589  1
  Si  Si135  1  0.02088575  0.82506653  0.11065328  1
  Si  Si136  1  0.13198953  0.41850971  0.39053894  1
  Si  Si137  1  0.52535065  0.08211659  0.11773522  1
  Si  Si138  1  0.97794548  0.83415571  0.88672019  1
  Si  Si139  1  0.51876995  0.41583438  0.60831908  1
  Si  Si140  1  0.13548188  0.07776841  0.39175524  1
  Si  Si141  1  0.35741777  0.84116360  0.11324117  1
  Si  Si142  1  0.69856908  0.33396955  0.11306627  1
  Si  Si143  1  0.85378919  0.91177678  0.11096983  1
  Si  Si144  1  0.47824098  0.91454093  0.88445542  1
  Si  Si145  1  0.65415205  0.82659318  0.38880923  1
  Si  Si146  1  0.97420391  0.83012667  0.38373355  1
  Si  Si147  1  0.30560985  0.82929637  0.39100570  1
  Si  Si148  1  0.46791759  0.42289676  0.88081251  1
  Si  Si149  1  0.19036533  0.92237120  0.61343525  1
  Si  Si150  1  0.19676161  0.41350512  0.61433015  1
  Si  Si151  1  0.47863826  0.59116336  0.38250303  1
  Si  Si152  1  0.02707162  0.33529827  0.11573384  1
  Si  Si153  1  0.69558519  0.66508319  0.11045056  1
  Si  Si154  1  0.30712507  0.67375429  0.88238285  1
  Si  Si155  1  0.97846466  0.16651621  0.88995056  1
  Si  Si156  1  0.13958005  0.58279446  0.38271449  1
  Si  Si157  1  0.52358592  0.07781892  0.61595803  1
  Si  Si158  1  0.02205251  0.66279934  0.11447234  1
  Si  Si159  1  0.02763187  0.17097363  0.11669035  1
  Si  Si160  1  0.30767199  0.66385801  0.38353976  1
  Si  Si161  1  0.68787497  0.16037959  0.61206643  1
  Si  Si162  1  0.68940454  0.16802294  0.11422295  1
  Si  Si163  1  0.19249118  0.58944407  0.11203826  1
  Si  Si164  1  0.30979713  0.83672838  0.88362835  1
  Si  Si165  1  0.35400376  0.67621931  0.10967899  1
  Si  Si166  1  0.31464288  0.33229286  0.88823719  1
  Si  Si167  1  0.52342250  0.91239771  0.61541615  1
  Si  Si168  1  0.64984373  0.66443942  0.38356155  1
  Si  Si169  1  0.35472769  0.67373603  0.60873438  1
  Si  Si170  1  0.35857278  0.16108884  0.11937009  1
  Si  Si171  1  0.85713889  0.58006057  0.61117716  1
  Si  Si172  1  0.86101038  0.41521506  0.61277569  1
  Si  Si173  1  0.80810261  0.08081892  0.38562567  1
  Si  Si174  1  0.35951321  0.16264165  0.61593425  1
  Si  Si175  1  0.35888151  0.32788790  0.61489008  1
  Si  Si176  1  0.19024441  0.08592602  0.11780409  1
  Si  Si177  1  0.64685993  0.16479752  0.38882389  1
  Si  Si178  1  0.69438145  0.83610965  0.61439659  1
  Si  Si179  1  0.35286940  0.83633916  0.61295866  1
  Si  Si180  1  0.69071187  0.83124604  0.11350935  1
  Si  Si181  1  0.86103004  0.91917215  0.61540837  1
  Si  Si182  1  0.48513760  0.07823063  0.39316608  1
  Si  Si183  1  0.85973411  0.58010119  0.11435642  1
  Si  Si184  1  0.63377835  0.66372999  0.88200375  1
  Si  Si185  1  0.63172412  0.17022946  0.88776301  1
  Si  Si186  1  0.02445997  0.83706477  0.61024678  1
  Si  Si187  1  0.97227583  0.16593459  0.38766606  1
  Si  Si188  1  0.14091914  0.91297497  0.38759890  1
  Si  Si189  1  0.97543213  0.66747606  0.38361557  1
  Si  Si190  1  0.13796697  0.08265789  0.88744449  1
  Si  Si191  1  0.02890045  0.33610406  0.61488524  1
  O  O192  1  0.27625229  0.11218143  0.08926260  1
  O  O193  1  0.27117909  0.11940137  0.58708573  1
  O  O194  1  0.26470000  0.63524518  0.08036920  1
  O  O195  1  0.27551703  0.61875603  0.58282705  1
  O  O196  1  0.60053535  0.12341017  0.08733869  1
  O  O197  1  0.60558958  0.10660139  0.58656542  1
  O  O198  1  0.61739752  0.61853990  0.07377856  1
  O  O199  1  0.61171877  0.62929197  0.57149739  1
  O  O200  1  0.95596038  0.11821420  0.07643585  1
  O  O201  1  0.93763408  0.12630006  0.58348067  1
  O  O202  1  0.94221977  0.60846348  0.08485861  1
  O  O203  1  0.93193715  0.61023068  0.57518422  1
  O  O204  1  0.10307469  0.36307208  0.08124315  1
  O  O205  1  0.10860784  0.37004777  0.58438286  1
  O  O206  1  0.09341257  0.85776774  0.07356677  1
  O  O207  1  0.10369306  0.87904532  0.58324608  1
  O  O208  1  0.44971518  0.33908298  0.08329026  1
  O  O209  1  0.43694922  0.36034152  0.58390346  1
  O  O210  1  0.44420909  0.87079530  0.08701967  1
  O  O211  1  0.43763986  0.86603345  0.58612162  1
  O  O212  1  0.78718576  0.35809031  0.08791939  1
  O  O213  1  0.78772465  0.36146388  0.57857793  1
  O  O214  1  0.76805822  0.86432836  0.08090865  1
  O  O215  1  0.76908002  0.88096756  0.58550378  1
  O  O216  1  0.28969771  0.37788994  0.08012193  1
  O  O217  1  0.27129514  0.37069640  0.58450908  1
  O  O218  1  0.28169093  0.89212336  0.07663479  1
  O  O219  1  0.27295715  0.89066336  0.58523093  1
  O  O220  1  0.62725238  0.38774914  0.07696345  1
  O  O221  1  0.59674412  0.38621120  0.57462215  1
  O  O222  1  0.60553124  0.87834753  0.08469367  1
  O  O223  1  0.60363978  0.87710455  0.58648838  1
  O  O224  1  0.94488472  0.38817710  0.08787745  1
  O  O225  1  0.94826313  0.38795298  0.58605025  1
  O  O226  1  0.93191906  0.86967511  0.08519313  1
  O  O227  1  0.93770984  0.88429279  0.58175599  1
  O  O228  1  0.11989141  0.15067313  0.09648655  1
  O  O229  1  0.10423932  0.13348102  0.58603810  1
  O  O230  1  0.10350508  0.63458289  0.08451455  1
  O  O231  1  0.11291089  0.61965782  0.57065043  1
  O  O232  1  0.43743932  0.12463714  0.08819974  1
  O  O233  1  0.43750412  0.12385576  0.58690222  1
  O  O234  1  0.42875656  0.64537467  0.07407211  1
  O  O235  1  0.43139153  0.65235985  0.57165107  1
  O  O236  1  0.76247100  0.13440750  0.07902874  1
  O  O237  1  0.77018696  0.12299384  0.58545720  1
  O  O238  1  0.78188582  0.63491986  0.08474136  1
  O  O239  1  0.77550437  0.63213297  0.58299279  1
  O  O240  1  0.05293590  0.11545565  0.41952476  1
  O  O241  1  0.04906299  0.10117722  0.91196247  1
  O  O242  1  0.06515321  0.62809125  0.41386647  1
  O  O243  1  0.06989085  0.60589661  0.92188804  1
  O  O244  1  0.40749909  0.10294967  0.42875512  1
  O  O245  1  0.39200981  0.09313551  0.92082322  1
  O  O246  1  0.39968900  0.62561914  0.41433975  1
  O  O247  1  0.38889778  0.62293426  0.91153826  1
  O  O248  1  0.72685107  0.10898300  0.41651064  1
  O  O249  1  0.71141427  0.12612460  0.92580802  1
  O  O250  1  0.72948301  0.60977951  0.41270268  1
  O  O251  1  0.71328045  0.61189663  0.91160020  1
  O  O252  1  0.21331311  0.37692754  0.42953375  1
  O  O253  1  0.23175702  0.34932853  0.91991320  1
  O  O254  1  0.22605819  0.86781598  0.42092849  1
  O  O255  1  0.22748841  0.86885557  0.91169098  1
  O  O256  1  0.54880383  0.37333179  0.42199217  1
  O  O257  1  0.55134965  0.37450096  0.91288378  1
  O  O258  1  0.57798362  0.84957904  0.42583610  1
  O  O259  1  0.55824862  0.86138261  0.91278061  1
  O  O260  1  0.88822732  0.36316231  0.41563550  1
  O  O261  1  0.87331882  0.36304289  0.92275780  1
  O  O262  1  0.90031273  0.87242219  0.41576923  1
  O  O263  1  0.89472088  0.86594959  0.91474763  1
  O  O264  1  0.04943021  0.38296038  0.41913540  1
  O  O265  1  0.05336957  0.40405188  0.92713704  1
  O  O266  1  0.06195413  0.87187324  0.41461923  1
  O  O267  1  0.06011364  0.88793615  0.91146739  1
  O  O268  1  0.39123921  0.41087850  0.42274539  1
  O  O269  1  0.38776536  0.39434501  0.91276422  1
  O  O270  1  0.39006130  0.86936475  0.42828728  1
  O  O271  1  0.39351197  0.88688307  0.91227174  1
  O  O272  1  0.73147021  0.39873439  0.42258888  1
  O  O273  1  0.71230195  0.38520358  0.91251363  1
  O  O274  1  0.73778432  0.87801070  0.41849123  1
  O  O275  1  0.72722729  0.86976421  0.91759646  1
  O  O276  1  0.21840684  0.12015626  0.42727668  1
  O  O277  1  0.21148722  0.13544342  0.92344440  1
  O  O278  1  0.23226699  0.61973210  0.41299766  1
  O  O279  1  0.22410735  0.64978241  0.91272020  1
  O  O280  1  0.56537078  0.13453821  0.41820404  1
  O  O281  1  0.54801152  0.13591706  0.91390216  1
  O  O282  1  0.56399458  0.64020966  0.41119081  1
  O  O283  1  0.55100787  0.63483382  0.91057676  1
  O  O284  1  0.89046502  0.13094526  0.41599175  1
  O  O285  1  0.89701665  0.14461269  0.92230536  1
  O  O286  1  0.89538977  0.63159382  0.41299275  1
  O  O287  1  0.87684945  0.63006302  0.92183900  1
  O  O288  1  0.15743750  0.01325149  0.07722084  1
  O  O289  1  0.17466744  0.00472166  0.58452614  1
  O  O290  1  0.18174993  0.51204673  0.07553809  1
  O  O291  1  0.19202205  0.49516119  0.58366597  1
  O  O292  1  0.51840517  -0.00009959  0.08640777  1
  O  O293  1  0.50694637  -0.00507969  0.58773969  1
  O  O294  1  0.49307100  0.49755020  0.06341088  1
  O  O295  1  0.49042852  0.49344526  0.57500513  1
  O  O296  1  0.84200191  -0.01079481  0.07504345  1
  O  O297  1  0.85444058  0.00281349  0.58826175  1
  O  O298  1  0.83741549  0.49736406  0.08761242  1
  O  O299  1  0.83755979  0.49710326  0.58365437  1
  O  O300  1  0.00170811  0.25318569  0.08866781  1
  O  O301  1  0.01250567  0.25312778  0.58514818  1
  O  O302  1  -0.00296299  0.74232800  0.08179598  1
  O  O303  1  0.01264330  0.76023747  0.57384227  1
  O  O304  1  0.33778725  0.24153221  0.08980564  1
  O  O305  1  0.34556654  0.24443128  0.58768402  1
  O  O306  1  0.33998280  0.75970370  0.08201531  1
  O  O307  1  0.32479668  0.75727277  0.58235035  1
  O  O308  1  0.67390040  0.25127568  0.08693818  1
  O  O309  1  0.66849319  0.23591180  0.57470673  1
  O  O310  1  0.67894691  0.74913920  0.08390250  1
  O  O311  1  0.69246788  0.75471453  0.58409780  1
  O  O312  1  0.14234708  -0.00641106  0.42219958  1
  O  O313  1  0.16354493  -0.00119312  0.91128038  1
  O  O314  1  0.13727603  0.50329569  0.41765687  1
  O  O315  1  0.19419484  0.51123114  0.91657820  1
  O  O316  1  0.51704368  -0.00020320  0.42345563  1
  O  O317  1  0.50659651  -0.00495622  0.91201278  1
  O  O318  1  0.50251391  0.51092923  0.41223041  1
  O  O319  1  0.48544172  0.50558656  0.90833085  1
  O  O320  1  0.82710485  -0.00168777  0.41477456  1
  O  O321  1  0.81622038  -0.01060009  0.92043599  1
  O  O322  1  0.84035190  0.50116088  0.41174655  1
  O  O323  1  0.81051708  0.49838877  0.91446975  1
  O  O324  1  0.33366294  0.25238613  0.43957598  1
  O  O325  1  0.35525329  0.25562275  0.91720335  1
  O  O326  1  0.30805128  0.74448524  0.41766285  1
  O  O327  1  0.33147137  0.75584652  0.91301391  1
  O  O328  1  0.67382573  0.24212229  0.42124903  1
  O  O329  1  0.63809519  0.25476124  0.91380041  1
  O  O330  1  0.68200802  0.74328898  0.41434880  1
  O  O331  1  0.65235167  0.74517661  0.91357319  1
  O  O332  1  0.98581351  0.24878770  0.41725445  1
  O  O333  1  1.01600952  0.24279789  0.91974333  1
  O  O334  1  0.98240194  0.74871575  0.41599501  1
  O  O335  1  1.00036185  0.75740247  0.92149934  1
  O  O336  1  0.21564588  0.07608134  0.19688119  1
  O  O337  1  0.20746838  0.08351980  0.69510447  1
  O  O338  1  0.21360043  0.58736626  0.19122717  1
  O  O339  1  0.20539510  0.58317308  0.69068222  1
  O  O340  1  0.54456659  0.08130612  0.19816509  1
  O  O341  1  0.54024528  0.08089496  0.69658191  1
  O  O342  1  0.54513235  0.58486518  0.19821495  1
  O  O343  1  0.54481858  0.58734679  0.69521790  1
  O  O344  1  0.87719824  0.08280130  0.20121526  1
  O  O345  1  0.88342948  0.09104792  0.69497569  1
  O  O346  1  0.87638554  0.58175290  0.19480095  1
  O  O347  1  0.87454168  0.58158522  0.69203047  1
  O  O348  1  0.04249294  0.33547795  0.19658877  1
  O  O349  1  0.04548614  0.33264537  0.69462952  1
  O  O350  1  0.04577887  0.82410789  0.19022830  1
  O  O351  1  0.04321500  0.83586337  0.69118124  1
  O  O352  1  0.38159823  0.33150138  0.19579091  1
  O  O353  1  0.37480023  0.32973961  0.69509506  1
  O  O354  1  0.37043329  0.83667827  0.19297809  1
  O  O355  1  0.37356322  0.83630777  0.69354799  1
  O  O356  1  0.71356015  0.33397839  0.19411628  1
  O  O357  1  0.70998351  0.33238504  0.70136043  1
  O  O358  1  0.70959559  0.83216136  0.19396610  1
  O  O359  1  0.71008312  0.83425293  0.69469356  1
  O  O360  1  0.21285417  0.42065592  0.20385212  1
  O  O361  1  0.21180914  0.41403718  0.69409960  1
  O  O362  1  0.21038230  0.91592364  0.20239476  1
  O  O363  1  0.20906101  0.91967961  0.69386772  1
  O  O364  1  0.54516170  0.41983330  0.20046689  1
  O  O365  1  0.54161539  0.41300898  0.68892994  1
  O  O366  1  0.54954017  0.91917224  0.19615396  1
  O  O367  1  0.54118376  0.91348694  0.69589771  1
  O  O368  1  0.87738476  0.41640776  0.19722693  1
  O  O369  1  0.87662884  0.41713018  0.69351965  1
  O  O370  1  0.86429383  0.91503413  0.19081053  1
  O  O371  1  0.88100117  0.91043779  0.69436397  1
  O  O372  1  0.03211711  0.16894171  0.19611111  1
  O  O373  1  0.04360822  0.16839901  0.69551724  1
  O  O374  1  0.03624656  0.66487848  0.19386629  1
  O  O375  1  0.04741604  0.66788073  0.69954435  1
  O  O376  1  0.38148122  0.16265123  0.19932255  1
  O  O377  1  0.37793136  0.16257589  0.69616072  1
  O  O378  1  0.37524581  0.67090992  0.19036578  1
  O  O379  1  0.37676645  0.67559825  0.68853263  1
  O  O380  1  0.70907627  0.16595061  0.19533266  1
  O  O381  1  0.70498595  0.16535730  0.69257686  1
  O  O382  1  0.71228013  0.66516944  0.19153394  1
  O  O383  1  0.70957425  0.66732145  0.69104146  1
  O  O384  1  0.11730073  0.07549151  0.31228646  1
  O  O385  1  0.12457831  0.08450278  0.80577269  1
  O  O386  1  0.12024393  0.58327234  0.30418323  1
  O  O387  1  0.12754667  0.58599131  0.80669477  1
  O  O388  1  0.46418485  0.08049264  0.31159504  1
  O  O389  1  0.45541939  0.07954752  0.80605352  1
  O  O390  1  0.45794779  0.58960537  0.30258545  1
  O  O391  1  0.44979765  0.58927740  0.79996805  1
  O  O392  1  0.78870004  0.08268109  0.30569538  1
  O  O393  1  0.78071127  0.09103917  0.80134108  1
  O  O394  1  0.79242914  0.58380687  0.30291132  1
  O  O395  1  0.78619868  0.58318965  0.80441601  1
  O  O396  1  0.29277307  0.33563503  0.30531467  1
  O  O397  1  0.29271294  0.33319820  0.80628066  1
  O  O398  1  0.29144560  0.83160755  0.31078351  1
  O  O399  1  0.29067060  0.83647789  0.80293348  1
  O  O400  1  0.62459200  0.33268737  0.29906394  1
  O  O401  1  0.61586806  0.33375397  0.80325774  1
  O  O402  1  0.63640584  0.83066242  0.30888862  1
  O  O403  1  0.62203269  0.83084181  0.80446264  1
  O  O404  1  0.95359628  0.33312827  0.30672183  1
  O  O405  1  0.95345244  0.33534628  0.79968677  1
  O  O406  1  0.95149107  0.82615034  0.30481428  1
  O  O407  1  0.95861725  0.83338340  0.80531742  1
  O  O408  1  0.11696327  0.41527090  0.31106969  1
  O  O409  1  0.12292434  0.41843960  0.79851360  1
  O  O410  1  0.13065536  0.91552568  0.30900766  1
  O  O411  1  0.12542189  0.91609266  0.80235245  1
  O  O412  1  0.45721171  0.42176841  0.30776828  1
  O  O413  1  0.45298729  0.41561515  0.80153520  1
  O  O414  1  0.45533052  0.91441903  0.30176235  1
  O  O415  1  0.45693427  0.91447494  0.80370760  1
  O  O416  1  0.79129613  0.41691401  0.30615454  1
  O  O417  1  0.78742054  0.41686479  0.80605553  1
  O  O418  1  0.79241318  0.91501292  0.30539343  1
  O  O419  1  0.78428575  0.90606981  0.80813562  1
  O  O420  1  0.30370455  0.16791350  0.30724274  1
  O  O421  1  0.28831852  0.16548146  0.79993390  1
  O  O422  1  0.29475752  0.66760172  0.30456837  1
  O  O423  1  0.28670839  0.67558973  0.80279740  1
  O  O424  1  0.62758514  0.16445062  0.30768707  1
  O  O425  1  0.61848314  0.16690525  0.80657319  1
  O  O426  1  0.63059873  0.66637148  0.30357115  1
  O  O427  1  0.62043371  0.66801913  0.80193467  1
  O  O428  1  0.95564955  0.16844853  0.30789630  1
  O  O429  1  0.95803967  0.16727029  0.80775900  1
  O  O430  1  0.95600685  0.66590239  0.30370681  1
  O  O431  1  0.95230798  0.66625619  0.79883404  1
  F  F432  1  0.05016169  0.01026825  0.19952908  1
  F  F433  1  0.04627142  0.00171153  0.70028509  1
  F  F434  1  0.03519351  0.49898584  0.19809874  1
  F  F435  1  0.04459875  0.50258968  0.70133554  1
  F  F436  1  0.38109905  0.00236204  0.20563521  1
  F  F437  1  0.37747565  -0.00025042  0.70206804  1
  F  F438  1  0.38003921  0.50236474  0.20213279  1
  F  F439  1  0.37197755  0.49467183  0.69278030  1
  F  F440  1  0.71132795  -0.00109763  0.20383563  1
  F  F441  1  0.69644758  -0.00290458  0.69826517  1
  F  F442  1  0.71473843  0.49950492  0.20235020  1
  F  F443  1  0.71278994  0.49978759  0.69968050  1
  F  F444  1  0.21583590  0.26118846  0.20166461  1
  F  F445  1  0.21085072  0.25121895  0.70170091  1
  F  F446  1  0.21406116  0.75333078  0.20348342  1
  F  F447  1  0.21095654  0.75409927  0.69823520  1
  F  F448  1  0.54604133  0.24391253  0.20348440  1
  F  F449  1  0.54287513  0.24708518  0.70137075  1
  F  F450  1  0.54992950  0.74843341  0.19887909  1
  F  F451  1  0.54499158  0.75284563  0.69909766  1
  F  F452  1  0.87785090  0.25108810  0.20398057  1
  F  F453  1  0.87726871  0.24823078  0.70243593  1
  F  F454  1  0.87813692  0.74865954  0.19957157  1
  F  F455  1  0.87681903  0.75171554  0.70003487  1
  F  F456  1  0.29085286  -0.00006153  0.30412623  1
  F  F457  1  0.28737623  -0.00123188  0.79712436  1
  F  F458  1  0.29729212  0.50734997  0.30172649  1
  F  F459  1  0.28760761  0.49894308  0.79543940  1
  F  F460  1  0.62598045  -0.00137985  0.30062042  1
  F  F461  1  0.61850215  -0.00292441  0.79958401  1
  F  F462  1  0.62687649  0.50270479  0.29997713  1
  F  F463  1  0.62649664  0.49861595  0.79736009  1
  F  F464  1  0.94928170  0.00538862  0.30465541  1
  F  F465  1  0.96879746  -0.00151722  0.80070246  1
  F  F466  1  0.95409075  0.50113087  0.29928320  1
  F  F467  1  0.95257524  0.50204770  0.79605668  1
  F  F468  1  0.11552558  0.26123907  0.30501698  1
  F  F469  1  0.12160612  0.25051479  0.79757543  1
  F  F470  1  0.11700871  0.75507997  0.30269345  1
  F  F471  1  0.12264352  0.75499360  0.79643440  1
  F  F472  1  0.45965981  0.25171210  0.30015472  1
  F  F473  1  0.45510563  0.24949568  0.79654182  1
  F  F474  1  0.45422376  0.74762182  0.29591651  1
  F  F475  1  0.45358753  0.75178673  0.79527120  1
  F  F476  1  0.78839932  0.24862937  0.29773800  1
  F  F477  1  0.78592878  0.24911852  0.79892543  1
  F  F478  1  0.78916780  0.74798383  0.29468322  1
  F  F479  1  0.78574184  0.74777422  0.79526300  1
