# generated using pymatgen
data_K24Na3Li5Mg64Fe17Si79(O5F)48
_symmetry_space_group_name_H-M   'P 1'
_cell_length_a   16.07189755
_cell_length_b   18.56585535
_cell_length_c   20.53791100
_cell_angle_alpha   90.00788134
_cell_angle_beta   100.00852282
_cell_angle_gamma   90.00253699
_symmetry_Int_Tables_number   1
_chemical_formula_structural   K24Na3Li5Mg64Fe17Si79(O5F)48
_chemical_formula_sum   'K24 Na3 Li5 Mg64 Fe17 Si79 O240 F48'
_cell_volume   6035.01624109
_cell_formula_units_Z   1
loop_
 _symmetry_equiv_pos_site_id
 _symmetry_equiv_pos_as_xyz
  1  'x, y, z'
loop_
 _atom_site_type_symbol
 _atom_site_label
 _atom_site_symmetry_multiplicity
 _atom_site_fract_x
 _atom_site_fract_y
 _atom_site_fract_z
 _atom_site_occupancy
  K  K0  1  0.00198614  -0.00128297  -0.00033029  1
  K  K1  1  -0.00130970  -0.01001409  0.49848586  1
  K  K2  1  -0.00352586  0.50312231  0.00179731  1
  K  K3  1  -0.01040402  0.50294132  0.50276231  1
  K  K4  1  0.33452425  0.00424028  0.00033576  1
  K  K5  1  0.33134491  -0.00967460  0.50227693  1
  K  K6  1  0.33890893  0.51062438  -0.00034238  1
  K  K7  1  0.32439397  0.50419578  0.49749036  1
  K  K8  1  0.66632928  -0.00885315  0.00409947  1
  K  K9  1  0.66419536  -0.00917886  0.49682905  1
  K  K10  1  0.66396208  0.50984350  0.00375281  1
  K  K11  1  0.67306547  0.50599630  0.50358831  1
  K  K12  1  0.16832808  0.24199627  0.00119957  1
  K  K13  1  0.17991940  0.25982437  0.49962885  1
  K  K14  1  0.15798862  0.74977630  0.00223630  1
  K  K15  1  0.16284347  0.75368535  0.49365723  1
  K  K16  1  0.49903891  0.25069293  0.00202568  1
  K  K17  1  0.49241062  0.25236765  0.50061279  1
  K  K18  1  0.49889972  0.74126740  -0.00039883  1
  K  K19  1  0.50392754  0.74927295  0.49415568  1
  K  K20  1  0.83490538  0.25109505  -0.00026646  1
  K  K21  1  0.84416363  0.25435465  0.50213156  1
  K  K22  1  0.83369716  0.75412677  0.00753353  1
  K  K23  1  0.83732558  0.74853706  0.49347111  1
  Na  Na24  1  0.16348737  0.49852224  0.24241881  1
  Na  Na25  1  0.83574391  0.83184092  0.25555597  1
  Na  Na26  1  0.16560070  0.83257253  0.25007986  1
  Li  Li27  1  0.83593071  0.49952841  0.25145321  1
  Li  Li28  1  0.83459904  -0.00124302  0.75425287  1
  Li  Li29  1  0.16961011  0.83301180  0.75100080  1
  Li  Li30  1  0.32657113  0.91153967  0.75095600  1
  Li  Li31  1  0.83728264  0.66570422  0.74300318  1
  Mg  Mg32  1  0.66657692  0.24908614  0.24806452  1
  Mg  Mg33  1  0.16855344  -0.00144673  0.25016966  1
  Mg  Mg34  1  0.33419842  0.75097820  0.24749121  1
  Mg  Mg35  1  0.16772444  -0.00623128  0.75294898  1
  Mg  Mg36  1  0.49551653  -0.00190550  0.75023708  1
  Mg  Mg37  1  0.33204179  0.25053393  0.74588711  1
  Mg  Mg38  1  0.66883638  0.75038667  0.25322852  1
  Mg  Mg39  1  0.83433601  -0.00092646  0.25459616  1
  Mg  Mg40  1  -0.00103506  0.24839664  0.75117433  1
  Mg  Mg41  1  0.67021153  0.74975258  0.75202432  1
  Mg  Mg42  1  0.50098277  0.50046725  0.74944654  1
  Mg  Mg43  1  0.83723111  0.50296813  0.74677463  1
  Mg  Mg44  1  0.16878498  0.50187857  0.74505581  1
  Mg  Mg45  1  -0.00018164  0.75087816  0.74738426  1
  Mg  Mg46  1  0.50333974  -0.00068212  0.24957283  1
  Mg  Mg47  1  0.00039783  0.25032376  0.25047152  1
  Mg  Mg48  1  0.50011142  0.50261060  0.24862761  1
  Mg  Mg49  1  0.66736354  0.24894240  0.74957237  1
  Mg  Mg50  1  0.00000972  0.74968320  0.25234869  1
  Mg  Mg51  1  0.33423642  0.25214524  0.24401324  1
  Mg  Mg52  1  0.33089552  0.75269837  0.74970353  1
  Mg  Mg53  1  0.83563198  0.33512795  0.75038611  1
  Mg  Mg54  1  0.49911672  0.33542718  0.24633171  1
  Mg  Mg55  1  0.16780201  0.16571799  0.25006298  1
  Mg  Mg56  1  0.50155315  0.83465090  0.25035987  1
  Mg  Mg57  1  0.83508321  0.16319180  0.75472433  1
  Mg  Mg58  1  0.83045829  0.16630572  0.24961274  1
  Mg  Mg59  1  0.33091043  0.41822225  0.24446688  1
  Mg  Mg60  1  0.33182506  0.41540374  0.74685022  1
  Mg  Mg61  1  0.00140511  0.91414813  0.25386393  1
  Mg  Mg62  1  0.33083307  0.07992466  0.74812502  1
  Mg  Mg63  1  0.83231433  0.33456346  0.24927577  1
  Mg  Mg64  1  0.66807284  0.91736355  0.75205584  1
  Mg  Mg65  1  -0.00344540  0.08124996  0.75513845  1
  Mg  Mg66  1  -0.00234159  0.41730521  0.24848698  1
  Mg  Mg67  1  0.16446018  0.16254210  0.75082326  1
  Mg  Mg68  1  0.66895160  0.41747103  0.24856514  1
  Mg  Mg69  1  0.16669210  0.66945549  0.74557955  1
  Mg  Mg70  1  0.49845740  0.66731025  0.25028556  1
  Mg  Mg71  1  0.33392494  0.58500074  0.74831725  1
  Mg  Mg72  1  -0.00193411  0.58103630  0.25109525  1
  Mg  Mg73  1  -0.00057933  0.41665162  0.74706523  1
  Mg  Mg74  1  0.33471539  0.08553840  0.24739494  1
  Mg  Mg75  1  -0.00139605  0.91642199  0.75273342  1
  Mg  Mg76  1  0.66714129  0.91437614  0.25291467  1
  Mg  Mg77  1  0.50062606  0.66537700  0.75069972  1
  Mg  Mg78  1  0.49805672  0.33418436  0.74753060  1
  Mg  Mg79  1  0.49774130  0.16496590  0.74834172  1
  Mg  Mg80  1  0.32928142  0.58504043  0.24588343  1
  Mg  Mg81  1  0.66933891  0.58256374  0.25090574  1
  Mg  Mg82  1  0.67163234  0.58620326  0.74904295  1
  Mg  Mg83  1  -0.00182381  0.58681422  0.74475067  1
  Mg  Mg84  1  0.49831386  0.16524797  0.24615743  1
  Mg  Mg85  1  0.16536830  0.33468883  0.74397830  1
  Mg  Mg86  1  0.33420293  0.91519201  0.24897153  1
  Mg  Mg87  1  0.66877815  0.08115228  0.75221264  1
  Mg  Mg88  1  0.66453126  0.08444579  0.24845513  1
  Mg  Mg89  1  0.83512740  0.66228498  0.25457199  1
  Mg  Mg90  1  0.49715571  0.83414003  0.75188700  1
  Mg  Mg91  1  0.16433079  0.66564641  0.24632992  1
  Mg  Mg92  1  -0.00006366  0.08297694  0.25277815  1
  Mg  Mg93  1  0.66845345  0.41638395  0.74760419  1
  Mg  Mg94  1  0.16535897  0.33389957  0.24649871  1
  Mg  Mg95  1  0.83335095  0.83369558  0.75184834  1
  Fe  Fe96  1  0.35298307  0.83484190  0.10823286  1
  Fe  Fe97  1  0.36206187  0.33523147  0.60591486  1
  Fe  Fe98  1  0.64320803  0.83253544  0.39427284  1
  Fe  Fe99  1  0.85989203  0.58747087  0.60592923  1
  Fe  Fe100  1  0.97478139  0.16918954  0.89439360  1
  Fe  Fe101  1  0.35675819  0.17217351  0.10634008  1
  Fe  Fe102  1  0.69524939  0.16813131  0.10811523  1
  Fe  Fe103  1  0.47696918  0.57961010  0.88984694  1
  Fe  Fe104  1  0.18776962  0.41852478  0.60445538  1
  Fe  Fe105  1  0.18986099  0.59048126  0.60654683  1
  Fe  Fe106  1  0.18686440  0.41334996  0.10521294  1
  Fe  Fe107  1  0.86100643  0.41301697  0.60775951  1
  Fe  Fe108  1  0.34776546  0.66448520  0.10826003  1
  Fe  Fe109  1  0.98058410  0.83312725  0.39720403  1
  Fe  Fe110  1  0.52571350  0.07906184  0.10542966  1
  Fe  Fe111  1  0.02403190  0.83649447  0.10920822  1
  Fe  Fe112  1  0.52745746  0.90714987  0.10837000  1
  Si  Si113  1  0.80796392  0.09101827  0.38907926  1
  Si  Si114  1  0.52277351  0.91696962  0.61597468  1
  Si  Si115  1  0.02898410  0.32248893  0.61067746  1
  Si  Si116  1  0.53310060  0.58529206  0.61429623  1
  Si  Si117  1  0.14121054  0.58673503  0.88187014  1
  Si  Si118  1  0.80848528  0.92634185  0.39527933  1
  Si  Si119  1  0.69275867  0.67304211  0.61345375  1
  Si  Si120  1  0.64194245  0.65994672  0.38921452  1
  Si  Si121  1  0.80655471  0.41103166  0.38466515  1
  Si  Si122  1  0.01962171  0.66701921  0.11246820  1
  Si  Si123  1  0.64380608  0.32946944  0.88394704  1
  Si  Si124  1  0.97703633  0.34070547  0.88880314  1
  Si  Si125  1  0.64070954  0.83560535  0.88676942  1
  Si  Si126  1  0.47239027  0.41793539  0.38340506  1
  Si  Si127  1  0.69068976  0.33721859  0.11135136  1
  Si  Si128  1  0.02327148  0.16258039  0.11838057  1
  Si  Si129  1  0.18776674  0.08548224  0.11359534  1
  Si  Si130  1  0.53475795  0.41831086  0.61178545  1
  Si  Si131  1  0.35518964  0.16210596  0.61106831  1
  Si  Si132  1  0.47232606  0.91938789  0.39173289  1
  Si  Si133  1  0.02719088  0.67729123  0.60837316  1
  Si  Si134  1  0.97712680  0.16840797  0.38764880  1
  Si  Si135  1  0.30995118  0.83362264  0.38690263  1
  Si  Si136  1  0.86162793  0.57863701  0.11803130  1
  Si  Si137  1  0.01853285  0.83993146  0.61647987  1
  Si  Si138  1  0.19417770  0.92489829  0.11199157  1
  Si  Si139  1  0.02196671  0.15724747  0.61568201  1
  Si  Si140  1  0.30449791  0.33036366  0.88342696  1
  Si  Si141  1  0.13985689  0.41514901  0.38291509  1
  Si  Si142  1  0.68823258  0.16494614  0.61626895  1
  Si  Si143  1  0.63823954  0.33407164  0.38502889  1
  Si  Si144  1  0.30555768  0.16453761  0.88307341  1
  Si  Si145  1  0.80353741  0.08092432  0.88983084  1
  Si  Si146  1  0.18971735  0.07735215  0.61442905  1
  Si  Si147  1  0.14296813  0.07825182  0.88909424  1
  Si  Si148  1  0.30733441  0.67003765  0.88637816  1
  Si  Si149  1  0.14646285  0.92233076  0.39167711  1
  Si  Si150  1  0.85388916  0.91857078  0.61804654  1
  Si  Si151  1  0.14126228  0.91307735  0.88636906  1
  Si  Si152  1  0.69867720  0.66438392  0.11713790  1
  Si  Si153  1  0.86167954  0.92325539  0.11653131  1
  Si  Si154  1  0.47623495  0.40862857  0.88725058  1
  Si  Si155  1  0.86021437  0.41377931  0.11519927  1
  Si  Si156  1  0.35806828  0.83226156  0.61508383  1
  Si  Si157  1  0.63793865  0.16919013  0.38701618  1
  Si  Si158  1  0.36082885  0.34353286  0.10754319  1
  Si  Si159  1  0.52989426  0.42151580  0.11465391  1
  Si  Si160  1  0.47274437  0.08464721  0.88397598  1
  Si  Si161  1  0.97594857  0.66535596  0.88293834  1
  Si  Si162  1  0.36607406  0.66755252  0.61077445  1
  Si  Si163  1  0.86166682  0.08403356  0.11650481  1
  Si  Si164  1  0.14306320  0.42097168  0.88267256  1
  Si  Si165  1  0.68831521  0.83581856  0.61660313  1
  Si  Si166  1  0.63964902  0.16381316  0.88463248  1
  Si  Si167  1  0.18991654  0.91316304  0.61696046  1
  Si  Si168  1  0.01986445  0.32527886  0.11138105  1
  Si  Si169  1  0.69479921  0.32853581  0.61375656  1
  Si  Si170  1  0.97490274  0.65947599  0.39068243  1
  Si  Si171  1  0.47152642  0.58251756  0.38556670  1
  Si  Si172  1  0.30888740  0.17022548  0.38594812  1
  Si  Si173  1  0.70015805  0.83090352  0.11479454  1
  Si  Si174  1  0.80781369  0.91483185  0.88665853  1
  Si  Si175  1  0.97410049  0.83126471  0.88681934  1
  Si  Si176  1  0.14016900  0.58199834  0.38336430  1
  Si  Si177  1  0.80923442  0.58456050  0.88399276  1
  Si  Si178  1  0.30552861  0.66700344  0.38531239  1
  Si  Si179  1  0.97669623  0.33378870  0.38636022  1
  Si  Si180  1  0.64669653  0.66922803  0.88835476  1
  Si  Si181  1  0.14495057  0.08651270  0.38831428  1
  Si  Si182  1  0.47305418  0.08494424  0.38766497  1
  Si  Si183  1  0.85341382  0.08220874  0.61753161  1
  Si  Si184  1  0.47380766  0.91809994  0.88528784  1
  Si  Si185  1  0.52785329  0.58754289  0.11429280  1
  Si  Si186  1  0.80660528  0.57634192  0.38537248  1
  Si  Si187  1  0.30884920  0.83435093  0.88444973  1
  Si  Si188  1  0.30803471  0.33418396  0.38292804  1
  Si  Si189  1  0.52419016  0.08086737  0.61555667  1
  Si  Si190  1  0.80561549  0.41990216  0.88531306  1
  Si  Si191  1  0.18204669  0.58234189  0.10861480  1
  O  O192  1  0.26317080  0.11085328  0.07650925  1
  O  O193  1  0.27001711  0.11205897  0.58498246  1
  O  O194  1  0.26158855  0.59902499  0.07152229  1
  O  O195  1  0.28992254  0.61836718  0.57412216  1
  O  O196  1  0.62218033  0.09900875  0.06938103  1
  O  O197  1  0.60535602  0.11462653  0.58652132  1
  O  O198  1  0.61332179  0.61763033  0.08730723  1
  O  O199  1  0.61220629  0.61912261  0.58364819  1
  O  O200  1  0.95430491  0.09934027  0.09289584  1
  O  O201  1  0.93625653  0.10988773  0.58634511  1
  O  O202  1  0.94037507  0.61007940  0.08523177  1
  O  O203  1  0.95474983  0.62275382  0.57271027  1
  O  O204  1  0.09801491  0.34515540  0.07518737  1
  O  O205  1  0.11570458  0.33742611  0.58352217  1
  O  O206  1  0.12323935  0.86639853  0.07998951  1
  O  O207  1  0.10073586  0.87174236  0.58653102  1
  O  O208  1  0.45217094  0.36792743  0.08416550  1
  O  O209  1  0.46093144  0.36686508  0.57485068  1
  O  O210  1  0.45120715  0.83740740  0.07378372  1
  O  O211  1  0.43459153  0.87499187  0.58504988  1
  O  O212  1  0.77406910  0.36924942  0.08357665  1
  O  O213  1  0.77531056  0.34271036  0.57942055  1
  O  O214  1  0.78739442  0.86240951  0.09210480  1
  O  O215  1  0.76955514  0.86950120  0.58783025  1
  O  O216  1  0.29231058  0.40403959  0.07664696  1
  O  O217  1  0.27850560  0.39383133  0.56309782  1
  O  O218  1  0.27941887  0.91351567  0.08073163  1
  O  O219  1  0.26819027  0.87426455  0.58609661  1
  O  O220  1  0.61483227  0.39643945  0.08642783  1
  O  O221  1  0.62181791  0.38931856  0.58700192  1
  O  O222  1  0.62442744  0.87733357  0.07322655  1
  O  O223  1  0.60414592  0.88473658  0.58713510  1
  O  O224  1  0.93709080  0.37703564  0.08272300  1
  O  O225  1  0.95334084  0.37322132  0.57387416  1
  O  O226  1  0.93756091  0.90368886  0.07694468  1
  O  O227  1  0.93614948  0.89174369  0.58642745  1
  O  O228  1  0.10879028  0.14298341  0.08943983  1
  O  O229  1  0.10136552  0.12102374  0.58514314  1
  O  O230  1  0.10307236  0.63970811  0.08274529  1
  O  O231  1  0.11478888  0.66707357  0.58044408  1
  O  O232  1  0.44725862  0.14765627  0.06784772  1
  O  O233  1  0.43703004  0.12350453  0.58464721  1
  O  O234  1  0.44936085  0.63461538  0.07884100  1
  O  O235  1  0.45235221  0.63677968  0.58512652  1
  O  O236  1  0.80050903  0.14733942  0.08258894  1
  O  O237  1  0.77065354  0.13373252  0.58687065  1
  O  O238  1  0.77515201  0.62398306  0.08662020  1
  O  O239  1  0.77021744  0.65340733  0.57704244  1
  O  O240  1  0.06394062  0.12282132  0.41712324  1
  O  O241  1  0.07334179  0.11575098  0.92603143  1
  O  O242  1  0.06249472  0.61272868  0.41801900  1
  O  O243  1  0.06259298  0.62072912  0.91419948  1
  O  O244  1  0.39832733  0.12981010  0.41741397  1
  O  O245  1  0.39497412  0.12385666  0.91213824  1
  O  O246  1  0.39569335  0.62491496  0.41543585  1
  O  O247  1  0.38723742  0.62308635  0.92217377  1
  O  O248  1  0.73131842  0.13473210  0.41740553  1
  O  O249  1  0.71695304  0.11050931  0.91575209  1
  O  O250  1  0.72715224  0.61059022  0.41637212  1
  O  O251  1  0.74006343  0.63229741  0.91582827  1
  O  O252  1  0.22871242  0.37120158  0.41137683  1
  O  O253  1  0.22866886  0.37341503  0.91208204  1
  O  O254  1  0.23509962  0.87624941  0.41688863  1
  O  O255  1  0.22891315  0.86954973  0.91459583  1
  O  O256  1  0.56306849  0.37826069  0.41382441  1
  O  O257  1  0.56191506  0.35876097  0.91363784  1
  O  O258  1  0.55704312  0.88103977  0.42985522  1
  O  O259  1  0.56248753  0.87481227  0.91550742  1
  O  O260  1  0.89515549  0.36779132  0.41465766  1
  O  O261  1  0.89700995  0.38273987  0.91499562  1
  O  O262  1  0.89684559  0.88817468  0.42784982  1
  O  O263  1  0.89543851  0.87006560  0.91617223  1
  O  O264  1  0.06314561  0.37856227  0.41698703  1
  O  O265  1  0.06215610  0.39066616  0.91380578  1
  O  O266  1  0.07925272  0.88744632  0.43235955  1
  O  O267  1  0.06269762  0.87406321  0.91651675  1
  O  O268  1  0.39695586  0.37577289  0.41316117  1
  O  O269  1  0.39687542  0.36618529  0.91290380  1
  O  O270  1  0.39511981  0.87805182  0.42160360  1
  O  O271  1  0.39498722  0.88188099  0.91469452  1
  O  O272  1  0.72997701  0.37076511  0.41589896  1
  O  O273  1  0.72915363  0.37658117  0.91407546  1
  O  O274  1  0.73496797  0.89072636  0.43038778  1
  O  O275  1  0.72911732  0.87795406  0.91751780  1
  O  O276  1  0.23007106  0.13493766  0.41717946  1
  O  O277  1  0.23363302  0.12074751  0.91409079  1
  O  O278  1  0.22877052  0.62582002  0.41472433  1
  O  O279  1  0.22268198  0.63672716  0.91146115  1
  O  O280  1  0.56452358  0.12467180  0.41815407  1
  O  O281  1  0.55578733  0.13444558  0.91189129  1
  O  O282  1  0.56247201  0.61894871  0.41760776  1
  O  O283  1  0.57885147  0.62835021  0.92457333  1
  O  O284  1  0.89693751  0.13518836  0.41818073  1
  O  O285  1  0.88185531  0.12861338  0.92665939  1
  O  O286  1  0.89564135  0.61622296  0.41674365  1
  O  O287  1  0.90115921  0.62174272  0.91283440  1
  O  O288  1  0.15301543  0.00581352  0.08745004  1
  O  O289  1  0.17976576  -0.00459845  0.58376503  1
  O  O290  1  0.14114640  0.50453181  0.08306429  1
  O  O291  1  0.14457516  0.50520778  0.56880959  1
  O  O292  1  0.48632075  -0.00757877  0.06860472  1
  O  O293  1  0.51076169  -0.00098627  0.58578040  1
  O  O294  1  0.51236522  0.50358892  0.08650837  1
  O  O295  1  0.51968518  0.50256462  0.58509611  1
  O  O296  1  0.82699163  0.00451971  0.08837695  1
  O  O297  1  0.83085618  0.00062681  0.58841798  1
  O  O298  1  0.84629134  0.49645546  0.08663093  1
  O  O299  1  0.82840766  0.49881503  0.56609525  1
  O  O300  1  -0.01158218  0.24162906  0.08971542  1
  O  O301  1  0.00196112  0.23788935  0.58599575  1
  O  O302  1  -0.00884924  0.74287225  0.07658726  1
  O  O303  1  -0.00604698  0.76045066  0.58545653  1
  O  O304  1  0.33061241  0.26668568  0.07433586  1
  O  O305  1  0.34135390  0.23828992  0.57389484  1
  O  O306  1  0.30458051  0.75014182  0.07320896  1
  O  O307  1  0.35412639  0.75161308  0.58197048  1
  O  O308  1  0.66344586  0.26228540  0.07468478  1
  O  O309  1  0.66051678  0.24612521  0.58886944  1
  O  O310  1  0.69258726  0.74586703  0.08621265  1
  O  O311  1  0.66241908  0.75565878  0.58760517  1
  O  O312  1  0.16468165  0.00678195  0.42134936  1
  O  O313  1  0.15469553  -0.00506612  0.91755731  1
  O  O314  1  0.15631456  0.49779899  0.40978604  1
  O  O315  1  0.15975363  0.50384817  0.91056796  1
  O  O316  1  0.47340051  0.00434006  0.42038856  1
  O  O317  1  0.48597331  0.00224528  0.91257272  1
  O  O318  1  0.47510348  0.49936138  0.41487012  1
  O  O319  1  0.49075503  0.48482126  0.92499313  1
  O  O320  1  0.81682481  0.01226093  0.42390309  1
  O  O321  1  0.81762305  -0.00317193  0.91676260  1
  O  O322  1  0.81551494  0.49285263  0.41405087  1
  O  O323  1  0.80908749  0.50217226  0.91610146  1
  O  O324  1  0.31884446  0.25279605  0.41551751  1
  O  O325  1  0.30789326  0.24721198  0.91226319  1
  O  O326  1  0.31466418  0.74968068  0.41651060  1
  O  O327  1  0.32148197  0.75276999  0.91577675  1
  O  O328  1  0.63791629  0.25217761  0.41638714  1
  O  O329  1  0.66158703  0.24651695  0.91171058  1
  O  O330  1  0.65383968  0.73660555  0.42679682  1
  O  O331  1  0.65311515  0.75340842  0.91575452  1
  O  O332  1  0.99065347  0.25119209  0.41681708  1
  O  O333  1  0.98965808  0.26460964  0.92717926  1
  O  O334  1  0.98485960  0.73633530  0.42814150  1
  O  O335  1  0.98205604  0.74775971  0.91497010  1
  O  O336  1  0.20961837  0.08624048  0.19523617  1
  O  O337  1  0.20730979  0.08053833  0.69477172  1
  O  O338  1  0.21123707  0.58957425  0.18870157  1
  O  O339  1  0.21421411  0.58520178  0.69943421  1
  O  O340  1  0.54460081  0.08392494  0.19979873  1
  O  O341  1  0.54267542  0.08251852  0.69585989  1
  O  O342  1  0.54534540  0.58459877  0.19544766  1
  O  O343  1  0.54908446  0.58426795  0.69482488  1
  O  O344  1  0.87770269  0.08542711  0.19810856  1
  O  O345  1  0.87408892  0.08486728  0.69693179  1
  O  O346  1  0.87707484  0.58124920  0.19738726  1
  O  O347  1  0.87963596  0.58204632  0.69718677  1
  O  O348  1  0.03994153  0.33011754  0.19256843  1
  O  O349  1  0.04118917  0.32797804  0.69265851  1
  O  O350  1  0.03371687  0.83349525  0.19851066  1
  O  O351  1  0.03614965  0.83801603  0.69591609  1
  O  O352  1  0.37994509  0.33745249  0.18977631  1
  O  O353  1  0.37891382  0.33238227  0.69892540  1
  O  O354  1  0.38054271  0.83448840  0.20160203  1
  O  O355  1  0.37957053  0.83087426  0.69446473  1
  O  O356  1  0.70909720  0.33363665  0.19271040  1
  O  O357  1  0.71080022  0.33062638  0.69510897  1
  O  O358  1  0.70439082  0.83125686  0.19409217  1
  O  O359  1  0.70733534  0.83579053  0.69683723  1
  O  O360  1  0.21516219  0.40513821  0.19542071  1
  O  O361  1  0.21194746  0.41679122  0.69816828  1
  O  O362  1  0.21487715  0.92616953  0.19295587  1
  O  O363  1  0.20828258  0.91822842  0.69561555  1
  O  O364  1  0.54549165  0.41859937  0.19548765  1
  O  O365  1  0.54636991  0.41660230  0.69316981  1
  O  O366  1  0.54613693  0.91750559  0.20143744  1
  O  O367  1  0.54155035  0.91640299  0.69615930  1
  O  O368  1  0.87760929  0.41015919  0.19480706  1
  O  O369  1  0.87830766  0.41537035  0.70077705  1
  O  O370  1  0.88262222  0.92776967  0.19649180  1
  O  O371  1  0.87463923  0.91595264  0.69752241  1
  O  O372  1  0.04311291  0.16567548  0.19928058  1
  O  O373  1  0.04296171  0.16008596  0.69601547  1
  O  O374  1  0.03945321  0.66481762  0.19328835  1
  O  O375  1  0.04221849  0.67054038  0.68994910  1
  O  O376  1  0.37771685  0.16855439  0.19964347  1
  O  O377  1  0.37458255  0.16446289  0.69221401  1
  O  O378  1  0.37946253  0.66576907  0.20081420  1
  O  O379  1  0.37998464  0.66862031  0.69169126  1
  O  O380  1  0.71104520  0.16771595  0.20138864  1
  O  O381  1  0.70842160  0.16431536  0.69675237  1
  O  O382  1  0.71223685  0.66428365  0.19726221  1
  O  O383  1  0.70651656  0.66978743  0.69384225  1
  O  O384  1  0.12561098  0.08687950  0.30815694  1
  O  O385  1  0.12329589  0.08113415  0.80801234  1
  O  O386  1  0.11928860  0.58667158  0.30432029  1
  O  O387  1  0.12141249  0.58503472  0.80172031  1
  O  O388  1  0.45657069  0.08562141  0.30805737  1
  O  O389  1  0.45505548  0.08395780  0.80332134  1
  O  O390  1  0.45747467  0.58209214  0.30571291  1
  O  O391  1  0.45742543  0.58243120  0.79801437  1
  O  O392  1  0.79151228  0.08800690  0.30910966  1
  O  O393  1  0.78652953  0.08529253  0.80941678  1
  O  O394  1  0.78760643  0.57964666  0.30594539  1
  O  O395  1  0.78822741  0.57989275  0.80481716  1
  O  O396  1  0.29279448  0.33167354  0.30320663  1
  O  O397  1  0.28770877  0.33014044  0.80327257  1
  O  O398  1  0.29956111  0.83353249  0.30821480  1
  O  O399  1  0.29332244  0.83243225  0.80552327  1
  O  O400  1  0.62249581  0.33390574  0.30467969  1
  O  O401  1  0.62470418  0.33210134  0.80328968  1
  O  O402  1  0.62388027  0.83162808  0.30330523  1
  O  O403  1  0.62259590  0.83551310  0.80626380  1
  O  O404  1  0.95708781  0.33171356  0.30617922  1
  O  O405  1  0.95864777  0.33384749  0.80800732  1
  O  O406  1  0.96801686  0.83271245  0.30806130  1
  O  O407  1  0.95582522  0.83346106  0.80693457  1
  O  O408  1  0.11646082  0.40694908  0.30418023  1
  O  O409  1  0.12301940  0.41660886  0.80243875  1
  O  O410  1  0.12312516  0.92755566  0.31237758  1
  O  O411  1  0.11973995  0.91720716  0.80698706  1
  O  O412  1  0.45743879  0.41700483  0.30324752  1
  O  O413  1  0.46022704  0.41426821  0.80639984  1
  O  O414  1  0.45774515  0.92037087  0.31160309  1
  O  O415  1  0.45992425  0.91722698  0.80548207  1
  O  O416  1  0.78662380  0.40981593  0.30516470  1
  O  O417  1  0.78763448  0.41729804  0.80516064  1
  O  O418  1  0.78712739  0.92719917  0.31490371  1
  O  O419  1  0.78709131  0.91384896  0.80707016  1
  O  O420  1  0.28996798  0.16822876  0.30614137  1
  O  O421  1  0.28899277  0.16511673  0.80248554  1
  O  O422  1  0.28929202  0.66567084  0.30578146  1
  O  O423  1  0.29333401  0.66873236  0.80560228  1
  O  O424  1  0.62068259  0.16970774  0.30724654  1
  O  O425  1  0.62200073  0.16511523  0.80384597  1
  O  O426  1  0.62243853  0.66191748  0.30846269  1
  O  O427  1  0.62608922  0.66719841  0.80737918  1
  O  O428  1  0.95793080  0.16775547  0.30743444  1
  O  O429  1  0.95586855  0.16697370  0.80249427  1
  O  O430  1  0.95652157  0.66156807  0.31010485  1
  O  O431  1  0.96156399  0.66803783  0.80375574  1
  F  F432  1  0.04711091  0.00269069  0.20735835  1
  F  F433  1  0.04423202  0.00072522  0.70418030  1
  F  F434  1  0.02797134  0.49834516  0.19666699  1
  F  F435  1  0.04538918  0.49974510  0.70089872  1
  F  F436  1  0.38137065  0.00170200  0.20598701  1
  F  F437  1  0.38064961  0.00476632  0.69760701  1
  F  F438  1  0.38220797  0.50101167  0.19976524  1
  F  F439  1  0.38111214  0.49769756  0.70024007  1
  F  F440  1  0.71429619  0.00018562  0.20702664  1
  F  F441  1  0.70418915  -0.00009623  0.70167543  1
  F  F442  1  0.70670473  0.49919458  0.20062996  1
  F  F443  1  0.71175354  0.49993719  0.70081414  1
  F  F444  1  0.21096118  0.24769959  0.20230463  1
  F  F445  1  0.21012961  0.24475332  0.70089518  1
  F  F446  1  0.21643342  0.74260260  0.20048340  1
  F  F447  1  0.21570010  0.74935970  0.69942204  1
  F  F448  1  0.54588254  0.25216820  0.20187111  1
  F  F449  1  0.54541891  0.24806318  0.70148481  1
  F  F450  1  0.54799357  0.74627423  0.20447252  1
  F  F451  1  0.54720621  0.75126336  0.70501602  1
  F  F452  1  0.87886085  0.24986377  0.20499461  1
  F  F453  1  0.87640918  0.24905703  0.70374920  1
  F  F454  1  0.88081333  0.73694076  0.20333393  1
  F  F455  1  0.87824446  0.75583417  0.70218564  1
  F  F456  1  0.28951871  0.00400070  0.29966298  1
  F  F457  1  0.28677247  0.00476768  0.80056613  1
  F  F458  1  0.30094836  0.50031026  0.29939944  1
  F  F459  1  0.29240725  0.49898157  0.79938512  1
  F  F460  1  0.62335004  0.00408764  0.30355538  1
  F  F461  1  0.61813943  -0.00001794  0.79960389  1
  F  F462  1  0.62064684  0.49831621  0.29946782  1
  F  F463  1  0.62328640  0.49908476  0.79703804  1
  F  F464  1  0.95570540  0.00469892  0.30427794  1
  F  F465  1  0.95708204  -0.00136559  0.80279597  1
  F  F466  1  0.95845708  0.49603996  0.30249670  1
  F  F467  1  0.95887077  0.50032032  0.79985584  1
  F  F468  1  0.12228785  0.24945408  0.29879368  1
  F  F469  1  0.12198026  0.24902275  0.79650648  1
  F  F470  1  0.11892128  0.73813355  0.30263793  1
  F  F471  1  0.11898158  0.74718331  0.79657070  1
  F  F472  1  0.45567088  0.25453375  0.29767014  1
  F  F473  1  0.45523666  0.24696409  0.79751949  1
  F  F474  1  0.45877768  0.74912248  0.30298373  1
  F  F475  1  0.45597252  0.74931893  0.79893839  1
  F  F476  1  0.78854861  0.25238892  0.30068772  1
  F  F477  1  0.78712367  0.25054679  0.79947979  1
  F  F478  1  0.78357823  0.73714549  0.30627178  1
  F  F479  1  0.78532656  0.75603274  0.80240765  1
