# generated using pymatgen
data_K24Na3Li5Mg64Fe17Si79(O5F)48
_symmetry_space_group_name_H-M   'P 1'
_cell_length_a   16.07321526
_cell_length_b   18.55969566
_cell_length_c   20.54061435
_cell_angle_alpha   90.00106925
_cell_angle_beta   100.00132998
_cell_angle_gamma   89.99050135
_symmetry_Int_Tables_number   1
_chemical_formula_structural   K24Na3Li5Mg64Fe17Si79(O5F)48
_chemical_formula_sum   'K24 Na3 Li5 Mg64 Fe17 Si79 O240 F48'
_cell_volume   6034.43641387
_cell_formula_units_Z   1
loop_
 _symmetry_equiv_pos_site_id
 _symmetry_equiv_pos_as_xyz
  1  'x, y, z'
loop_
 _atom_site_type_symbol
 _atom_site_label
 _atom_site_symmetry_multiplicity
 _atom_site_fract_x
 _atom_site_fract_y
 _atom_site_fract_z
 _atom_site_occupancy
  K  K0  1  -0.00503259  0.00439966  0.00617533  1
  K  K1  1  0.00371445  -0.00215478  0.49884367  1
  K  K2  1  -0.00223167  0.49973595  0.00477516  1
  K  K3  1  -0.00169536  0.49888038  0.49987224  1
  K  K4  1  0.33133899  0.00027629  0.00036897  1
  K  K5  1  0.33626904  0.00011872  0.49991920  1
  K  K6  1  0.33327732  0.49995663  -0.00062492  1
  K  K7  1  0.34017491  0.49530274  0.50248433  1
  K  K8  1  0.67056220  0.00834325  -0.00144055  1
  K  K9  1  0.66318151  0.00137267  0.50129156  1
  K  K10  1  0.66957583  0.49770099  0.00196190  1
  K  K11  1  0.66343092  0.50592334  0.50403093  1
  K  K12  1  0.16256396  0.25384788  -0.00044170  1
  K  K13  1  0.16346416  0.25242960  0.50022355  1
  K  K14  1  0.16385979  0.74366569  0.00501108  1
  K  K15  1  0.15621685  0.75020108  0.49986981  1
  K  K16  1  0.51269970  0.26448082  -0.00652594  1
  K  K17  1  0.50407423  0.26246348  0.51114261  1
  K  K18  1  0.50715589  0.74104508  0.00159435  1
  K  K19  1  0.49882124  0.74876135  0.49622844  1
  K  K20  1  0.82426015  0.25123586  -0.00708142  1
  K  K21  1  0.83526021  0.24608195  0.50146877  1
  K  K22  1  0.83807510  0.74521603  0.00285154  1
  K  K23  1  0.83984207  0.74835440  0.50072574  1
  Na  Na24  1  0.66130622  0.25222761  0.74674650  1
  Na  Na25  1  0.50359888  0.33168882  0.74802675  1
  Na  Na26  1  0.50300855  0.33067749  0.24923840  1
  Li  Li27  1  0.33348221  0.74769927  0.25401819  1
  Li  Li28  1  0.16845062  0.49897192  0.74729863  1
  Li  Li29  1  0.00100199  0.08576147  0.25536332  1
  Li  Li30  1  -0.00420855  0.41632991  0.24513991  1
  Li  Li31  1  0.66469875  0.58184089  0.74677520  1
  Mg  Mg32  1  0.16216492  0.00001368  0.25286579  1
  Mg  Mg33  1  0.00028033  0.24950518  0.74950897  1
  Mg  Mg34  1  -0.00046464  0.25165163  0.24896561  1
  Mg  Mg35  1  0.50148988  -0.00125093  0.75505264  1
  Mg  Mg36  1  0.00288738  0.74759437  0.74589247  1
  Mg  Mg37  1  0.83316893  0.50183153  0.74865708  1
  Mg  Mg38  1  0.33282256  0.25072597  0.25155822  1
  Mg  Mg39  1  -0.00100671  0.75000327  0.24679024  1
  Mg  Mg40  1  0.50453828  0.50149094  0.74870385  1
  Mg  Mg41  1  0.16628266  0.00075390  0.74885096  1
  Mg  Mg42  1  0.33459715  0.74880029  0.74868462  1
  Mg  Mg43  1  0.50092099  0.49965957  0.24996001  1
  Mg  Mg44  1  0.66533527  0.75004023  0.25121957  1
  Mg  Mg45  1  0.83423585  0.00024545  0.74942148  1
  Mg  Mg46  1  0.83540680  0.00282632  0.25117274  1
  Mg  Mg47  1  0.16480602  0.50157382  0.24581167  1
  Mg  Mg48  1  0.66745224  0.74608757  0.75142508  1
  Mg  Mg49  1  0.66803678  0.24969790  0.24563385  1
  Mg  Mg50  1  0.49698853  -0.00222349  0.25259983  1
  Mg  Mg51  1  0.33590724  0.25042006  0.75192322  1
  Mg  Mg52  1  0.83657418  0.49804738  0.24497118  1
  Mg  Mg53  1  0.83112999  0.16598105  0.74914684  1
  Mg  Mg54  1  0.49927169  0.66613817  0.25295440  1
  Mg  Mg55  1  0.66527701  0.91540206  0.25023736  1
  Mg  Mg56  1  0.33368989  0.41761501  0.74929063  1
  Mg  Mg57  1  0.66626951  0.91425782  0.75257545  1
  Mg  Mg58  1  0.16730554  0.66815511  0.24681376  1
  Mg  Mg59  1  0.66672363  0.58458805  0.24881054  1
  Mg  Mg60  1  0.83838675  0.16615986  0.24987553  1
  Mg  Mg61  1  0.00134358  0.41758223  0.74870005  1
  Mg  Mg62  1  0.33598730  0.58556385  0.25049552  1
  Mg  Mg63  1  0.83536256  0.33466864  0.24761620  1
  Mg  Mg64  1  0.83263308  0.66360450  0.74885603  1
  Mg  Mg65  1  0.49725060  0.83248614  0.75050080  1
  Mg  Mg66  1  0.66736660  0.08511290  0.75282765  1
  Mg  Mg67  1  0.16407768  0.16707981  0.75061340  1
  Mg  Mg68  1  0.00119055  0.91920773  0.24939299  1
  Mg  Mg69  1  0.33136137  0.91281511  0.25287491  1
  Mg  Mg70  1  0.49931072  0.16548993  0.25076674  1
  Mg  Mg71  1  0.50128876  0.16553919  0.75471234  1
  Mg  Mg72  1  0.33070629  0.08398645  0.25152920  1
  Mg  Mg73  1  0.16667728  0.33549380  0.75054330  1
  Mg  Mg74  1  0.49915404  0.66524359  0.74867058  1
  Mg  Mg75  1  0.00184887  0.58143923  0.74681733  1
  Mg  Mg76  1  0.16240196  0.16571447  0.25340326  1
  Mg  Mg77  1  0.33191944  0.91450183  0.74904057  1
  Mg  Mg78  1  0.16432423  0.33611589  0.24842839  1
  Mg  Mg79  1  0.83391894  0.83211268  0.74954764  1
  Mg  Mg80  1  0.16673398  0.83310015  0.24963436  1
  Mg  Mg81  1  0.16717570  0.66128176  0.74558238  1
  Mg  Mg82  1  0.66670046  0.08352192  0.24996137  1
  Mg  Mg83  1  -0.00269971  0.08454235  0.74871753  1
  Mg  Mg84  1  0.83190068  0.83582545  0.24821742  1
  Mg  Mg85  1  0.33658748  0.41666179  0.25098637  1
  Mg  Mg86  1  0.66810355  0.41408027  0.24702429  1
  Mg  Mg87  1  0.49798117  0.83152705  0.25256311  1
  Mg  Mg88  1  0.16520111  0.83320598  0.74732443  1
  Mg  Mg89  1  -0.00156668  0.58302018  0.24261713  1
  Mg  Mg90  1  0.66625835  0.42162937  0.75051867  1
  Mg  Mg91  1  0.33270110  0.58208539  0.74821995  1
  Mg  Mg92  1  -0.00113438  0.91430343  0.74698391  1
  Mg  Mg93  1  0.83120966  0.33459378  0.75065665  1
  Mg  Mg94  1  0.33368292  0.08364984  0.75475495  1
  Mg  Mg95  1  0.83040905  0.66543896  0.24409792  1
  Fe  Fe96  1  0.35599512  0.83676170  0.60941075  1
  Fe  Fe97  1  0.85525436  0.58319823  0.60934019  1
  Fe  Fe98  1  0.85963349  0.41287757  0.10647542  1
  Fe  Fe99  1  0.85309007  0.07897480  0.60900965  1
  Fe  Fe100  1  0.02878165  0.66710224  0.10681555  1
  Fe  Fe101  1  0.64168390  0.16875474  0.89538517  1
  Fe  Fe102  1  0.47697201  0.57987616  0.39131781  1
  Fe  Fe103  1  0.02407908  0.16737268  0.60992525  1
  Fe  Fe104  1  0.97896985  0.17021732  0.38925877  1
  Fe  Fe105  1  0.02704999  0.83321282  0.60810908  1
  Fe  Fe106  1  0.69319043  0.33454361  0.60930580  1
  Fe  Fe107  1  0.52253241  0.42285925  0.60602418  1
  Fe  Fe108  1  0.64182295  0.83641380  0.39030874  1
  Fe  Fe109  1  0.14206455  0.91213555  0.39011985  1
  Fe  Fe110  1  0.68630658  0.33005866  0.10519000  1
  Fe  Fe111  1  0.35388551  0.66805243  0.60869678  1
  Fe  Fe112  1  0.68852479  0.67129251  0.10817698  1
  Si  Si113  1  0.85106634  0.91170174  0.61249042  1
  Si  Si114  1  0.68501879  0.15938922  0.11246588  1
  Si  Si115  1  0.30472374  0.83166890  0.88719616  1
  Si  Si116  1  0.64093517  0.16178798  0.38478420  1
  Si  Si117  1  0.80965185  0.41395379  0.38513212  1
  Si  Si118  1  0.14173580  0.91865114  0.88719761  1
  Si  Si119  1  0.80822793  0.08510227  0.38532196  1
  Si  Si120  1  0.35957682  0.33221730  0.11485726  1
  Si  Si121  1  0.02658516  0.16689477  0.11449507  1
  Si  Si122  1  0.52943173  0.91544090  0.61612771  1
  Si  Si123  1  0.19926638  0.58141775  0.11002836  1
  Si  Si124  1  0.85742141  0.92192242  0.11273054  1
  Si  Si125  1  0.47311662  0.91307507  0.88953951  1
  Si  Si126  1  0.52188869  0.42171490  0.11179526  1
  Si  Si127  1  0.14456299  0.42370009  0.38210160  1
  Si  Si128  1  0.14106610  0.08459208  0.88827062  1
  Si  Si129  1  0.30697540  0.17095623  0.38644789  1
  Si  Si130  1  0.48083407  0.41195420  0.38692865  1
  Si  Si131  1  0.47321658  0.42262940  0.88712207  1
  Si  Si132  1  0.13932877  0.58820106  0.38180267  1
  Si  Si133  1  0.19581732  0.57497943  0.61242785  1
  Si  Si134  1  0.19827210  0.41492398  0.11272924  1
  Si  Si135  1  0.85700912  0.08676662  0.11438315  1
  Si  Si136  1  0.52477724  0.59205716  0.61285361  1
  Si  Si137  1  0.36212767  0.16250429  0.61936611  1
  Si  Si138  1  0.51929308  0.07955625  0.11600871  1
  Si  Si139  1  0.35690881  0.83226042  0.11558448  1
  Si  Si140  1  0.64192906  0.66659221  0.88611346  1
  Si  Si141  1  0.31003322  0.33437139  0.88797050  1
  Si  Si142  1  0.30531592  0.66379498  0.38429832  1
  Si  Si143  1  0.19015063  0.41063430  0.61570382  1
  Si  Si144  1  0.81127965  0.58709663  0.88628389  1
  Si  Si145  1  0.51851970  0.91739286  0.11457372  1
  Si  Si146  1  0.96919847  0.66420921  0.38068878  1
  Si  Si147  1  0.64480424  0.34464766  0.89013567  1
  Si  Si148  1  0.52515011  0.07948382  0.61866441  1
  Si  Si149  1  0.81075837  0.91318759  0.88756552  1
  Si  Si150  1  0.81250718  0.08001281  0.89096314  1
  Si  Si151  1  0.03028529  0.65963929  0.60826686  1
  Si  Si152  1  0.47105582  0.08550835  0.38608287  1
  Si  Si153  1  0.35719677  0.16751677  0.11440585  1
  Si  Si154  1  0.64725344  0.66701416  0.38953284  1
  Si  Si155  1  0.14104229  0.58148133  0.88437100  1
  Si  Si156  1  0.14896266  0.08145893  0.39095808  1
  Si  Si157  1  0.46748625  0.91797123  0.38929295  1
  Si  Si158  1  0.97538401  0.16704034  0.88788383  1
  Si  Si159  1  0.30629099  0.16729615  0.88884265  1
  Si  Si160  1  0.47402053  0.58603034  0.88702393  1
  Si  Si161  1  0.35296447  0.32846657  0.61384539  1
  Si  Si162  1  0.30857533  0.33676576  0.38545268  1
  Si  Si163  1  0.97729667  0.83238717  0.88624053  1
  Si  Si164  1  0.19468646  0.92617343  0.61333959  1
  Si  Si165  1  0.97846729  0.66716700  0.88544346  1
  Si  Si166  1  0.30641828  0.82772194  0.38596149  1
  Si  Si167  1  0.80736203  0.57845499  0.38259479  1
  Si  Si168  1  0.80766062  0.92141534  0.38476349  1
  Si  Si169  1  0.69032681  0.83163097  0.61879090  1
  Si  Si170  1  0.19349615  0.91852448  0.11412805  1
  Si  Si171  1  0.81212149  0.42236269  0.88814636  1
  Si  Si172  1  0.02312660  0.83857605  0.10964736  1
  Si  Si173  1  0.03325777  0.33128244  0.11027529  1
  Si  Si174  1  0.02192677  0.33663781  0.61488431  1
  Si  Si175  1  0.52215729  0.58353485  0.11156632  1
  Si  Si176  1  0.19178489  0.08363503  0.11491772  1
  Si  Si177  1  0.68759972  0.84249757  0.11011263  1
  Si  Si178  1  0.36171146  0.66757561  0.11555291  1
  Si  Si179  1  0.86011495  0.41439748  0.61372753  1
  Si  Si180  1  0.69104591  0.67103924  0.61486718  1
  Si  Si181  1  0.68726901  0.16288528  0.61218931  1
  Si  Si182  1  0.19595007  0.08889013  0.61743960  1
  Si  Si183  1  0.64750477  0.32700880  0.38439582  1
  Si  Si184  1  0.30529942  0.66605097  0.88617777  1
  Si  Si185  1  0.96700473  0.83120257  0.38397665  1
  Si  Si186  1  0.98087369  0.33838921  0.38557522  1
  Si  Si187  1  0.97491375  0.33387692  0.88679068  1
  Si  Si188  1  0.64170235  0.83264624  0.88854547  1
  Si  Si189  1  0.85619835  0.58415656  0.10570933  1
  Si  Si190  1  0.14124840  0.41484460  0.88599451  1
  Si  Si191  1  0.47085406  0.07982577  0.89336371  1
  O  O192  1  0.26828150  0.12478230  0.08429767  1
  O  O193  1  0.28638029  0.10490556  0.59159278  1
  O  O194  1  0.28372774  0.61372230  0.08322241  1
  O  O195  1  0.27589523  0.59368999  0.57772015  1
  O  O196  1  0.60545062  0.10138820  0.08866981  1
  O  O197  1  0.60670564  0.10550847  0.58777727  1
  O  O198  1  0.59827585  0.60823614  0.07425948  1
  O  O199  1  0.61563994  0.61337359  0.58881119  1
  O  O200  1  0.93581871  0.12615432  0.08542850  1
  O  O201  1  0.94900495  0.09753863  0.57311511  1
  O  O202  1  0.94067192  0.60474951  0.07473650  1
  O  O203  1  0.95480113  0.60509227  0.57714982  1
  O  O204  1  0.11854297  0.36300448  0.08281131  1
  O  O205  1  0.10827301  0.35995369  0.58664729  1
  O  O206  1  0.10191174  0.88247835  0.08284742  1
  O  O207  1  0.12209877  0.87125439  0.57867723  1
  O  O208  1  0.43979094  0.36681516  0.08715600  1
  O  O209  1  0.42744461  0.35975766  0.57884832  1
  O  O210  1  0.43690050  0.86613132  0.08332106  1
  O  O211  1  0.45938267  0.86001358  0.58055777  1
  O  O212  1  0.77738173  0.34996797  0.06586981  1
  O  O213  1  0.79926320  0.34887896  0.58253612  1
  O  O214  1  0.76758311  0.88199909  0.08177712  1
  O  O215  1  0.77798675  0.84784818  0.59144473  1
  O  O216  1  0.27678490  0.37977215  0.08091154  1
  O  O217  1  0.26628286  0.37457368  0.58200167  1
  O  O218  1  0.27022631  0.87802199  0.08348566  1
  O  O219  1  0.28329450  0.91636930  0.58722939  1
  O  O220  1  0.59495312  0.39434257  0.07300001  1
  O  O221  1  0.60885304  0.39236215  0.56317017  1
  O  O222  1  0.60332258  0.89482561  0.08494689  1
  O  O223  1  0.62060978  0.89477605  0.59294259  1
  O  O224  1  0.95728884  0.38031007  0.07339753  1
  O  O225  1  0.95397441  0.40157922  0.59088857  1
  O  O226  1  0.93594326  0.88604571  0.08198556  1
  O  O227  1  0.93106534  0.88985100  0.57814294  1
  O  O228  1  0.10086766  0.12125098  0.08336043  1
  O  O229  1  0.13161117  0.15104016  0.58627013  1
  O  O230  1  0.12108454  0.62802515  0.07208239  1
  O  O231  1  0.11622660  0.62865809  0.58307868  1
  O  O232  1  0.43619850  0.12964485  0.08550384  1
  O  O233  1  0.44407528  0.13177106  0.58952601  1
  O  O234  1  0.44297191  0.63972434  0.08372394  1
  O  O235  1  0.45932238  0.65600129  0.58301576  1
  O  O236  1  0.76735330  0.12642936  0.08267949  1
  O  O237  1  0.76287032  0.13986912  0.57284968  1
  O  O238  1  0.78560815  0.64513616  0.07639968  1
  O  O239  1  0.77077200  0.65258260  0.57899824  1
  O  O240  1  0.06926726  0.10835771  0.42307310  1
  O  O241  1  0.06572589  0.12587342  0.91891024  1
  O  O242  1  0.05546599  0.61829211  0.40977669  1
  O  O243  1  0.06528149  0.62208402  0.91629162  1
  O  O244  1  0.39463159  0.12647125  0.41520736  1
  O  O245  1  0.38851276  0.11810810  0.91977827  1
  O  O246  1  0.37573379  0.60735046  0.41918474  1
  O  O247  1  0.39853398  0.63092239  0.91662181  1
  O  O248  1  0.71824455  0.10580453  0.41125458  1
  O  O249  1  0.74287121  0.11560039  0.92868689  1
  O  O250  1  0.72780351  0.61072932  0.41274958  1
  O  O251  1  0.73209135  0.62575634  0.91575019  1
  O  O252  1  0.23038501  0.37643729  0.41420987  1
  O  O253  1  0.23178081  0.37397255  0.91774350  1
  O  O254  1  0.22763222  0.84601614  0.42222451  1
  O  O255  1  0.23141902  0.87709331  0.91831552  1
  O  O256  1  0.56097710  0.35516572  0.40891170  1
  O  O257  1  0.56466971  0.38639930  0.91823750  1
  O  O258  1  0.54837200  0.87315850  0.42491973  1
  O  O259  1  0.56456858  0.87339935  0.91903919  1
  O  O260  1  0.89896493  0.37332101  0.41467804  1
  O  O261  1  0.89977733  0.37577114  0.91705113  1
  O  O262  1  0.88213636  0.86178840  0.41021294  1
  O  O263  1  0.89749214  0.86693812  0.91717106  1
  O  O264  1  0.06226977  0.39382783  0.41102623  1
  O  O265  1  0.06634178  0.37314414  0.91828493  1
  O  O266  1  0.04523583  0.87823649  0.42089988  1
  O  O267  1  0.06356677  0.87916442  0.91645284  1
  O  O268  1  0.39802663  0.37627829  0.41500675  1
  O  O269  1  0.39849805  0.37692402  0.91855733  1
  O  O270  1  0.38341336  0.88549160  0.41433110  1
  O  O271  1  0.39749992  0.86784391  0.91770980  1
  O  O272  1  0.73231271  0.37446067  0.41601879  1
  O  O273  1  0.73372458  0.38974570  0.92045568  1
  O  O274  1  0.72721686  0.90410777  0.41923159  1
  O  O275  1  0.73117632  0.87586577  0.91727820  1
  O  O276  1  0.23000716  0.13745240  0.41838131  1
  O  O277  1  0.22761715  0.12955147  0.91948601  1
  O  O278  1  0.21595070  0.64348907  0.41146611  1
  O  O279  1  0.23175573  0.62139352  0.91689248  1
  O  O280  1  0.55852154  0.12977811  0.41384218  1
  O  O281  1  0.55487919  0.11867455  0.93120249  1
  O  O282  1  0.56872885  0.64046815  0.42365394  1
  O  O283  1  0.56444769  0.62696925  0.91685903  1
  O  O284  1  0.87767801  0.14225638  0.41801738  1
  O  O285  1  0.90421961  0.12126218  0.91917662  1
  O  O286  1  0.89298144  0.62538583  0.41190185  1
  O  O287  1  0.89848304  0.63370990  0.91615342  1
  O  O288  1  0.19015337  0.00152742  0.08398627  1
  O  O289  1  0.16106946  0.00904588  0.59164179  1
  O  O290  1  0.18750024  0.49694065  0.08214302  1
  O  O291  1  0.16682502  0.49202232  0.58695582  1
  O  O292  1  0.49182994  -0.00117867  0.08589863  1
  O  O293  1  0.50340682  -0.00221143  0.58865420  1
  O  O294  1  0.48780057  0.50282193  0.08447126  1
  O  O295  1  0.49181755  0.51697333  0.57665104  1
  O  O296  1  0.85042755  0.00447424  0.08232046  1
  O  O297  1  0.80878899  -0.01339197  0.58399112  1
  O  O298  1  0.82345209  0.50583571  0.07641899  1
  O  O299  1  0.82264390  0.48996967  0.58043461  1
  O  O300  1  0.02455112  0.24700435  0.08000631  1
  O  O301  1  -0.01168849  0.26119456  0.58161429  1
  O  O302  1  0.01222126  0.76244692  0.07125259  1
  O  O303  1  0.01049052  0.73893235  0.57526517  1
  O  O304  1  0.34576904  0.24941697  0.08414727  1
  O  O305  1  0.33630624  0.24267339  0.58852340  1
  O  O306  1  0.34047368  0.75012327  0.08559880  1
  O  O307  1  0.30706543  0.75358249  0.57268225  1
  O  O308  1  0.65414849  0.23402420  0.07743540  1
  O  O309  1  0.65170866  0.24102538  0.58590411  1
  O  O310  1  0.66599849  0.76638418  0.07350685  1
  O  O311  1  0.65508150  0.75319260  0.59011449  1
  O  O312  1  0.18053284  0.00332577  0.42158561  1
  O  O313  1  0.15059569  0.00134339  0.91874794  1
  O  O314  1  0.16104489  0.50635915  0.41181321  1
  O  O315  1  0.14865160  0.49842115  0.91470686  1
  O  O316  1  0.47729606  0.00333086  0.41583195  1
  O  O317  1  0.47186245  -0.00558046  0.92109037  1
  O  O318  1  0.50512334  0.48666752  0.42516057  1
  O  O319  1  0.47465508  0.50492621  0.91998336  1
  O  O320  1  0.83910028  0.00315472  0.41008714  1
  O  O321  1  0.82696033  -0.00530181  0.91830771  1
  O  O322  1  0.82163422  0.49689255  0.41386963  1
  O  O323  1  0.82713009  0.50542853  0.91795298  1
  O  O324  1  0.31847405  0.25393197  0.41445664  1
  O  O325  1  0.31687171  0.25069700  0.91810422  1
  O  O326  1  0.33742226  0.74543753  0.40913108  1
  O  O327  1  0.30532899  0.74901177  0.91682000  1
  O  O328  1  0.66242351  0.24346135  0.41393778  1
  O  O329  1  0.65190893  0.26554178  0.92517134  1
  O  O330  1  0.67996277  0.74505257  0.42011497  1
  O  O331  1  0.64991808  0.74988622  0.91809659  1
  O  O332  1  1.00667764  0.26354174  0.42394230  1
  O  O333  1  0.98223688  0.25037567  0.91730463  1
  O  O334  1  0.97849359  0.74647427  0.41040101  1
  O  O335  1  0.99327001  0.75014287  0.91562424  1
  O  O336  1  0.20989518  0.08429364  0.19493436  1
  O  O337  1  0.21255029  0.08543696  0.69927369  1
  O  O338  1  0.21229980  0.58309130  0.19051910  1
  O  O339  1  0.21351585  0.58238748  0.69287200  1
  O  O340  1  0.53712950  0.08002282  0.19632827  1
  O  O341  1  0.54137520  0.07744318  0.69911202  1
  O  O342  1  0.54388344  0.58504253  0.19227571  1
  O  O343  1  0.53864040  0.58756672  0.69363618  1
  O  O344  1  0.87070060  0.08315312  0.19339856  1
  O  O345  1  0.87803907  0.08194829  0.70249618  1
  O  O346  1  0.87463487  0.58544279  0.18795505  1
  O  O347  1  0.88084029  0.58432304  0.70117184  1
  O  O348  1  0.04861575  0.32919313  0.19035762  1
  O  O349  1  0.04405241  0.33297308  0.69636458  1
  O  O350  1  0.03995852  0.83489231  0.19000872  1
  O  O351  1  0.04540745  0.83293792  0.70091710  1
  O  O352  1  0.36717917  0.33091323  0.19386495  1
  O  O353  1  0.36501897  0.33128444  0.69385841  1
  O  O354  1  0.37749554  0.83779047  0.19475379  1
  O  O355  1  0.37766666  0.83351016  0.70308185  1
  O  O356  1  0.71117247  0.33220610  0.19715292  1
  O  O357  1  0.71658125  0.34440665  0.69940604  1
  O  O358  1  0.70897405  0.83827385  0.19069667  1
  O  O359  1  0.70941725  0.83245090  0.69997603  1
  O  O360  1  0.21323134  0.41603838  0.19283656  1
  O  O361  1  0.21206299  0.41135102  0.69562861  1
  O  O362  1  0.21178208  0.91795471  0.19382496  1
  O  O363  1  0.20920683  0.91905561  0.69571824  1
  O  O364  1  0.54690108  0.42372703  0.19147613  1
  O  O365  1  0.54882796  0.42586842  0.69599895  1
  O  O366  1  0.53740315  0.91747683  0.19468126  1
  O  O367  1  0.54364150  0.91559023  0.69781166  1
  O  O368  1  0.87671417  0.41515299  0.19753340  1
  O  O369  1  0.87937568  0.41675630  0.69570722  1
  O  O370  1  0.87498645  0.91893389  0.19285939  1
  O  O371  1  0.87503642  0.91356027  0.69495890  1
  O  O372  1  0.04808294  0.16928973  0.19355022  1
  O  O373  1  0.04521443  0.16617666  0.70323656  1
  O  O374  1  0.04516432  0.66884731  0.19810428  1
  O  O375  1  0.04577737  0.66403694  0.69049479  1
  O  O376  1  0.37377487  0.16517028  0.19454841  1
  O  O377  1  0.37598596  0.16289812  0.70004026  1
  O  O378  1  0.37823093  0.66629139  0.19473604  1
  O  O379  1  0.37663539  0.66673809  0.70206887  1
  O  O380  1  0.70827705  0.16200183  0.19319283  1
  O  O381  1  0.71440948  0.15542286  0.69248125  1
  O  O382  1  0.70830840  0.66887799  0.19997339  1
  O  O383  1  0.71389605  0.67224402  0.69531363  1
  O  O384  1  0.13243241  0.08345026  0.30970197  1
  O  O385  1  0.12489282  0.08202511  0.80860044  1
  O  O386  1  0.12308230  0.58447902  0.30158978  1
  O  O387  1  0.12275395  0.58585731  0.80527833  1
  O  O388  1  0.45337419  0.08294904  0.30536338  1
  O  O389  1  0.45454576  0.07912866  0.81267771  1
  O  O390  1  0.45673680  0.58198509  0.29914687  1
  O  O391  1  0.45664905  0.58476351  0.80745668  1
  O  O392  1  0.78836309  0.08438890  0.30401156  1
  O  O393  1  0.79208933  0.08050479  0.81067107  1
  O  O394  1  0.79121562  0.58093646  0.30229164  1
  O  O395  1  0.79583848  0.58619709  0.80735553  1
  O  O396  1  0.28978142  0.33476275  0.30489544  1
  O  O397  1  0.29123965  0.33335742  0.80824438  1
  O  O398  1  0.28649031  0.83486483  0.30556453  1
  O  O399  1  0.28645129  0.83368296  0.80741666  1
  O  O400  1  0.63517790  0.32887191  0.30513825  1
  O  O401  1  0.63103339  0.34528464  0.81182923  1
  O  O402  1  0.62040762  0.83473207  0.29793097  1
  O  O403  1  0.62336693  0.83354304  0.80854585  1
  O  O404  1  0.95872913  0.33194726  0.30567049  1
  O  O405  1  0.95960765  0.33372788  0.80686551  1
  O  O406  1  0.95407750  0.83330772  0.30269927  1
  O  O407  1  0.95753816  0.83347013  0.80645009  1
  O  O408  1  0.13092365  0.41984600  0.30251658  1
  O  O409  1  0.12247397  0.41189675  0.80701780  1
  O  O410  1  0.12091383  0.91498520  0.29786971  1
  O  O411  1  0.12531483  0.91808582  0.80747276  1
  O  O412  1  0.45459904  0.42072593  0.30733302  1
  O  O413  1  0.45072780  0.42462113  0.80835974  1
  O  O414  1  0.45428576  0.91770929  0.30788471  1
  O  O415  1  0.45717383  0.91516064  0.80964040  1
  O  O416  1  0.79046628  0.41600396  0.30511537  1
  O  O417  1  0.79693640  0.42107584  0.80853181  1
  O  O418  1  0.78847309  0.91870436  0.30323741  1
  O  O419  1  0.79210848  0.91351826  0.80747411  1
  O  O420  1  0.28919659  0.16738547  0.30572618  1
  O  O421  1  0.28750208  0.16589117  0.80891196  1
  O  O422  1  0.28567834  0.66171080  0.30373127  1
  O  O423  1  0.28752497  0.66645314  0.80656465  1
  O  O424  1  0.62128890  0.16340199  0.30417377  1
  O  O425  1  0.61822662  0.15743867  0.80606747  1
  O  O426  1  0.62411364  0.66655402  0.30776820  1
  O  O427  1  0.62125598  0.67056471  0.80707114  1
  O  O428  1  0.95730366  0.16963705  0.29847610  1
  O  O429  1  0.95924109  0.16615503  0.80845875  1
  O  O430  1  0.95169434  0.66648809  0.30043116  1
  O  O431  1  0.96184510  0.66819595  0.80558752  1
  F  F432  1  0.04657769  0.00001136  0.19759160  1
  F  F433  1  0.04604848  -0.00035907  0.70502282  1
  F  F434  1  0.04946624  0.50435976  0.19529864  1
  F  F435  1  0.04660124  0.49864248  0.70333365  1
  F  F436  1  0.37605154  0.00010110  0.20263240  1
  F  F437  1  0.38027214  0.00037760  0.70892150  1
  F  F438  1  0.37745496  0.49753522  0.19937375  1
  F  F439  1  0.37953275  0.49959683  0.70226987  1
  F  F440  1  0.70990655  -0.00012756  0.20184317  1
  F  F441  1  0.71128601  -0.00264466  0.70876805  1
  F  F442  1  0.71243208  0.50060420  0.20150793  1
  F  F443  1  0.71590039  0.50259284  0.70399669  1
  F  F444  1  0.21233656  0.24829297  0.20311373  1
  F  F445  1  0.21302677  0.24957672  0.70737430  1
  F  F446  1  0.20633368  0.75205078  0.19810675  1
  F  F447  1  0.21194626  0.74962514  0.70369922  1
  F  F448  1  0.54725392  0.23689564  0.19726501  1
  F  F449  1  0.52798882  0.23547106  0.69278747  1
  F  F450  1  0.54249481  0.74924028  0.20045248  1
  F  F451  1  0.54640218  0.75210133  0.70617669  1
  F  F452  1  0.87879164  0.25010615  0.19812531  1
  F  F453  1  0.88073689  0.24950702  0.70439453  1
  F  F454  1  0.87675139  0.75335410  0.19848877  1
  F  F455  1  0.88069130  0.74966148  0.70440834  1
  F  F456  1  0.28779721  0.00056570  0.29738421  1
  F  F457  1  0.28675800  -0.00172726  0.80175577  1
  F  F458  1  0.28654993  0.50003831  0.29465008  1
  F  F459  1  0.29086611  0.50036352  0.79977304  1
  F  F460  1  0.61860536  0.00027850  0.29710890  1
  F  F461  1  0.62205640  -0.00498648  0.80384231  1
  F  F462  1  0.62318442  0.49937588  0.29659698  1
  F  F463  1  0.62121204  0.50465299  0.80238379  1
  F  F464  1  0.95288199  -0.00308208  0.29747155  1
  F  F465  1  0.95725212  -0.00426904  0.80081483  1
  F  F466  1  0.95407977  0.50800255  0.29592845  1
  F  F467  1  0.95902299  0.49903940  0.80088093  1
  F  F468  1  0.12381497  0.25280266  0.29873845  1
  F  F469  1  0.12339830  0.25150389  0.80308775  1
  F  F470  1  0.11924610  0.75174898  0.29725706  1
  F  F471  1  0.12349589  0.74689571  0.79850704  1
  F  F472  1  0.44864819  0.23915135  0.30154323  1
  F  F473  1  0.44800018  0.23977942  0.80753403  1
  F  F474  1  0.45776282  0.75037118  0.29962438  1
  F  F475  1  0.45643810  0.75056691  0.80435246  1
  F  F476  1  0.78916331  0.24713399  0.29525915  1
  F  F477  1  0.80274956  0.24821865  0.80373409  1
  F  F478  1  0.78939514  0.75291102  0.29547390  1
  F  F479  1  0.79087895  0.75038715  0.80132911  1
