# generated using pymatgen
data_K24Na3Li5Mg64Fe17Si79(O5F)48
_symmetry_space_group_name_H-M   'P 1'
_cell_length_a   16.08575035
_cell_length_b   18.57270729
_cell_length_c   20.54540530
_cell_angle_alpha   90.00586034
_cell_angle_beta   100.00538681
_cell_angle_gamma   89.97295873
_symmetry_Int_Tables_number   1
_chemical_formula_structural   K24Na3Li5Mg64Fe17Si79(O5F)48
_chemical_formula_sum   'K24 Na3 Li5 Mg64 Fe17 Si79 O240 F48'
_cell_volume   6044.70986254
_cell_formula_units_Z   1
loop_
 _symmetry_equiv_pos_site_id
 _symmetry_equiv_pos_as_xyz
  1  'x, y, z'
loop_
 _atom_site_type_symbol
 _atom_site_label
 _atom_site_symmetry_multiplicity
 _atom_site_fract_x
 _atom_site_fract_y
 _atom_site_fract_z
 _atom_site_occupancy
  K  K0  1  -0.00171922  0.00376455  0.00313612  1
  K  K1  1  -0.00747928  0.00289750  0.49434643  1
  K  K2  1  -0.01093543  0.49183231  -0.00022587  1
  K  K3  1  0.00339986  0.50881998  0.50631089  1
  K  K4  1  0.34183582  0.00414519  0.00643484  1
  K  K5  1  0.33895930  0.00039371  0.49471748  1
  K  K6  1  0.33397563  0.50317957  -0.00189935  1
  K  K7  1  0.32976392  0.50704133  0.50236793  1
  K  K8  1  0.65899758  -0.00044046  0.00680280  1
  K  K9  1  0.66884060  -0.00202652  0.47689944  1
  K  K10  1  0.68108999  0.50317326  0.00427268  1
  K  K11  1  0.67102734  0.50499402  0.50144397  1
  K  K12  1  0.16597207  0.25522076  -0.00189461  1
  K  K13  1  0.16420828  0.25461456  0.49387182  1
  K  K14  1  0.17064048  0.74827171  -0.00098036  1
  K  K15  1  0.16146118  0.73997373  0.50127868  1
  K  K16  1  0.50611778  0.24480796  0.00510120  1
  K  K17  1  0.50597465  0.25099794  0.49742527  1
  K  K18  1  0.50684865  0.75009054  0.00063589  1
  K  K19  1  0.51705493  0.74511971  0.49904114  1
  K  K20  1  0.83441534  0.25327652  0.00343555  1
  K  K21  1  0.82897676  0.24945731  0.49508003  1
  K  K22  1  0.82322374  0.75197713  -0.00046934  1
  K  K23  1  0.82234683  0.74337940  0.49509428  1
  Na  Na24  1  0.49984571  0.50021803  0.74902531  1
  Na  Na25  1  0.16680711  0.16795482  0.24962730  1
  Na  Na26  1  0.66525476  0.07928901  0.25590226  1
  Li  Li27  1  0.50639788  -0.00030044  0.25240921  1
  Li  Li28  1  0.66859349  0.75043221  0.75608286  1
  Li  Li29  1  -0.00857133  0.41552205  0.75369069  1
  Li  Li30  1  0.83900300  0.34053257  0.75607822  1
  Li  Li31  1  0.83484713  0.33434015  0.24604656  1
  Mg  Mg32  1  0.83284543  0.00007804  0.75285672  1
  Mg  Mg33  1  0.83652104  0.49666467  0.24955222  1
  Mg  Mg34  1  0.16896999  0.50011927  0.24607668  1
  Mg  Mg35  1  0.16767045  -0.00021686  0.25217295  1
  Mg  Mg36  1  0.66821021  0.25294149  0.75504241  1
  Mg  Mg37  1  0.83591366  0.49652621  0.74960677  1
  Mg  Mg38  1  0.00016302  0.74997826  0.74546555  1
  Mg  Mg39  1  0.83215609  -0.00046514  0.25333900  1
  Mg  Mg40  1  -0.00048916  0.75085284  0.24855362  1
  Mg  Mg41  1  0.50145185  0.49755470  0.25097676  1
  Mg  Mg42  1  0.33569614  0.74893242  0.25020597  1
  Mg  Mg43  1  0.16210131  0.50167586  0.74323074  1
  Mg  Mg44  1  0.33315003  0.74890748  0.74623305  1
  Mg  Mg45  1  -0.00538570  0.25369754  0.74880026  1
  Mg  Mg46  1  0.50063440  -0.00025636  0.75373317  1
  Mg  Mg47  1  0.33310125  0.24989405  0.24602090  1
  Mg  Mg48  1  0.33062368  0.25248616  0.74765467  1
  Mg  Mg49  1  0.16513610  -0.00007829  0.74907451  1
  Mg  Mg50  1  0.00121304  0.25080055  0.25089329  1
  Mg  Mg51  1  0.66568368  0.74712163  0.25317248  1
  Mg  Mg52  1  0.67010018  0.24904663  0.25267376  1
  Mg  Mg53  1  0.00064508  0.91628125  0.74843422  1
  Mg  Mg54  1  -0.00009936  0.58377182  0.24528666  1
  Mg  Mg55  1  0.33635043  0.08276130  0.24831121  1
  Mg  Mg56  1  0.33156514  0.58319654  0.74317160  1
  Mg  Mg57  1  0.16687405  0.83382975  0.25097564  1
  Mg  Mg58  1  0.32922036  0.41743213  0.74352199  1
  Mg  Mg59  1  0.66857821  0.58331614  0.25337033  1
  Mg  Mg60  1  0.66758410  0.91368394  0.75339552  1
  Mg  Mg61  1  -0.00193319  0.08392160  0.25301493  1
  Mg  Mg62  1  0.16402519  0.66560852  0.74260568  1
  Mg  Mg63  1  -0.00249726  0.91646801  0.25098962  1
  Mg  Mg64  1  0.50007010  0.16501745  0.25160346  1
  Mg  Mg65  1  0.50354415  0.66774914  0.74857785  1
  Mg  Mg66  1  0.66858635  0.08584867  0.75475862  1
  Mg  Mg67  1  0.16712381  0.66569131  0.24646080  1
  Mg  Mg68  1  0.83296800  0.66624911  0.74831224  1
  Mg  Mg69  1  0.50249164  0.66375914  0.25235571  1
  Mg  Mg70  1  0.49884313  0.33259276  0.24874770  1
  Mg  Mg71  1  0.50065715  0.33492345  0.75042424  1
  Mg  Mg72  1  0.67066473  0.41406714  0.25006937  1
  Mg  Mg73  1  0.16674142  0.33426834  0.24563803  1
  Mg  Mg74  1  0.50324076  0.83541561  0.25481606  1
  Mg  Mg75  1  0.83449050  0.16978562  0.75345585  1
  Mg  Mg76  1  0.33219631  0.58251902  0.24882653  1
  Mg  Mg77  1  0.16421910  0.16794566  0.74810186  1
  Mg  Mg78  1  -0.00036658  0.08511379  0.75062759  1
  Mg  Mg79  1  0.83178563  0.83247885  0.75205990  1
  Mg  Mg80  1  0.33148055  0.41434200  0.24730590  1
  Mg  Mg81  1  0.15851451  0.33740658  0.74728784  1
  Mg  Mg82  1  0.16516580  0.83524170  0.74671099  1
  Mg  Mg83  1  0.83235769  0.66475326  0.25057472  1
  Mg  Mg84  1  0.50282696  0.16676673  0.75326486  1
  Mg  Mg85  1  0.83015571  0.83496110  0.25175466  1
  Mg  Mg86  1  -0.00014813  0.41399852  0.24724011  1
  Mg  Mg87  1  0.66932071  0.41712509  0.75122616  1
  Mg  Mg88  1  0.33320647  0.08544556  0.75007931  1
  Mg  Mg89  1  -0.00053366  0.58378632  0.74255435  1
  Mg  Mg90  1  0.33749839  0.91702525  0.25305825  1
  Mg  Mg91  1  0.83196921  0.16885533  0.25219187  1
  Mg  Mg92  1  0.33375434  0.91564064  0.75107651  1
  Mg  Mg93  1  0.50375053  0.83270456  0.75107953  1
  Mg  Mg94  1  0.66914097  0.58490937  0.75185760  1
  Mg  Mg95  1  0.66384996  0.91492344  0.25581119  1
  Fe  Fe96  1  0.64143237  0.83321054  0.39560691  1
  Fe  Fe97  1  0.18783507  0.58769317  0.10664774  1
  Fe  Fe98  1  0.86329273  0.41527358  0.11061105  1
  Fe  Fe99  1  0.97387117  0.33191969  0.88978493  1
  Fe  Fe100  1  0.52265965  0.08507490  0.11264576  1
  Fe  Fe101  1  0.35759913  0.33357820  0.10765157  1
  Fe  Fe102  1  0.18930650  0.41919053  0.10598233  1
  Fe  Fe103  1  0.01953725  0.67114174  0.60242483  1
  Fe  Fe104  1  0.85327504  0.92045242  0.11271467  1
  Fe  Fe105  1  0.80230406  0.41819162  0.88959800  1
  Fe  Fe106  1  0.64261192  0.65770891  0.39551953  1
  Fe  Fe107  1  0.14265789  0.91668410  0.88813835  1
  Fe  Fe108  1  0.63975002  0.83505223  0.89200360  1
  Fe  Fe109  1  0.64482922  0.16610989  0.89355961  1
  Fe  Fe110  1  0.69092883  0.66420108  0.11293776  1
  Fe  Fe111  1  0.19383039  0.58021527  0.60307544  1
  Fe  Fe112  1  0.81543393  0.08888428  0.39437237  1
  Si  Si113  1  0.30579431  0.82834403  0.88390092  1
  Si  Si114  1  0.19476438  0.92034245  0.61182347  1
  Si  Si115  1  0.68623230  0.83162825  0.11576760  1
  Si  Si116  1  0.19006375  0.07483156  0.11625773  1
  Si  Si117  1  0.97702499  0.66870890  0.88170604  1
  Si  Si118  1  0.02531214  0.83831518  0.11502530  1
  Si  Si119  1  0.97817532  0.82899804  0.38741963  1
  Si  Si120  1  0.14507700  0.08386636  0.88438265  1
  Si  Si121  1  0.52614989  0.41695337  0.61293254  1
  Si  Si122  1  0.85347558  0.08861008  0.11478804  1
  Si  Si123  1  0.47204080  0.58166144  0.88152156  1
  Si  Si124  1  0.36444208  0.66451292  0.11376580  1
  Si  Si125  1  0.46620574  0.91824933  0.88765354  1
  Si  Si126  1  0.03090083  0.32412740  0.11087876  1
  Si  Si127  1  0.68830211  0.33322764  0.61437093  1
  Si  Si128  1  0.69052368  0.16880222  0.61596644  1
  Si  Si129  1  0.46708043  0.57704505  0.38952179  1
  Si  Si130  1  0.97319581  0.83321280  0.88474105  1
  Si  Si131  1  0.81301032  0.58699609  0.88527321  1
  Si  Si132  1  0.69321802  0.17277309  0.11591435  1
  Si  Si133  1  0.36095642  0.33096342  0.61111080  1
  Si  Si134  1  0.97743895  0.66358612  0.38391736  1
  Si  Si135  1  0.46412198  0.41421562  0.88139225  1
  Si  Si136  1  0.14299763  0.58380737  0.38263648  1
  Si  Si137  1  0.85515317  0.92065935  0.61494144  1
  Si  Si138  1  0.18898199  0.40767947  0.60673998  1
  Si  Si139  1  0.30067696  0.33693974  0.88078889  1
  Si  Si140  1  0.85453293  0.08504538  0.61650287  1
  Si  Si141  1  0.53037926  0.58594224  0.61408982  1
  Si  Si142  1  0.02230145  0.84286775  0.60807178  1
  Si  Si143  1  0.30169575  0.17251251  0.88178717  1
  Si  Si144  1  0.36114844  0.83653737  0.61319731  1
  Si  Si145  1  0.69389499  0.66610945  0.61595416  1
  Si  Si146  1  0.52383113  0.91635023  0.11701014  1
  Si  Si147  1  0.34825718  0.16499919  0.10903617  1
  Si  Si148  1  0.02067879  0.32905309  0.61101129  1
  Si  Si149  1  0.02193859  0.15944168  0.11694713  1
  Si  Si150  1  0.19535569  0.91091247  0.11703268  1
  Si  Si151  1  0.52828390  0.91738273  0.61506981  1
  Si  Si152  1  0.02225934  0.16428948  0.61312747  1
  Si  Si153  1  0.30848863  0.16592438  0.38619024  1
  Si  Si154  1  0.85578985  0.41352312  0.61409527  1
  Si  Si155  1  0.69186623  0.33479233  0.11547469  1
  Si  Si156  1  0.47044316  0.41318389  0.38675702  1
  Si  Si157  1  0.14401844  0.41931479  0.38454931  1
  Si  Si158  1  0.81675516  0.57526557  0.38933891  1
  Si  Si159  1  0.64141996  0.33809872  0.38823533  1
  Si  Si160  1  0.36278973  0.83060249  0.11780952  1
  Si  Si161  1  0.63317581  0.33862021  0.88982046  1
  Si  Si162  1  0.13912624  0.42307627  0.88177759  1
  Si  Si163  1  0.30736695  0.83412388  0.38784025  1
  Si  Si164  1  0.46559470  0.08556491  0.88695126  1
  Si  Si165  1  0.36158389  0.16577821  0.61350303  1
  Si  Si166  1  0.64056682  0.66253770  0.88693974  1
  Si  Si167  1  0.52578363  0.57692331  0.11505800  1
  Si  Si168  1  0.02559961  0.67570653  0.11274608  1
  Si  Si169  1  0.14304434  0.58669341  0.88105458  1
  Si  Si170  1  0.81376485  0.41160665  0.38609629  1
  Si  Si171  1  0.52830065  0.41385524  0.11469686  1
  Si  Si172  1  0.81562342  0.07997224  0.88856175  1
  Si  Si173  1  0.98266677  0.33484946  0.38583404  1
  Si  Si174  1  0.85402183  0.57908529  0.60917844  1
  Si  Si175  1  0.47030318  0.92027598  0.39098016  1
  Si  Si176  1  0.47155095  0.08842227  0.38833405  1
  Si  Si177  1  0.69454470  0.83321652  0.61679044  1
  Si  Si178  1  0.98084379  0.16303921  0.88701501  1
  Si  Si179  1  0.81586055  0.91463938  0.39428640  1
  Si  Si180  1  0.52707357  0.08166506  0.61541127  1
  Si  Si181  1  0.30703653  0.66892972  0.38548834  1
  Si  Si182  1  0.30568860  0.32998579  0.38606341  1
  Si  Si183  1  0.14093577  0.91449341  0.38818408  1
  Si  Si184  1  0.31057515  0.66567627  0.88102674  1
  Si  Si185  1  0.98569688  0.17066521  0.39206348  1
  Si  Si186  1  0.19266830  0.08639740  0.61260773  1
  Si  Si187  1  0.86383084  0.58841921  0.11081734  1
  Si  Si188  1  0.36473482  0.66987486  0.60853323  1
  Si  Si189  1  0.63770282  0.17302052  0.39180204  1
  Si  Si190  1  0.14400779  0.07908893  0.38798317  1
  Si  Si191  1  0.81113873  0.91643733  0.88740163  1
  O  O192  1  0.26771226  0.10768595  0.08385566  1
  O  O193  1  0.26803426  0.13050646  0.58349754  1
  O  O194  1  0.28803344  0.61602315  0.07604599  1
  O  O195  1  0.28314527  0.62822191  0.57005186  1
  O  O196  1  0.62111026  0.11699664  0.08199298  1
  O  O197  1  0.60162653  0.12553792  0.58642935  1
  O  O198  1  0.60629356  0.59596190  0.08125472  1
  O  O199  1  0.60652783  0.62383726  0.58228101  1
  O  O200  1  0.93951442  0.11091079  0.08459758  1
  O  O201  1  0.93582000  0.11763014  0.58645003  1
  O  O202  1  0.95125596  0.61760782  0.08592240  1
  O  O203  1  0.92344571  0.61436080  0.57102489  1
  O  O204  1  0.11624697  0.34129902  0.08232175  1
  O  O205  1  0.10010564  0.36278619  0.57917152  1
  O  O206  1  0.11612174  0.85675461  0.08956102  1
  O  O207  1  0.10263167  0.88539767  0.58207833  1
  O  O208  1  0.46194843  0.35429374  0.08058973  1
  O  O209  1  0.43409414  0.37738082  0.58183530  1
  O  O210  1  0.44390116  0.86019821  0.08820564  1
  O  O211  1  0.43603826  0.88090660  0.58451362  1
  O  O212  1  0.77067872  0.35564543  0.08022294  1
  O  O213  1  0.76790810  0.36795381  0.58412715  1
  O  O214  1  0.76740548  0.85425681  0.08232697  1
  O  O215  1  0.77146119  0.87213339  0.58529601  1
  O  O216  1  0.28560147  0.40510987  0.06985310  1
  O  O217  1  0.26579765  0.35985675  0.58069491  1
  O  O218  1  0.27808312  0.87939509  0.08863340  1
  O  O219  1  0.27087208  0.87782263  0.58267039  1
  O  O220  1  0.61765060  0.39580420  0.08898835  1
  O  O221  1  0.60069844  0.37683637  0.57918841  1
  O  O222  1  0.60863214  0.88887262  0.08946901  1
  O  O223  1  0.60370038  0.87385347  0.58718010  1
  O  O224  1  0.95519666  0.37656801  0.07724499  1
  O  O225  1  0.93278548  0.37328861  0.58193958  1
  O  O226  1  0.95624418  0.89660649  0.08281445  1
  O  O227  1  0.93843941  0.89504927  0.58459981  1
  O  O228  1  0.10298852  0.12091090  0.08994742  1
  O  O229  1  0.10134172  0.12495514  0.58342682  1
  O  O230  1  0.10854763  0.66250603  0.08051018  1
  O  O231  1  0.10096001  0.63022181  0.56048281  1
  O  O232  1  0.42571963  0.13816497  0.07374411  1
  O  O233  1  0.43449767  0.11888744  0.58487120  1
  O  O234  1  0.45057379  0.63629906  0.08796928  1
  O  O235  1  0.44609430  0.63238375  0.58178843  1
  O  O236  1  0.78309818  0.15219544  0.09008277  1
  O  O237  1  0.76985369  0.13233029  0.58647018  1
  O  O238  1  0.79074749  0.64551485  0.08025545  1
  O  O239  1  0.76553711  0.62416717  0.58231518  1
  O  O240  1  0.07430445  0.12452917  0.42117392  1
  O  O241  1  0.05738216  0.10332090  0.91092560  1
  O  O242  1  0.06442963  0.61902104  0.41258741  1
  O  O243  1  0.06175593  0.61985721  0.91057354  1
  O  O244  1  0.39855354  0.13041873  0.42318042  1
  O  O245  1  0.37967196  0.11873755  0.91062265  1
  O  O246  1  0.38977488  0.62132645  0.41673663  1
  O  O247  1  0.39131186  0.61463134  0.91302705  1
  O  O248  1  0.72340973  0.13348603  0.42715355  1
  O  O249  1  0.73707039  0.10356950  0.92307485  1
  O  O250  1  0.74324896  0.60489588  0.42619385  1
  O  O251  1  0.72887128  0.61760613  0.91301266  1
  O  O252  1  0.23226107  0.37561509  0.41625740  1
  O  O253  1  0.21975827  0.36798173  0.90962039  1
  O  O254  1  0.22725713  0.86913735  0.41766625  1
  O  O255  1  0.22506740  0.84665676  0.91769450  1
  O  O256  1  0.56614907  0.38309720  0.41767304  1
  O  O257  1  0.54135720  0.36092727  0.91250242  1
  O  O258  1  0.55398510  0.88236194  0.43039228  1
  O  O259  1  0.54604575  0.87396494  0.92488483  1
  O  O260  1  0.89821766  0.36237468  0.41502242  1
  O  O261  1  0.88121475  0.35223510  0.92822998  1
  O  O262  1  0.90282496  0.86461238  0.41975760  1
  O  O263  1  0.88545569  0.85574383  0.91087644  1
  O  O264  1  0.06570946  0.38566460  0.41742459  1
  O  O265  1  0.06202018  0.39977818  0.91710287  1
  O  O266  1  0.06510618  0.87413548  0.41826755  1
  O  O267  1  0.04503353  0.88840016  0.91999098  1
  O  O268  1  0.40087539  0.36210334  0.41646716  1
  O  O269  1  0.38089641  0.38774144  0.91180750  1
  O  O270  1  0.38807931  0.88363133  0.42014547  1
  O  O271  1  0.38130741  0.88541915  0.91202911  1
  O  O272  1  0.73336277  0.37694740  0.41783928  1
  O  O273  1  0.69880640  0.40097858  0.91871110  1
  O  O274  1  0.74349804  0.87982837  0.43034454  1
  O  O275  1  0.73224385  0.89691653  0.92261569  1
  O  O276  1  0.23577260  0.11824345  0.41530362  1
  O  O277  1  0.21619823  0.14739141  0.90859180  1
  O  O278  1  0.22632052  0.63267179  0.41294840  1
  O  O279  1  0.22611853  0.63820198  0.90950596  1
  O  O280  1  0.55922586  0.13097095  0.42080898  1
  O  O281  1  0.54574440  0.13108476  0.92168843  1
  O  O282  1  0.55517208  0.60711620  0.42858450  1
  O  O283  1  0.56042694  0.62155554  0.91427173  1
  O  O284  1  0.91467907  0.14141808  0.43207709  1
  O  O285  1  0.89807297  0.13125570  0.91516161  1
  O  O286  1  0.90320215  0.62374628  0.41541835  1
  O  O287  1  0.89406258  0.64219545  0.91144905  1
  O  O288  1  0.17332667  -0.00826198  0.08592156  1
  O  O289  1  0.19321254  0.00393825  0.58300288  1
  O  O290  1  0.14062270  0.50436933  0.07005604  1
  O  O291  1  0.18549029  0.48377884  0.56917569  1
  O  O292  1  0.49705970  -0.00882494  0.07920330  1
  O  O293  1  0.52344734  -0.00010096  0.58442534  1
  O  O294  1  0.49444932  0.49534014  0.08898678  1
  O  O295  1  0.51816230  0.50141933  0.58640158  1
  O  O296  1  0.82035045  0.01304230  0.08025924  1
  O  O297  1  0.83577008  0.00334163  0.58696703  1
  O  O298  1  0.84259340  0.50997378  0.07808278  1
  O  O299  1  0.83943649  0.49486814  0.58113162  1
  O  O300  1  0.00616193  0.24006505  0.08581056  1
  O  O301  1  0.00904611  0.24525708  0.58068625  1
  O  O302  1  -0.00792504  0.75765310  0.08905738  1
  O  O303  1  0.00622708  0.76793095  0.56941198  1
  O  O304  1  0.31534095  0.24238794  0.07818525  1
  O  O305  1  0.36494945  0.24739151  0.58286058  1
  O  O306  1  0.34558422  0.74884246  0.08815830  1
  O  O307  1  0.35888056  0.75528908  0.58242464  1
  O  O308  1  0.66154156  0.25369979  0.08703960  1
  O  O309  1  0.67670995  0.24999848  0.58391004  1
  O  O310  1  0.64984627  0.75481788  0.08476062  1
  O  O311  1  0.68612946  0.75020622  0.58859853  1
  O  O312  1  0.15164847  -0.00364345  0.42041514  1
  O  O313  1  0.18227799  0.00908960  0.91731358  1
  O  O314  1  0.15993096  0.50229145  0.41318290  1
  O  O315  1  0.16821301  0.50572727  0.90897002  1
  O  O316  1  0.47228154  0.00554312  0.41758329  1
  O  O317  1  0.47127125  0.00225187  0.91367268  1
  O  O318  1  0.45769030  0.49341638  0.41666382  1
  O  O319  1  0.48215155  0.49760122  0.90704237  1
  O  O320  1  0.83713923  -0.00594522  0.42694350  1
  O  O321  1  0.84768646  -0.00271760  0.91089451  1
  O  O322  1  0.83765533  0.49213637  0.41786181  1
  O  O323  1  0.83841933  0.51126731  0.92059705  1
  O  O324  1  0.30364483  0.24809800  0.41744615  1
  O  O325  1  0.32256190  0.25454158  0.90895456  1
  O  O326  1  0.31934756  0.75099422  0.41667684  1
  O  O327  1  0.33692298  0.74662378  0.90964229  1
  O  O328  1  0.64100011  0.25760618  0.42219065  1
  O  O329  1  0.66081594  0.26097667  0.92360735  1
  O  O330  1  0.65203126  0.74482444  0.43901720  1
  O  O331  1  0.65244092  0.73980695  0.92389539  1
  O  O332  1  1.00758269  0.25468870  0.41795758  1
  O  O333  1  1.01188930  0.23790094  0.92124265  1
  O  O334  1  0.99236580  0.74551211  0.41444911  1
  O  O335  1  0.99887260  0.75059307  0.91077360  1
  O  O336  1  0.21366373  0.07267570  0.19563310  1
  O  O337  1  0.21043787  0.08514105  0.69287265  1
  O  O338  1  0.21300132  0.58496436  0.19985248  1
  O  O339  1  0.21083663  0.58440835  0.69505850  1
  O  O340  1  0.53335303  0.08415954  0.20085154  1
  O  O341  1  0.54147590  0.08210298  0.69546846  1
  O  O342  1  0.54251696  0.57923390  0.19631435  1
  O  O343  1  0.54890141  0.59054570  0.69301640  1
  O  O344  1  0.87694410  0.08384581  0.19563685  1
  O  O345  1  0.87481290  0.08337004  0.69669694  1
  O  O346  1  0.87900454  0.58583726  0.19299230  1
  O  O347  1  0.87488644  0.58341037  0.68977185  1
  O  O348  1  0.04468178  0.33010265  0.19250011  1
  O  O349  1  0.04357238  0.32685643  0.69000544  1
  O  O350  1  0.04503958  0.83583553  0.19659569  1
  O  O351  1  0.04191360  0.83691078  0.68888436  1
  O  O352  1  0.37930708  0.33403133  0.20060959  1
  O  O353  1  0.37611620  0.33143952  0.69119687  1
  O  O354  1  0.37713324  0.83195649  0.19840478  1
  O  O355  1  0.37619449  0.83658134  0.69354380  1
  O  O356  1  0.70664065  0.33353202  0.19599101  1
  O  O357  1  0.69958818  0.33176079  0.69328444  1
  O  O358  1  0.70921620  0.83050020  0.19729147  1
  O  O359  1  0.71400849  0.83872527  0.69588937  1
  O  O360  1  0.21226571  0.41837168  0.19962079  1
  O  O361  1  0.20654884  0.41225912  0.68744805  1
  O  O362  1  0.21199038  0.91352372  0.19776605  1
  O  O363  1  0.21316242  0.91944507  0.69204020  1
  O  O364  1  0.54457129  0.41522086  0.19636819  1
  O  O365  1  0.54562476  0.40926811  0.69172975  1
  O  O366  1  0.54102856  0.91400449  0.19711388  1
  O  O367  1  0.54194580  0.91959457  0.69509863  1
  O  O368  1  0.88200185  0.41868424  0.20129340  1
  O  O369  1  0.87526601  0.41763051  0.69237021  1
  O  O370  1  0.87868787  0.91608704  0.20459365  1
  O  O371  1  0.87536135  0.91838178  0.69545118  1
  O  O372  1  0.03434292  0.16280092  0.19644362  1
  O  O373  1  0.04364636  0.16453038  0.69322109  1
  O  O374  1  0.04444550  0.67070792  0.19441004  1
  O  O375  1  0.04326315  0.67006875  0.69469969  1
  O  O376  1  0.37105737  0.16537895  0.19080921  1
  O  O377  1  0.37648045  0.16602851  0.69364449  1
  O  O378  1  0.37816908  0.66459898  0.19526166  1
  O  O379  1  0.37693775  0.66861422  0.68924632  1
  O  O380  1  0.71270195  0.17408538  0.19581846  1
  O  O381  1  0.70934083  0.16631516  0.69577221  1
  O  O382  1  0.71317605  0.66416844  0.20475896  1
  O  O383  1  0.71275054  0.66439211  0.69528639  1
  O  O384  1  0.12083494  0.07457776  0.30929292  1
  O  O385  1  0.12553322  0.08378318  0.80267286  1
  O  O386  1  0.12385259  0.58467009  0.30275016  1
  O  O387  1  0.12347363  0.58641855  0.80095517  1
  O  O388  1  0.45158788  0.08988042  0.30939035  1
  O  O389  1  0.45310946  0.08483518  0.80525695  1
  O  O390  1  0.45446538  0.58039905  0.30876877  1
  O  O391  1  0.44949316  0.59144609  0.80236943  1
  O  O392  1  0.80322124  0.08461030  0.30503142  1
  O  O393  1  0.79269378  0.08337275  0.80695937  1
  O  O394  1  0.79648224  0.57849851  0.30875073  1
  O  O395  1  0.79404142  0.58555466  0.80426655  1
  O  O396  1  0.28966375  0.33199999  0.30682044  1
  O  O397  1  0.28455318  0.33438135  0.79984692  1
  O  O398  1  0.28960024  0.83297092  0.30755951  1
  O  O399  1  0.28866537  0.83225974  0.80241314  1
  O  O400  1  0.62317990  0.33649638  0.30832359  1
  O  O401  1  0.61860457  0.33422822  0.80772705  1
  O  O402  1  0.62197900  0.82858498  0.30368312  1
  O  O403  1  0.61962865  0.83638329  0.80107524  1
  O  O404  1  0.96692103  0.33492669  0.30693290  1
  O  O405  1  0.95669733  0.33050270  0.80007966  1
  O  O406  1  0.96196431  0.83098011  0.30740478  1
  O  O407  1  0.95817738  0.83446408  0.80322031  1
  O  O408  1  0.12473137  0.41866331  0.30485044  1
  O  O409  1  0.12585975  0.42093906  0.80122476  1
  O  O410  1  0.12445045  0.91472145  0.30797166  1
  O  O411  1  0.12195947  0.91736083  0.79561410  1
  O  O412  1  0.45664754  0.41499902  0.30698118  1
  O  O413  1  0.44524732  0.40900508  0.80171290  1
  O  O414  1  0.45230241  0.91161338  0.31157820  1
  O  O415  1  0.45396802  0.91738819  0.80597469  1
  O  O416  1  0.78970031  0.41680916  0.30720784  1
  O  O417  1  0.78742208  0.41875823  0.79889942  1
  O  O418  1  0.79406810  0.91334050  0.31343564  1
  O  O419  1  0.79087504  0.91688408  0.80591472  1
  O  O420  1  0.29929259  0.16655731  0.30746595  1
  O  O421  1  0.28713879  0.16919064  0.80078548  1
  O  O422  1  0.29099946  0.66928947  0.30543159  1
  O  O423  1  0.29053033  0.66740100  0.80057720  1
  O  O424  1  0.61841090  0.17660831  0.31262972  1
  O  O425  1  0.62172926  0.16672201  0.80099914  1
  O  O426  1  0.62005984  0.66225543  0.30376500  1
  O  O427  1  0.62069532  0.66428869  0.80661939  1
  O  O428  1  0.96443815  0.16708214  0.31191209  1
  O  O429  1  0.95938748  0.16467942  0.80551156  1
  O  O430  1  0.95896791  0.66570205  0.30369654  1
  O  O431  1  0.95777005  0.66824071  0.80121025  1
  F  F432  1  0.04662735  -0.00142825  0.20479476  1
  F  F433  1  0.04373162  0.00387349  0.69784446  1
  F  F434  1  0.04651237  0.50024723  0.20178847  1
  F  F435  1  0.04735784  0.50679471  0.69188170  1
  F  F436  1  0.37339343  -0.00304229  0.20414488  1
  F  F437  1  0.37876698  0.00107457  0.70164514  1
  F  F438  1  0.38095860  0.49991482  0.20498828  1
  F  F439  1  0.36563541  0.49878235  0.69158838  1
  F  F440  1  0.71601659  -0.01307802  0.20501332  1
  F  F441  1  0.71073313  0.00146031  0.70462207  1
  F  F442  1  0.71353348  0.50015912  0.20547301  1
  F  F443  1  0.71089647  0.50257626  0.69823475  1
  F  F444  1  0.21658880  0.25692621  0.19923936  1
  F  F445  1  0.21066828  0.24890968  0.69731204  1
  F  F446  1  0.21420837  0.75198933  0.20345149  1
  F  F447  1  0.21271397  0.75349907  0.69688683  1
  F  F448  1  0.54655848  0.24988584  0.20566114  1
  F  F449  1  0.54191638  0.24946966  0.70119198  1
  F  F450  1  0.53987805  0.74815392  0.20382188  1
  F  F451  1  0.53600147  0.75199212  0.69708042  1
  F  F452  1  0.88249281  0.24752457  0.20739447  1
  F  F453  1  0.88019300  0.23804617  0.69515314  1
  F  F454  1  0.87912703  0.75062172  0.20551956  1
  F  F455  1  0.87799917  0.75259220  0.69941696  1
  F  F456  1  0.28766428  -0.00221129  0.30325913  1
  F  F457  1  0.28746704  0.00153492  0.79518887  1
  F  F458  1  0.29095064  0.50013347  0.30163151  1
  F  F459  1  0.28647940  0.49874700  0.79317071  1
  F  F460  1  0.62120842  -0.01387654  0.31339368  1
  F  F461  1  0.62032265  0.00121466  0.79914999  1
  F  F462  1  0.62205538  0.49714245  0.30027092  1
  F  F463  1  0.63129888  0.50127154  0.79897112  1
  F  F464  1  0.95950090  -0.00043477  0.30293197  1
  F  F465  1  0.95634039  0.00004042  0.79579008  1
  F  F466  1  0.96010035  0.50364132  0.29929001  1
  F  F467  1  0.95565822  0.50731248  0.79423492  1
  F  F468  1  0.12063664  0.26004224  0.30221387  1
  F  F469  1  0.12135508  0.24990908  0.79424707  1
  F  F470  1  0.12299494  0.74965925  0.29845588  1
  F  F471  1  0.12278497  0.75241535  0.79336146  1
  F  F472  1  0.45383251  0.24983440  0.29954315  1
  F  F473  1  0.44990523  0.24920377  0.79571565  1
  F  F474  1  0.45270540  0.74682778  0.30120803  1
  F  F475  1  0.45146958  0.75132953  0.79574870  1
  F  F476  1  0.78652254  0.24728809  0.30557413  1
  F  F477  1  0.78615081  0.24642285  0.79941536  1
  F  F478  1  0.79271929  0.74928592  0.30271879  1
  F  F479  1  0.79445399  0.74928686  0.79855611  1
