# generated using pymatgen
data_K24Na3Li5Mg64Fe17Si79(O5F)48
_symmetry_space_group_name_H-M   'P 1'
_cell_length_a   16.08856950
_cell_length_b   18.58376712
_cell_length_c   20.56110797
_cell_angle_alpha   89.98425345
_cell_angle_beta   100.01588729
_cell_angle_gamma   90.00522361
_symmetry_Int_Tables_number   1
_chemical_formula_structural   K24Na3Li5Mg64Fe17Si79(O5F)48
_chemical_formula_sum   'K24 Na3 Li5 Mg64 Fe17 Si79 O240 F48'
_cell_volume   6053.79750460
_cell_formula_units_Z   1
loop_
 _symmetry_equiv_pos_site_id
 _symmetry_equiv_pos_as_xyz
  1  'x, y, z'
loop_
 _atom_site_type_symbol
 _atom_site_label
 _atom_site_symmetry_multiplicity
 _atom_site_fract_x
 _atom_site_fract_y
 _atom_site_fract_z
 _atom_site_occupancy
  K  K0  1  -0.00476174  -0.00727671  -0.00772539  1
  K  K1  1  0.00572619  -0.01125459  0.50162774  1
  K  K2  1  0.00229145  0.51396774  0.00064636  1
  K  K3  1  0.00530568  0.49988962  0.50204137  1
  K  K4  1  0.33114209  -0.01489360  -0.01245700  1
  K  K5  1  0.33843325  -0.00311327  0.51199132  1
  K  K6  1  0.33333233  0.50137915  -0.00816831  1
  K  K7  1  0.33042920  0.51041359  0.50428557  1
  K  K8  1  0.67103398  -0.00839724  -0.00781227  1
  K  K9  1  0.65878604  -0.01074309  0.50367722  1
  K  K10  1  0.67844848  0.51002665  -0.00376182  1
  K  K11  1  0.67701351  0.50025467  0.50230735  1
  K  K12  1  0.16575445  0.25087246  -0.00641325  1
  K  K13  1  0.16736850  0.25812047  0.50724830  1
  K  K14  1  0.16653788  0.74803022  -0.00028847  1
  K  K15  1  0.16468376  0.74649480  0.50230539  1
  K  K16  1  0.49725999  0.24925632  -0.00835000  1
  K  K17  1  0.50567646  0.24148380  0.51258078  1
  K  K18  1  0.48376363  0.75111352  -0.00319581  1
  K  K19  1  0.49955280  0.75196993  0.50124706  1
  K  K20  1  0.82979480  0.25064138  -0.01262671  1
  K  K21  1  0.83610119  0.25684858  0.50457583  1
  K  K22  1  0.84032122  0.74484577  0.00493806  1
  K  K23  1  0.83652699  0.75830924  0.50413148  1
  Na  Na24  1  -0.00197373  0.75092533  0.74340201  1
  Na  Na25  1  -0.00092608  0.91444148  0.24654813  1
  Na  Na26  1  0.33283041  0.92379608  0.74507628  1
  Li  Li27  1  -0.00576883  0.74903086  0.24192530  1
  Li  Li28  1  0.16257112  0.50982078  0.24705127  1
  Li  Li29  1  0.84230252  0.67214768  0.24756615  1
  Li  Li30  1  0.49810438  0.66506724  0.74009803  1
  Li  Li31  1  0.33216770  0.07922529  0.74843733  1
  Mg  Mg32  1  0.49939221  0.50135316  0.24698532  1
  Mg  Mg33  1  0.49983079  0.50268842  0.74915638  1
  Mg  Mg34  1  0.66391439  0.74671561  0.74975857  1
  Mg  Mg35  1  0.66897904  0.74972977  0.25303455  1
  Mg  Mg36  1  0.16905166  0.00095494  0.74820102  1
  Mg  Mg37  1  0.83735378  0.50543663  0.25149497  1
  Mg  Mg38  1  0.66915947  0.24880366  0.75605663  1
  Mg  Mg39  1  0.33536893  0.74925106  0.24367239  1
  Mg  Mg40  1  0.83233897  0.50146598  0.75480854  1
  Mg  Mg41  1  0.49891297  0.00150260  0.75066024  1
  Mg  Mg42  1  0.83536870  0.00061128  0.75202413  1
  Mg  Mg43  1  0.16805976  0.49995030  0.74533404  1
  Mg  Mg44  1  0.33068657  0.25148605  0.24887973  1
  Mg  Mg45  1  -0.00045576  0.25296316  0.25493664  1
  Mg  Mg46  1  0.66760194  0.25121254  0.25139868  1
  Mg  Mg47  1  0.49960057  -0.00191006  0.24872464  1
  Mg  Mg48  1  0.16402204  -0.00131139  0.24611067  1
  Mg  Mg49  1  0.00135944  0.24733848  0.75190002  1
  Mg  Mg50  1  0.83408521  -0.00191019  0.25380700  1
  Mg  Mg51  1  0.33655686  0.75072725  0.74678890  1
  Mg  Mg52  1  0.33341653  0.24662315  0.75016618  1
  Mg  Mg53  1  -0.00014898  0.58440692  0.74820645  1
  Mg  Mg54  1  0.00211837  0.58956472  0.24712915  1
  Mg  Mg55  1  -0.00046434  0.41498191  0.75183147  1
  Mg  Mg56  1  0.33158105  0.08473034  0.24854632  1
  Mg  Mg57  1  0.49978601  0.83289456  0.24753042  1
  Mg  Mg58  1  0.67120680  0.58627672  0.25110246  1
  Mg  Mg59  1  0.83181410  0.83418986  0.74917137  1
  Mg  Mg60  1  0.16497540  0.33344097  0.74738616  1
  Mg  Mg61  1  0.16435962  0.66711998  0.24470500  1
  Mg  Mg62  1  0.33609857  0.58583286  0.74483163  1
  Mg  Mg63  1  0.16453335  0.33842669  0.25028299  1
  Mg  Mg64  1  0.66739495  0.41673129  0.75464112  1
  Mg  Mg65  1  0.66207368  0.58539746  0.75178445  1
  Mg  Mg66  1  0.83566161  0.16647655  0.25463221  1
  Mg  Mg67  1  -0.00109401  0.08440139  0.75133812  1
  Mg  Mg68  1  0.66741979  0.08377217  0.25201195  1
  Mg  Mg69  1  0.49887518  0.33486217  0.24892262  1
  Mg  Mg70  1  0.66638352  0.91469409  0.75376231  1
  Mg  Mg71  1  0.16707721  0.16385604  0.74920235  1
  Mg  Mg72  1  0.32876020  0.58441969  0.24419501  1
  Mg  Mg73  1  0.33147243  0.41537760  0.74857972  1
  Mg  Mg74  1  0.83765132  0.33667342  0.25498020  1
  Mg  Mg75  1  0.49988051  0.16637646  0.24980450  1
  Mg  Mg76  1  0.49973688  0.33329578  0.75293142  1
  Mg  Mg77  1  0.16282380  0.83140047  0.24369898  1
  Mg  Mg78  1  0.32800875  0.41864131  0.24608200  1
  Mg  Mg79  1  0.49703225  0.83163644  0.75120176  1
  Mg  Mg80  1  0.83602959  0.82893649  0.24990637  1
  Mg  Mg81  1  0.50000760  0.16346302  0.75380664  1
  Mg  Mg82  1  -0.00238652  0.91593610  0.74712745  1
  Mg  Mg83  1  0.83315344  0.33487826  0.75603896  1
  Mg  Mg84  1  0.49929373  0.66543691  0.24787668  1
  Mg  Mg85  1  0.16370484  0.16668225  0.25091864  1
  Mg  Mg86  1  0.83070116  0.66704370  0.75032445  1
  Mg  Mg87  1  0.67084336  0.08439360  0.75404422  1
  Mg  Mg88  1  0.16721348  0.66745912  0.74460003  1
  Mg  Mg89  1  0.16550335  0.83429957  0.74493858  1
  Mg  Mg90  1  -0.00062511  0.08352457  0.25243759  1
  Mg  Mg91  1  0.66914113  0.41769134  0.25204172  1
  Mg  Mg92  1  0.00338570  0.41969611  0.25399057  1
  Mg  Mg93  1  0.83359482  0.16346364  0.75439324  1
  Mg  Mg94  1  0.33170739  0.91458161  0.24515542  1
  Mg  Mg95  1  0.66797031  0.91344862  0.25134880  1
  Fe  Fe96  1  0.35806219  0.67376657  0.60633911  1
  Fe  Fe97  1  0.69429177  0.17186804  0.61300341  1
  Fe  Fe98  1  0.63978406  0.83290394  0.39065453  1
  Fe  Fe99  1  0.69251987  0.66262448  0.61095802  1
  Fe  Fe100  1  0.35379162  0.83809058  0.10443580  1
  Fe  Fe101  1  0.85804409  0.08264716  0.60909942  1
  Fe  Fe102  1  0.36095220  0.66216594  0.10461990  1
  Fe  Fe103  1  0.81156948  0.08152897  0.89757832  1
  Fe  Fe104  1  0.02683214  0.67354717  0.10429803  1
  Fe  Fe105  1  0.02714831  0.16223069  0.61058680  1
  Fe  Fe106  1  0.19105483  0.57428803  0.10477558  1
  Fe  Fe107  1  0.81061553  0.41684879  0.89623239  1
  Fe  Fe108  1  0.52312553  0.57904662  0.60766110  1
  Fe  Fe109  1  0.02699076  0.83397982  0.60402448  1
  Fe  Fe110  1  0.19320106  0.41141787  0.60902037  1
  Fe  Fe111  1  0.84910306  0.91495263  0.60870797  1
  Fe  Fe112  1  0.98170367  0.33491375  0.39442399  1
  Si  Si113  1  0.80847039  0.90816440  0.89220734  1
  Si  Si114  1  0.64159880  0.16707981  0.38587085  1
  Si  Si115  1  0.52327584  0.41347764  0.61795584  1
  Si  Si116  1  0.47097999  0.41332188  0.38338682  1
  Si  Si117  1  0.98372332  0.16647657  0.89276310  1
  Si  Si118  1  0.47155518  0.08811201  0.38464489  1
  Si  Si119  1  0.14390460  0.41797441  0.88556165  1
  Si  Si120  1  0.53108576  0.91906445  0.11022988  1
  Si  Si121  1  0.97411952  0.82958650  0.38188696  1
  Si  Si122  1  0.19031873  0.58213303  0.60824054  1
  Si  Si123  1  0.85505018  0.08276943  0.11709935  1
  Si  Si124  1  0.80966843  0.58270906  0.38606731  1
  Si  Si125  1  0.18735591  0.40387985  0.10941966  1
  Si  Si126  1  0.69510881  0.83137166  0.11453039  1
  Si  Si127  1  0.52908377  0.08247844  0.61653568  1
  Si  Si128  1  0.81268035  0.91752915  0.38808090  1
  Si  Si129  1  0.97485278  0.66574765  0.38418452  1
  Si  Si130  1  0.63597578  0.16555985  0.89380907  1
  Si  Si131  1  0.63770207  0.83025341  0.88888203  1
  Si  Si132  1  0.36416522  0.16300161  0.61906105  1
  Si  Si133  1  0.46845622  0.92194236  0.38617881  1
  Si  Si134  1  0.31012876  0.66907345  0.38135130  1
  Si  Si135  1  0.69841987  0.66619898  0.11768745  1
  Si  Si136  1  0.36578818  0.32660134  0.61473605  1
  Si  Si137  1  0.47238728  0.08092923  0.88811018  1
  Si  Si138  1  0.47464850  0.91573009  0.88575674  1
  Si  Si139  1  0.97599417  0.83244271  0.88511491  1
  Si  Si140  1  0.30713200  0.33089491  0.88626931  1
  Si  Si141  1  0.30653290  0.83326316  0.38122108  1
  Si  Si142  1  0.14536629  0.08010870  0.88725446  1
  Si  Si143  1  0.14218705  0.58360084  0.88264441  1
  Si  Si144  1  0.36040283  0.33158485  0.11235604  1
  Si  Si145  1  0.19356076  0.92166994  0.61030921  1
  Si  Si146  1  0.63544313  0.33262092  0.89212240  1
  Si  Si147  1  0.19648519  0.08631154  0.61257715  1
  Si  Si148  1  0.30702390  0.66663183  0.88243478  1
  Si  Si149  1  0.80944985  0.08439962  0.38691608  1
  Si  Si150  1  0.47174009  0.58149665  0.88535027  1
  Si  Si151  1  0.14245778  0.07643952  0.38535413  1
  Si  Si152  1  0.30344941  0.16766713  0.38505939  1
  Si  Si153  1  0.14331997  0.59039305  0.38342258  1
  Si  Si154  1  0.18574427  0.92760943  0.10735124  1
  Si  Si155  1  0.85874893  0.41857667  0.11699611  1
  Si  Si156  1  0.02294410  0.84098155  0.10755183  1
  Si  Si157  1  0.86168394  0.58256788  0.11358980  1
  Si  Si158  1  0.86310596  0.58270909  0.61480237  1
  Si  Si159  1  0.63991741  0.66051741  0.38753374  1
  Si  Si160  1  0.68923712  0.33925841  0.61752022  1
  Si  Si161  1  0.63896344  0.33399112  0.38535907  1
  Si  Si162  1  0.97972697  0.16292685  0.38933880  1
  Si  Si163  1  0.02057757  0.33048550  0.11618411  1
  Si  Si164  1  0.46987289  0.41718395  0.88703181  1
  Si  Si165  1  0.69249453  0.16969889  0.11682890  1
  Si  Si166  1  0.14333345  0.91120192  0.38148606  1
  Si  Si167  1  0.14674211  0.42479069  0.38715123  1
  Si  Si168  1  0.30701252  0.16559331  0.88572547  1
  Si  Si169  1  0.30605673  0.83087058  0.88056864  1
  Si  Si170  1  0.01692015  0.33097099  0.61437321  1
  Si  Si171  1  0.80607845  0.41724776  0.38951388  1
  Si  Si172  1  0.14226656  0.91497863  0.88455679  1
  Si  Si173  1  0.02612941  0.66019275  0.61198995  1
  Si  Si174  1  0.53530692  0.58270242  0.11158937  1
  Si  Si175  1  0.80866123  0.58938923  0.89169098  1
  Si  Si176  1  0.97510723  0.66611396  0.88344247  1
  Si  Si177  1  0.63717763  0.66634441  0.88751774  1
  Si  Si178  1  0.35964119  0.16588544  0.11371046  1
  Si  Si179  1  0.47187969  0.57862979  0.38265563  1
  Si  Si180  1  0.01808504  0.16810418  0.11751241  1
  Si  Si181  1  0.52494214  0.91831822  0.61821116  1
  Si  Si182  1  0.85736741  0.41888588  0.61895443  1
  Si  Si183  1  0.98285219  0.33206966  0.89134786  1
  Si  Si184  1  0.85384267  0.91867371  0.11557232  1
  Si  Si185  1  0.35877271  0.83859051  0.61187699  1
  Si  Si186  1  0.52779030  0.08462960  0.11478642  1
  Si  Si187  1  0.18693884  0.09290294  0.11403769  1
  Si  Si188  1  0.30555416  0.33360611  0.38433801  1
  Si  Si189  1  0.69450156  0.33430746  0.11674302  1
  Si  Si190  1  0.52720991  0.41632747  0.11422049  1
  Si  Si191  1  0.68241585  0.82936088  0.61586037  1
  O  O192  1  0.26693674  0.13034983  0.08483840  1
  O  O193  1  0.28684704  0.10923026  0.58871760  1
  O  O194  1  0.28932469  0.58861853  0.07139292  1
  O  O195  1  0.26780659  0.61065718  0.57463972  1
  O  O196  1  0.60102482  0.13209891  0.08723850  1
  O  O197  1  0.60274546  0.10955135  0.57822769  1
  O  O198  1  0.62204117  0.61036262  0.08653026  1
  O  O199  1  0.62035934  0.59146864  0.57271218  1
  O  O200  1  0.93754557  0.11541543  0.08911528  1
  O  O201  1  0.95629608  0.08986968  0.57389963  1
  O  O202  1  0.93308863  0.61136657  0.07445357  1
  O  O203  1  0.95295873  0.59763868  0.58854751  1
  O  O204  1  0.10585685  0.34796239  0.08547580  1
  O  O205  1  0.09802497  0.35331744  0.58140136  1
  O  O206  1  0.09676050  0.88713533  0.07692059  1
  O  O207  1  0.12363607  0.86849402  0.56914174  1
  O  O208  1  0.43854321  0.37290448  0.08481524  1
  O  O209  1  0.45832152  0.34496623  0.59355815  1
  O  O210  1  0.44639440  0.88263935  0.07167452  1
  O  O211  1  0.44357856  0.86996045  0.58430824  1
  O  O212  1  0.77389658  0.36961187  0.08822619  1
  O  O213  1  0.77425645  0.36929836  0.59007759  1
  O  O214  1  0.77307754  0.86759001  0.08259785  1
  O  O215  1  0.76286598  0.84710846  0.58142163  1
  O  O216  1  0.26906956  0.36562045  0.08004064  1
  O  O217  1  0.29120287  0.37784808  0.57750341  1
  O  O218  1  0.26202569  0.90109537  0.07213883  1
  O  O219  1  0.28715528  0.90227450  0.59106211  1
  O  O220  1  0.60504373  0.37497480  0.08652975  1
  O  O221  1  0.61365177  0.39847674  0.59232210  1
  O  O222  1  0.61236552  0.88081728  0.08425950  1
  O  O223  1  0.60792739  0.89104547  0.58955462  1
  O  O224  1  0.94002542  0.38361480  0.08852861  1
  O  O225  1  0.93959852  0.39040921  0.58952495  1
  O  O226  1  0.93747926  0.89372130  0.08687210  1
  O  O227  1  0.93673335  0.88974269  0.56550280  1
  O  O228  1  0.10286869  0.14303150  0.08799385  1
  O  O229  1  0.12832426  0.14427314  0.57689167  1
  O  O230  1  0.10984800  0.63684154  0.06141918  1
  O  O231  1  0.10954601  0.63576101  0.58112994  1
  O  O232  1  0.43489446  0.12144632  0.08595367  1
  O  O233  1  0.44560002  0.13320723  0.58835581  1
  O  O234  1  0.46152378  0.63253125  0.07390487  1
  O  O235  1  0.44506791  0.64386854  0.56473253  1
  O  O236  1  0.77050813  0.13141935  0.08829453  1
  O  O237  1  0.78695793  0.15728823  0.57409230  1
  O  O238  1  0.77768839  0.63330720  0.08698085  1
  O  O239  1  0.79468304  0.63990936  0.57969740  1
  O  O240  1  0.06021847  0.10740796  0.41322344  1
  O  O241  1  0.07144740  0.11989575  0.92035674  1
  O  O242  1  0.06493982  0.62440533  0.41641152  1
  O  O243  1  0.06185786  0.61898762  0.91116325  1
  O  O244  1  0.39651668  0.13206199  0.41352792  1
  O  O245  1  0.39576698  0.12384444  0.91685681  1
  O  O246  1  0.39516794  0.62080300  0.41012281  1
  O  O247  1  0.39565933  0.62439977  0.91446547  1
  O  O248  1  0.72783613  0.12206486  0.41346236  1
  O  O249  1  0.72323855  0.13029423  0.93116865  1
  O  O250  1  0.72995726  0.61858946  0.41491008  1
  O  O251  1  0.73035560  0.63184615  0.92001599  1
  O  O252  1  0.23598026  0.37992134  0.41459945  1
  O  O253  1  0.23115827  0.37269549  0.91565179  1
  O  O254  1  0.22650287  0.86332349  0.41346834  1
  O  O255  1  0.23097958  0.87147193  0.91359547  1
  O  O256  1  0.55926380  0.37046047  0.41301231  1
  O  O257  1  0.55634327  0.37439284  0.91898796  1
  O  O258  1  0.55169088  0.88198103  0.42329725  1
  O  O259  1  0.56466073  0.87629459  0.91993553  1
  O  O260  1  0.88467879  0.36965847  0.42465372  1
  O  O261  1  0.90883829  0.36193337  0.92813525  1
  O  O262  1  0.90231681  0.87518711  0.41351213  1
  O  O263  1  0.89754719  0.86318850  0.92012671  1
  O  O264  1  0.07551479  0.39283945  0.42604280  1
  O  O265  1  0.06958242  0.37973430  0.91846774  1
  O  O266  1  0.06307268  0.87464890  0.40811466  1
  O  O267  1  0.06393653  0.87762936  0.91542250  1
  O  O268  1  0.39877834  0.36758351  0.41298804  1
  O  O269  1  0.39449828  0.37439906  0.91764331  1
  O  O270  1  0.38523245  0.88711800  0.41137378  1
  O  O271  1  0.39542198  0.87377551  0.91152210  1
  O  O272  1  0.72117664  0.38256685  0.41475972  1
  O  O273  1  0.72154224  0.36940293  0.92962815  1
  O  O274  1  0.73998934  0.88315770  0.42318518  1
  O  O275  1  0.73085335  0.86426159  0.92040679  1
  O  O276  1  0.22940009  0.12314956  0.41393165  1
  O  O277  1  0.23329754  0.12412709  0.91839411  1
  O  O278  1  0.22990876  0.63724195  0.41238376  1
  O  O279  1  0.22914336  0.62792221  0.91257939  1
  O  O280  1  0.56084069  0.13032314  0.41301376  1
  O  O281  1  0.55890380  0.12307156  0.92325634  1
  O  O282  1  0.56431600  0.61247487  0.41259925  1
  O  O283  1  0.56325132  0.61946744  0.91655716  1
  O  O284  1  0.89409997  0.13169529  0.41408262  1
  O  O285  1  0.91173393  0.13454854  0.93097654  1
  O  O286  1  0.89820894  0.62485723  0.41579555  1
  O  O287  1  0.89648911  0.63611545  0.91814423  1
  O  O288  1  0.16754036  0.01333614  0.08301524  1
  O  O289  1  0.17554890  0.00506183  0.58109825  1
  O  O290  1  0.16165485  0.47806858  0.07234211  1
  O  O291  1  0.16194152  0.50309805  0.57748770  1
  O  O292  1  0.53200230  0.00450903  0.08428256  1
  O  O293  1  0.50279601  0.00026172  0.58964486  1
  O  O294  1  0.52084004  0.49758527  0.08456978  1
  O  O295  1  0.48022731  0.48430517  0.58258783  1
  O  O296  1  0.83394986  0.00211973  0.08687510  1
  O  O297  1  0.80120883  0.00107615  0.57627170  1
  O  O298  1  0.83731493  0.49851475  0.08599646  1
  O  O299  1  0.83549594  0.49974773  0.58886891  1
  O  O300  1  -0.00861690  0.24886468  0.08883028  1
  O  O301  1  -0.01861169  0.25408216  0.58531335  1
  O  O302  1  0.00225271  0.76726523  0.06628180  1
  O  O303  1  -0.00409342  0.73683010  0.57957843  1
  O  O304  1  0.36134316  0.24800714  0.08405860  1
  O  O305  1  0.34393602  0.24383969  0.58639801  1
  O  O306  1  0.33047025  0.75063743  0.06402669  1
  O  O307  1  0.32679550  0.76693829  0.57061617  1
  O  O308  1  0.68396599  0.25186732  0.08758316  1
  O  O309  1  0.65867565  0.26521929  0.58025091  1
  O  O310  1  0.68064243  0.74842994  0.08622628  1
  O  O311  1  0.64304919  0.75290565  0.58743050  1
  O  O312  1  0.15818870  -0.00605182  0.41282286  1
  O  O313  1  0.15490589  -0.00281519  0.91710447  1
  O  O314  1  0.16465892  0.50843109  0.41252420  1
  O  O315  1  0.15639532  0.50105439  0.91320936  1
  O  O316  1  0.47336019  0.00686426  0.41403537  1
  O  O317  1  0.47640657  -0.00196958  0.91857013  1
  O  O318  1  0.47377859  0.49534761  0.41190497  1
  O  O319  1  0.47493073  0.49903053  0.91822532  1
  O  O320  1  0.82548036  0.00265156  0.41384025  1
  O  O321  1  0.81793130  -0.01471135  0.93033941  1
  O  O322  1  0.81704511  0.50017480  0.41767460  1
  O  O323  1  0.81947592  0.51224797  0.92940872  1
  O  O324  1  0.30491254  0.25038668  0.41299896  1
  O  O325  1  0.31544984  0.24871684  0.91845110  1
  O  O326  1  0.32878946  0.75160886  0.40997423  1
  O  O327  1  0.31685572  0.74893740  0.91243282  1
  O  O328  1  0.65112074  0.25059658  0.41328581  1
  O  O329  1  0.63009357  0.24953693  0.92061452  1
  O  O330  1  0.64307478  0.73802557  0.42263552  1
  O  O331  1  0.63446179  0.74817984  0.91898967  1
  O  O332  1  1.00513858  0.23926545  0.42371912  1
  O  O333  1  1.00766678  0.24972497  0.91924305  1
  O  O334  1  0.98338522  0.74836159  0.41559745  1
  O  O335  1  0.99436909  0.74879297  0.91085639  1
  O  O336  1  0.20986075  0.08976976  0.19436451  1
  O  O337  1  0.20638821  0.08502256  0.69261844  1
  O  O338  1  0.21139205  0.58425691  0.19590211  1
  O  O339  1  0.21059018  0.58166253  0.69021353  1
  O  O340  1  0.54337520  0.08575142  0.19543307  1
  O  O341  1  0.54856015  0.08523859  0.69743522  1
  O  O342  1  0.54749388  0.58101007  0.19274791  1
  O  O343  1  0.54506179  0.57923274  0.69945442  1
  O  O344  1  0.87371525  0.08522019  0.19735095  1
  O  O345  1  0.87905077  0.08513367  0.70284261  1
  O  O346  1  0.88001324  0.57975032  0.19336058  1
  O  O347  1  0.87650473  0.58174996  0.69605036  1
  O  O348  1  0.04237297  0.33238977  0.19645102  1
  O  O349  1  0.03984604  0.33320300  0.69633562  1
  O  O350  1  0.05028762  0.83213272  0.18559609  1
  O  O351  1  0.04784032  0.84259626  0.69423522  1
  O  O352  1  0.37747506  0.33110029  0.19292789  1
  O  O353  1  0.37740095  0.33027889  0.69599399  1
  O  O354  1  0.38008192  0.83615063  0.19741870  1
  O  O355  1  0.38174383  0.82822069  0.69095965  1
  O  O356  1  0.71026438  0.33387030  0.19734397  1
  O  O357  1  0.70862453  0.33408151  0.69863471  1
  O  O358  1  0.71030566  0.83403376  0.19442528  1
  O  O359  1  0.70451691  0.83362459  0.69746485  1
  O  O360  1  0.21254616  0.40545785  0.18931194  1
  O  O361  1  0.21222988  0.41418714  0.70104171  1
  O  O362  1  0.20852935  0.92279407  0.18838375  1
  O  O363  1  0.19929787  0.92024711  0.68963228  1
  O  O364  1  0.54452718  0.41437955  0.19478118  1
  O  O365  1  0.54256305  0.41421888  0.69949054  1
  O  O366  1  0.54371980  0.92015419  0.19124833  1
  O  O367  1  0.54287540  0.91699064  0.69852885  1
  O  O368  1  0.87500626  0.41724478  0.19722388  1
  O  O369  1  0.87656264  0.41697892  0.69951870  1
  O  O370  1  0.86311350  0.91946153  0.19446511  1
  O  O371  1  0.87477021  0.91800920  0.70178202  1
  O  O372  1  0.04011911  0.16873747  0.19798139  1
  O  O373  1  0.04595994  0.16661018  0.70380880  1
  O  O374  1  0.04575438  0.66728162  0.19449277  1
  O  O375  1  0.04866650  0.65708248  0.69206325  1
  O  O376  1  0.37652376  0.16747052  0.19431828  1
  O  O377  1  0.38212344  0.16945946  0.69847386  1
  O  O378  1  0.38150438  0.66525345  0.19776899  1
  O  O379  1  0.37656361  0.66752186  0.69765294  1
  O  O380  1  0.70931702  0.16813946  0.19732417  1
  O  O381  1  0.71144279  0.16913301  0.70572907  1
  O  O382  1  0.70827320  0.66762190  0.19698520  1
  O  O383  1  0.71080831  0.66360367  0.70340624  1
  O  O384  1  0.12586714  0.08264765  0.30487294  1
  O  O385  1  0.12552109  0.08314101  0.80789325  1
  O  O386  1  0.12214937  0.58936125  0.30436081  1
  O  O387  1  0.12508888  0.58197833  0.80264722  1
  O  O388  1  0.45486072  0.08736052  0.30391615  1
  O  O389  1  0.46209300  0.08293301  0.80936101  1
  O  O390  1  0.45707652  0.57912561  0.30228681  1
  O  O391  1  0.45269323  0.57650867  0.80675145  1
  O  O392  1  0.78820056  0.08597910  0.30590933  1
  O  O393  1  0.79035676  0.08162235  0.80705834  1
  O  O394  1  0.78867144  0.57879453  0.30649261  1
  O  O395  1  0.79048909  0.58350221  0.81149100  1
  O  O396  1  0.28989263  0.33249363  0.30367565  1
  O  O397  1  0.29165144  0.33095255  0.80666122  1
  O  O398  1  0.28967696  0.83535192  0.30098420  1
  O  O399  1  0.28561365  0.82926214  0.80198382  1
  O  O400  1  0.62170021  0.33286803  0.30447857  1
  O  O401  1  0.62198248  0.33336587  0.81145522  1
  O  O402  1  0.61920400  0.83482875  0.29848177  1
  O  O403  1  0.62206818  0.83258959  0.80917139  1
  O  O404  1  0.95677808  0.33484441  0.30215444  1
  O  O405  1  0.96081005  0.33394048  0.81063948  1
  O  O406  1  0.95137190  0.82673456  0.30351460  1
  O  O407  1  0.95254473  0.83945357  0.80683415  1
  O  O408  1  0.12440463  0.41504530  0.30740208  1
  O  O409  1  0.12411590  0.41584348  0.80572477  1
  O  O410  1  0.13433599  0.91715853  0.30244661  1
  O  O411  1  0.12419235  0.91732097  0.80529152  1
  O  O412  1  0.45545863  0.41331807  0.30278586  1
  O  O413  1  0.45328320  0.41499765  0.80709907  1
  O  O414  1  0.45530724  0.92211595  0.30517824  1
  O  O415  1  0.46634507  0.91854338  0.80746452  1
  O  O416  1  0.78903925  0.41599473  0.30829440  1
  O  O417  1  0.78937866  0.41692760  0.80495360  1
  O  O418  1  0.78940588  0.91809274  0.30699188  1
  O  O419  1  0.78765553  0.91334205  0.81208731  1
  O  O420  1  0.28880461  0.16702109  0.30439552  1
  O  O421  1  0.28748651  0.17060976  0.80693023  1
  O  O422  1  0.29214378  0.66842864  0.30164287  1
  O  O423  1  0.28942282  0.66412927  0.80283276  1
  O  O424  1  0.62207417  0.16784640  0.30492024  1
  O  O425  1  0.62161444  0.16539027  0.81341573  1
  O  O426  1  0.62245634  0.66344351  0.30624804  1
  O  O427  1  0.62399035  0.66670971  0.80880716  1
  O  O428  1  0.95899261  0.16690070  0.30780350  1
  O  O429  1  0.95996903  0.16701302  0.81268546  1
  O  O430  1  0.95656826  0.66283174  0.30545060  1
  O  O431  1  0.95180655  0.65929972  0.80467475  1
  F  F432  1  0.04799482  0.01363211  0.19726964  1
  F  F433  1  0.04558827  0.00283511  0.70592600  1
  F  F434  1  0.04049930  0.49871399  0.20288322  1
  F  F435  1  0.04454300  0.49689866  0.70395698  1
  F  F436  1  0.37955168  0.00501090  0.19961363  1
  F  F437  1  0.38896998  0.01204555  0.69696316  1
  F  F438  1  0.38226281  0.49427275  0.19768476  1
  F  F439  1  0.37804440  0.49650342  0.70239486  1
  F  F440  1  0.71020287  0.00255533  0.20415761  1
  F  F441  1  0.71066848  -0.00219888  0.70759582  1
  F  F442  1  0.71294603  0.49805558  0.20308523  1
  F  F443  1  0.71173693  0.50032775  0.70773740  1
  F  F444  1  0.21105908  0.24843456  0.20215915  1
  F  F445  1  0.21283711  0.25000048  0.70275731  1
  F  F446  1  0.21560568  0.75241069  0.19649992  1
  F  F447  1  0.21355815  0.74968307  0.69746817  1
  F  F448  1  0.54515071  0.24989871  0.20122550  1
  F  F449  1  0.54711888  0.24894942  0.70994998  1
  F  F450  1  0.54707066  0.74785860  0.20078268  1
  F  F451  1  0.54556741  0.75320187  0.70541275  1
  F  F452  1  0.87592085  0.24897135  0.20423183  1
  F  F453  1  0.87848689  0.25169828  0.71136826  1
  F  F454  1  0.86939841  0.75349250  0.19364950  1
  F  F455  1  0.86327247  0.74968260  0.70020208  1
  F  F456  1  0.28795375  0.00257147  0.29378343  1
  F  F457  1  0.28145991  0.00836677  0.80487132  1
  F  F458  1  0.29653859  0.49838182  0.29679846  1
  F  F459  1  0.28847200  0.50100631  0.79811334  1
  F  F460  1  0.61890338  0.00260452  0.29819789  1
  F  F461  1  0.62166867  0.00039791  0.80180399  1
  F  F462  1  0.61981095  0.49804222  0.29739885  1
  F  F463  1  0.62016863  0.49751153  0.80395317  1
  F  F464  1  0.95096625  0.00944671  0.30218714  1
  F  F465  1  0.95867279  0.00055495  0.80382715  1
  F  F466  1  0.95485068  0.50009278  0.30122700  1
  F  F467  1  0.95684595  0.49955275  0.80032833  1
  F  F468  1  0.12378639  0.25023917  0.29919003  1
  F  F469  1  0.12531600  0.25288327  0.80115603  1
  F  F470  1  0.13413488  0.75189397  0.29801008  1
  F  F471  1  0.13356112  0.74819274  0.79824906  1
  F  F472  1  0.45373033  0.24976203  0.29705151  1
  F  F473  1  0.45408702  0.25024001  0.80310245  1
  F  F474  1  0.45759016  0.75008873  0.29831488  1
  F  F475  1  0.44988890  0.75915838  0.80601109  1
  F  F476  1  0.78657984  0.25049417  0.30042269  1
  F  F477  1  0.78919475  0.25309424  0.80712738  1
  F  F478  1  0.78426173  0.75516741  0.30201676  1
  F  F479  1  0.78689427  0.75161924  0.80223052  1
