# generated using pymatgen
data_K24Na3Li5Mg64Fe17Si79(O5F)48
_symmetry_space_group_name_H-M   'P 1'
_cell_length_a   16.10755842
_cell_length_b   18.62359646
_cell_length_c   20.59531384
_cell_angle_alpha   90.00015402
_cell_angle_beta   100.05089844
_cell_angle_gamma   90.00220575
_symmetry_Int_Tables_number   1
_chemical_formula_structural   K24Na3Li5Mg64Fe17Si79(O5F)48
_chemical_formula_sum   'K24 Na3 Li5 Mg64 Fe17 Si79 O240 F48'
_cell_volume   6083.37987201
_cell_formula_units_Z   1
loop_
 _symmetry_equiv_pos_site_id
 _symmetry_equiv_pos_as_xyz
  1  'x, y, z'
loop_
 _atom_site_type_symbol
 _atom_site_label
 _atom_site_symmetry_multiplicity
 _atom_site_fract_x
 _atom_site_fract_y
 _atom_site_fract_z
 _atom_site_occupancy
  K  K0  1  -0.00002592  -0.00226314  -0.00245970  1
  K  K1  1  0.00084958  0.00577725  0.50861635  1
  K  K2  1  -0.01040596  0.47986046  -0.00514660  1
  K  K3  1  -0.00665087  0.47621637  0.50454125  1
  K  K4  1  0.32829544  0.00831061  -0.00870423  1
  K  K5  1  0.34354927  0.01401239  0.51013126  1
  K  K6  1  0.32934093  0.49054564  -0.00083599  1
  K  K7  1  0.33361985  0.49126111  0.50371658  1
  K  K8  1  0.66289113  0.00277678  -0.00486072  1
  K  K9  1  0.66521404  0.01070220  0.50405326  1
  K  K10  1  0.66996063  0.49344270  0.00562055  1
  K  K11  1  0.68233369  0.49622685  0.50138034  1
  K  K12  1  0.16234663  0.25368021  -0.00669135  1
  K  K13  1  0.15651397  0.24319721  0.50974983  1
  K  K14  1  0.17058954  0.76508794  0.00004208  1
  K  K15  1  0.16652135  0.75983871  0.50275535  1
  K  K16  1  0.49853009  0.23922814  -0.00858596  1
  K  K17  1  0.51690189  0.23975464  0.51010146  1
  K  K18  1  0.50881937  0.75796731  -0.00011248  1
  K  K19  1  0.50713478  0.76669006  0.49397195  1
  K  K20  1  0.83557741  0.25114724  -0.00167205  1
  K  K21  1  0.84074482  0.24846108  0.50901403  1
  K  K22  1  0.82998787  0.75890474  -0.00699173  1
  K  K23  1  0.81915424  0.75701987  0.49604781  1
  Na  Na24  1  0.16749679  0.00381026  0.75280594  1
  Na  Na25  1  0.16094578  0.32809350  0.25625325  1
  Na  Na26  1  0.33320071  0.92365991  0.75137473  1
  Li  Li27  1  0.83904411  0.49350138  0.75421494  1
  Li  Li28  1  0.00047930  0.24841993  0.24970835  1
  Li  Li29  1  0.50334983  0.83999498  0.24935863  1
  Li  Li30  1  0.00303581  0.08559265  0.74607530  1
  Li  Li31  1  0.16700144  0.16253448  0.75195057  1
  Mg  Mg32  1  0.66949550  0.74956872  0.75095696  1
  Mg  Mg33  1  0.49790828  0.49921560  0.25343290  1
  Mg  Mg34  1  0.33463973  0.75096313  0.74739621  1
  Mg  Mg35  1  0.00521724  0.24559360  0.75190272  1
  Mg  Mg36  1  0.83449765  0.00149974  0.24835871  1
  Mg  Mg37  1  0.83057503  0.49708580  0.25352467  1
  Mg  Mg38  1  0.33496422  0.75209839  0.25024953  1
  Mg  Mg39  1  0.33014382  0.24942711  0.74736010  1
  Mg  Mg40  1  0.49893971  0.00394866  0.74811646  1
  Mg  Mg41  1  0.00233208  0.75082603  0.74896535  1
  Mg  Mg42  1  0.16284180  0.49880867  0.25296781  1
  Mg  Mg43  1  0.33098028  0.25084258  0.25018907  1
  Mg  Mg44  1  0.50258452  0.49867103  0.74956496  1
  Mg  Mg45  1  0.50104157  -0.00154242  0.24941491  1
  Mg  Mg46  1  0.66772528  0.24809494  0.24756486  1
  Mg  Mg47  1  0.66821590  0.25054311  0.74861356  1
  Mg  Mg48  1  -0.00101627  0.75137150  0.25012157  1
  Mg  Mg49  1  0.16855737  0.00067766  0.24478872  1
  Mg  Mg50  1  0.66179253  0.75221780  0.25230071  1
  Mg  Mg51  1  0.83541441  0.00008158  0.75015991  1
  Mg  Mg52  1  0.16615376  0.49834512  0.74780439  1
  Mg  Mg53  1  -0.00166259  0.41342100  0.75020593  1
  Mg  Mg54  1  0.67373227  0.58074895  0.75126557  1
  Mg  Mg55  1  0.83589839  0.16568087  0.74800847  1
  Mg  Mg56  1  0.66737936  0.41340993  0.25323149  1
  Mg  Mg57  1  0.33325973  0.08648890  0.75128818  1
  Mg  Mg58  1  0.83075207  0.66587645  0.25393340  1
  Mg  Mg59  1  0.16296358  0.16809267  0.24771648  1
  Mg  Mg60  1  0.83638199  0.33533004  0.74806593  1
  Mg  Mg61  1  0.49957027  0.16527354  0.24724096  1
  Mg  Mg62  1  0.67268039  0.41574177  0.74926729  1
  Mg  Mg63  1  0.16843687  0.66573689  0.74779979  1
  Mg  Mg64  1  -0.00313713  0.41257616  0.25281084  1
  Mg  Mg65  1  0.00395552  0.91921100  0.75067066  1
  Mg  Mg66  1  0.33494013  0.91610050  0.24657141  1
  Mg  Mg67  1  0.33056768  0.58376699  0.25366140  1
  Mg  Mg68  1  0.16948592  0.83496639  0.74845267  1
  Mg  Mg69  1  0.33228498  0.08583728  0.24663386  1
  Mg  Mg70  1  0.50305176  0.66549953  0.74879027  1
  Mg  Mg71  1  0.32880640  0.41581402  0.25314393  1
  Mg  Mg72  1  0.00001065  0.58200400  0.74804380  1
  Mg  Mg73  1  -0.00309001  0.58337934  0.25325318  1
  Mg  Mg74  1  -0.00054697  0.91683940  0.24651514  1
  Mg  Mg75  1  0.16760887  0.83579701  0.24681191  1
  Mg  Mg76  1  0.50104569  0.16545884  0.74820576  1
  Mg  Mg77  1  0.16470806  0.66628535  0.25273723  1
  Mg  Mg78  1  0.83654983  0.83439680  0.75235805  1
  Mg  Mg79  1  0.66176812  0.91499604  0.25079680  1
  Mg  Mg80  1  0.50069485  0.83506456  0.74857233  1
  Mg  Mg81  1  0.49840920  0.66844135  0.25569655  1
  Mg  Mg82  1  -0.00101917  0.08639491  0.24538109  1
  Mg  Mg83  1  0.66501800  0.58383613  0.25670217  1
  Mg  Mg84  1  0.83015136  0.83528587  0.25057296  1
  Mg  Mg85  1  0.33510230  0.58361752  0.74785217  1
  Mg  Mg86  1  0.50292650  0.33339754  0.74889830  1
  Mg  Mg87  1  0.83506396  0.16614881  0.24457577  1
  Mg  Mg88  1  0.83695964  0.66393056  0.75085252  1
  Mg  Mg89  1  0.66785068  0.08616367  0.74876908  1
  Mg  Mg90  1  0.49874094  0.33421580  0.25202013  1
  Mg  Mg91  1  0.33359017  0.41561752  0.74858871  1
  Mg  Mg92  1  0.83224891  0.33231504  0.25210181  1
  Mg  Mg93  1  0.66829546  0.91677615  0.74899121  1
  Mg  Mg94  1  0.16591455  0.33092942  0.74934785  1
  Mg  Mg95  1  0.66449857  0.08275031  0.24570673  1
  Fe  Fe96  1  0.52417035  0.08335073  0.60660633  1
  Fe  Fe97  1  0.19420387  0.92047179  0.10754290  1
  Fe  Fe98  1  0.97671134  0.32913499  0.89079732  1
  Fe  Fe99  1  0.68468210  0.33164092  0.11101642  1
  Fe  Fe100  1  0.63900812  0.33446550  0.88793749  1
  Fe  Fe101  1  0.81201096  0.91661864  0.88917606  1
  Fe  Fe102  1  0.69937120  0.17024433  0.60664827  1
  Fe  Fe103  1  0.80834616  0.42092222  0.88996773  1
  Fe  Fe104  1  0.02332940  0.32644398  0.60915608  1
  Fe  Fe105  1  0.30173661  0.17199761  0.88932532  1
  Fe  Fe106  1  0.52065249  0.08035985  0.10881280  1
  Fe  Fe107  1  0.64025615  0.83788549  0.39219372  1
  Fe  Fe108  1  0.81048089  0.41303460  0.39435405  1
  Fe  Fe109  1  0.86096014  0.08252679  0.10625453  1
  Fe  Fe110  1  0.47364600  0.08119742  0.88940501  1
  Fe  Fe111  1  0.52199497  0.91068497  0.10931750  1
  Fe  Fe112  1  0.13344463  0.08187577  0.89009221  1
  Si  Si113  1  0.85729162  0.91033635  0.11337917  1
  Si  Si114  1  0.30958452  0.82744462  0.88285674  1
  Si  Si115  1  0.47191899  0.58033079  0.38914891  1
  Si  Si116  1  0.69302136  0.34176461  0.60956520  1
  Si  Si117  1  0.14250577  0.91673618  0.38360483  1
  Si  Si118  1  0.19393745  0.09203691  0.11205127  1
  Si  Si119  1  0.35914290  0.33675680  0.61326246  1
  Si  Si120  1  0.51800566  0.42169794  0.11623242  1
  Si  Si121  1  0.97765534  0.16445273  0.38257069  1
  Si  Si122  1  0.63472151  0.33074046  0.38999997  1
  Si  Si123  1  0.68869854  0.66274354  0.11969984  1
  Si  Si124  1  0.96882641  0.16309138  0.88535193  1
  Si  Si125  1  0.30626436  0.83222147  0.38568477  1
  Si  Si126  1  0.51900321  0.58618666  0.12051330  1
  Si  Si127  1  0.63924716  0.83012476  0.88563035  1
  Si  Si128  1  0.30466437  0.16983445  0.38489931  1
  Si  Si129  1  0.30826327  0.34135360  0.88451408  1
  Si  Si130  1  0.69051551  0.16342790  0.11052608  1
  Si  Si131  1  0.35409501  0.17168446  0.60862336  1
  Si  Si132  1  0.81262739  0.92107188  0.38804651  1
  Si  Si133  1  0.35950981  0.17491550  0.11440203  1
  Si  Si134  1  0.47026630  0.41893221  0.88433917  1
  Si  Si135  1  0.46899264  0.08680760  0.38428973  1
  Si  Si136  1  0.86355468  0.58820376  0.61380549  1
  Si  Si137  1  0.47780579  0.58275629  0.88368685  1
  Si  Si138  1  0.85914168  0.42266569  0.61270960  1
  Si  Si139  1  0.35900147  0.82862477  0.61191355  1
  Si  Si140  1  0.02322103  0.33476916  0.11879368  1
  Si  Si141  1  0.19737259  0.08146888  0.61321559  1
  Si  Si142  1  0.64420296  0.66497693  0.88459304  1
  Si  Si143  1  0.52627406  0.58342508  0.61358854  1
  Si  Si144  1  0.98231159  0.82942790  0.88664238  1
  Si  Si145  1  0.18676700  0.58166294  0.11768347  1
  Si  Si146  1  0.30678120  0.66643484  0.38812550  1
  Si  Si147  1  0.35166118  0.66399733  0.11847406  1
  Si  Si148  1  0.81452022  0.58963342  0.88724538  1
  Si  Si149  1  0.80977619  0.08732587  0.38379318  1
  Si  Si150  1  0.47713834  0.91132415  0.88364567  1
  Si  Si151  1  0.35256298  0.33861534  0.11726554  1
  Si  Si152  1  0.02865561  0.15850920  0.61267625  1
  Si  Si153  1  0.02490279  0.82992334  0.11321304  1
  Si  Si154  1  0.81034157  0.58621789  0.39128949  1
  Si  Si155  1  0.30469920  0.33449987  0.38763095  1
  Si  Si156  1  0.03050228  0.17020510  0.11194966  1
  Si  Si157  1  0.35839492  0.82612362  0.11255984  1
  Si  Si158  1  0.97702892  0.83713435  0.38495718  1
  Si  Si159  1  0.97445023  0.67124991  0.38765279  1
  Si  Si160  1  0.69522935  0.82816319  0.11404948  1
  Si  Si161  1  0.98098550  0.66702009  0.88371296  1
  Si  Si162  1  0.14646442  0.90994964  0.88601415  1
  Si  Si163  1  0.80756264  0.08491425  0.88441876  1
  Si  Si164  1  0.19329516  0.41850171  0.61141334  1
  Si  Si165  1  0.14481028  0.58441444  0.88294145  1
  Si  Si166  1  0.52449071  0.41846863  0.61268789  1
  Si  Si167  1  0.69355470  0.82915246  0.61429440  1
  Si  Si168  1  0.18764306  0.41911329  0.11859164  1
  Si  Si169  1  0.52515446  0.91051533  0.61050438  1
  Si  Si170  1  0.35954136  0.66530261  0.61197683  1
  Si  Si171  1  0.46647810  0.92264164  0.38775969  1
  Si  Si172  1  0.02914127  0.83439940  0.61215439  1
  Si  Si173  1  0.13919240  0.58513589  0.38954407  1
  Si  Si174  1  0.63961235  0.16456882  0.38374507  1
  Si  Si175  1  0.14261892  0.42097426  0.88550688  1
  Si  Si176  1  0.31170821  0.66515279  0.88359990  1
  Si  Si177  1  0.97880642  0.32926618  0.38902724  1
  Si  Si178  1  0.19463425  0.91510822  0.61183671  1
  Si  Si179  1  0.69398379  0.66403453  0.61467874  1
  Si  Si180  1  0.02833456  0.66919833  0.61193269  1
  Si  Si181  1  0.14218341  0.08135597  0.38242276  1
  Si  Si182  1  0.85981017  0.41595695  0.11523742  1
  Si  Si183  1  0.86316820  0.07654451  0.61240100  1
  Si  Si184  1  0.85581793  0.58154615  0.11862666  1
  Si  Si185  1  0.64517714  0.16702195  0.88688347  1
  Si  Si186  1  0.02116102  0.66492489  0.11744799  1
  Si  Si187  1  0.46926594  0.41421165  0.38913208  1
  Si  Si188  1  0.86082356  0.91091917  0.61413554  1
  Si  Si189  1  0.63914861  0.66419512  0.39214709  1
  Si  Si190  1  0.19286899  0.58376107  0.61236956  1
  Si  Si191  1  0.13867009  0.42041737  0.38852154  1
  O  O192  1  0.27962440  0.12178438  0.08735338  1
  O  O193  1  0.26514481  0.12838925  0.57766010  1
  O  O194  1  0.27081354  0.61064016  0.09001370  1
  O  O195  1  0.27217877  0.62087155  0.58289203  1
  O  O196  1  0.62608526  0.09791421  0.08470786  1
  O  O197  1  0.60321977  0.12427517  0.56264005  1
  O  O198  1  0.60156023  0.61707817  0.09165750  1
  O  O199  1  0.60556888  0.62085452  0.58491871  1
  O  O200  1  0.95855801  0.11590716  0.07583249  1
  O  O201  1  0.94783680  0.10484496  0.58533702  1
  O  O202  1  0.93529386  0.61869763  0.09004777  1
  O  O203  1  0.93717400  0.63181532  0.58159307  1
  O  O204  1  0.10610941  0.36911191  0.09071550  1
  O  O205  1  0.11198374  0.37544623  0.57500118  1
  O  O206  1  0.10207143  0.85666406  0.07974852  1
  O  O207  1  0.10236853  0.87594431  0.57842345  1
  O  O208  1  0.43063938  0.37611765  0.08806423  1
  O  O209  1  0.43749855  0.37428213  0.58233166  1
  O  O210  1  0.44537655  0.83358356  0.08450267  1
  O  O211  1  0.43920684  0.86131488  0.58190326  1
  O  O212  1  0.78045174  0.36936815  0.08087666  1
  O  O213  1  0.76149134  0.39659244  0.58419619  1
  O  O214  1  0.78507708  0.84803555  0.08997816  1
  O  O215  1  0.77258333  0.86599399  0.58508183  1
  O  O216  1  0.26961946  0.38908041  0.08881414  1
  O  O217  1  0.27798713  0.38839887  0.58409247  1
  O  O218  1  0.28541914  0.87967296  0.07522799  1
  O  O219  1  0.27025522  0.87095766  0.58101232  1
  O  O220  1  0.59458168  0.39705028  0.08161391  1
  O  O221  1  0.60086579  0.38282472  0.58139546  1
  O  O222  1  0.62089014  0.87770704  0.07659662  1
  O  O223  1  0.60407724  0.86783583  0.58326800  1
  O  O224  1  0.94450358  0.38817063  0.08761492  1
  O  O225  1  0.92314330  0.37820753  0.57542118  1
  O  O226  1  0.94071830  0.87775567  0.08638668  1
  O  O227  1  0.93655815  0.87008295  0.58214123  1
  O  O228  1  0.12056066  0.15206994  0.08691826  1
  O  O229  1  0.10495402  0.11575668  0.58212238  1
  O  O230  1  0.10278922  0.63068915  0.08943373  1
  O  O231  1  0.10581413  0.62845245  0.58292893  1
  O  O232  1  0.44171450  0.15586738  0.08408602  1
  O  O233  1  0.42471839  0.13640658  0.57148768  1
  O  O234  1  0.43597325  0.63559010  0.09060495  1
  O  O235  1  0.43874313  0.62780011  0.58324709  1
  O  O236  1  0.77745197  0.15140623  0.08109500  1
  O  O237  1  0.78528011  0.12169249  0.57145962  1
  O  O238  1  0.76749629  0.62495171  0.09054825  1
  O  O239  1  0.77143012  0.62661811  0.58405556  1
  O  O240  1  0.06258304  0.11552232  0.41260553  1
  O  O241  1  0.02894886  0.09665202  0.91600950  1
  O  O242  1  0.06232352  0.62739890  0.41763780  1
  O  O243  1  0.06207868  0.61418145  0.91198363  1
  O  O244  1  0.39782525  0.13494758  0.41453583  1
  O  O245  1  0.38976905  0.11535511  0.93086390  1
  O  O246  1  0.39430783  0.62211767  0.41757988  1
  O  O247  1  0.39544119  0.61546011  0.91221487  1
  O  O248  1  0.73014597  0.12447618  0.41293044  1
  O  O249  1  0.71986921  0.10612721  0.91007877  1
  O  O250  1  0.72927605  0.62211180  0.41926331  1
  O  O251  1  0.73081944  0.62237034  0.91595559  1
  O  O252  1  0.23009525  0.38064000  0.41479509  1
  O  O253  1  0.22689222  0.37351211  0.91434343  1
  O  O254  1  0.22596624  0.86817359  0.41396273  1
  O  O255  1  0.22796027  0.85520632  0.91322446  1
  O  O256  1  0.55330429  0.36781707  0.41815665  1
  O  O257  1  0.53701516  0.36099591  0.91836570  1
  O  O258  1  0.55305091  0.88658404  0.42505369  1
  O  O259  1  0.55144361  0.85101304  0.91111857  1
  O  O260  1  0.90736932  0.35925321  0.42842024  1
  O  O261  1  0.89302283  0.36310144  0.93435110  1
  O  O262  1  0.90410232  0.87906725  0.41566439  1
  O  O263  1  0.90356357  0.85339994  0.92054378  1
  O  O264  1  0.06698205  0.37558377  0.41842309  1
  O  O265  1  0.06774943  0.39460834  0.92151867  1
  O  O266  1  0.06586990  0.87833030  0.41463339  1
  O  O267  1  0.06666163  0.87564705  0.91737783  1
  O  O268  1  0.39208860  0.37718855  0.42039547  1
  O  O269  1  0.37885432  0.40598790  0.90760147  1
  O  O270  1  0.38979622  0.87810468  0.41678660  1
  O  O271  1  0.39229759  0.87680920  0.90862895  1
  O  O272  1  0.71682285  0.37374157  0.42606092  1
  O  O273  1  0.70981104  0.40771772  0.92271043  1
  O  O274  1  0.74520874  0.88281064  0.42614868  1
  O  O275  1  0.71732110  0.87796791  0.92152414  1
  O  O276  1  0.23019032  0.12450670  0.41321352  1
  O  O277  1  0.21267350  0.14624088  0.93088595  1
  O  O278  1  0.22838583  0.62815421  0.41813679  1
  O  O279  1  0.22870018  0.63417903  0.91174758  1
  O  O280  1  0.56360912  0.12039204  0.41136709  1
  O  O281  1  0.56602215  0.14154341  0.92006145  1
  O  O282  1  0.56265696  0.61755371  0.41885631  1
  O  O283  1  0.56222070  0.63073970  0.91264579  1
  O  O284  1  0.89697371  0.13181566  0.41413589  1
  O  O285  1  0.87606518  0.14862265  0.90923098  1
  O  O286  1  0.89348966  0.63956428  0.41654275  1
  O  O287  1  0.89528740  0.64579491  0.91225495  1
  O  O288  1  0.16776895  0.01481335  0.07848118  1
  O  O289  1  0.19464721  -0.00257933  0.58200839  1
  O  O290  1  0.16771168  0.50083635  0.08725542  1
  O  O291  1  0.18409406  0.50283534  0.58212845  1
  O  O292  1  0.47655972  -0.00486156  0.07222510  1
  O  O293  1  0.51065751  -0.01345785  0.57391344  1
  O  O294  1  0.49446978  0.50581156  0.09142965  1
  O  O295  1  0.51140047  0.50188868  0.58302925  1
  O  O296  1  0.83111455  -0.01377848  0.07886213  1
  O  O297  1  0.85122620  -0.00833636  0.58338347  1
  O  O298  1  0.84550152  0.50077271  0.08866431  1
  O  O299  1  0.85964184  0.50712736  0.58404145  1
  O  O300  1  0.00788148  0.25419900  0.08732375  1
  O  O301  1  0.01383262  0.23374434  0.57078560  1
  O  O302  1  0.00302403  0.74573277  0.08808533  1
  O  O303  1  0.02681640  0.75133393  0.58182500  1
  O  O304  1  0.33065138  0.25797840  0.08946825  1
  O  O305  1  0.33981233  0.25680135  0.58137212  1
  O  O306  1  0.32313264  0.74248832  0.08927548  1
  O  O307  1  0.34497233  0.74598864  0.58012761  1
  O  O308  1  0.64862817  0.24019603  0.08303399  1
  O  O309  1  0.69242082  0.26617678  0.57159045  1
  O  O310  1  0.67619525  0.74319472  0.08851989  1
  O  O311  1  0.68507632  0.74610136  0.58472932  1
  O  O312  1  0.15556599  -0.00136111  0.41277199  1
  O  O313  1  0.16949488  -0.01306082  0.91835066  1
  O  O314  1  0.14770266  0.50342170  0.42055470  1
  O  O315  1  0.16832851  0.50460959  0.91276837  1
  O  O316  1  0.46269869  0.00637362  0.41550372  1
  O  O317  1  0.50199090  -0.01398338  0.92030560  1
  O  O318  1  0.47539938  0.49758461  0.41823511  1
  O  O319  1  0.49635733  0.50189839  0.91258551  1
  O  O320  1  0.82559042  0.00529952  0.41397302  1
  O  O321  1  0.83935143  0.00928079  0.92002986  1
  O  O322  1  0.82971576  0.50946860  0.42628502  1
  O  O323  1  0.84155515  0.51544600  0.92339135  1
  O  O324  1  0.30508718  0.25184986  0.41595450  1
  O  O325  1  0.33756544  0.26757887  0.92090950  1
  O  O326  1  0.31617690  0.74924522  0.41665467  1
  O  O327  1  0.33150827  0.74543350  0.91450581  1
  O  O328  1  0.63920976  0.24591249  0.41485887  1
  O  O329  1  0.67973782  0.24391599  0.91842676  1
  O  O330  1  0.64414194  0.74157957  0.42748785  1
  O  O331  1  0.65660121  0.74638208  0.91365572  1
  O  O332  1  0.99932945  0.24515339  0.41269937  1
  O  O333  1  1.00671379  0.23668461  0.92237174  1
  O  O334  1  0.98868615  0.75440816  0.41493847  1
  O  O335  1  1.00981580  0.74638818  0.91257601  1
  O  O336  1  0.21091367  0.08586506  0.19353305  1
  O  O337  1  0.22056875  0.08448330  0.69088209  1
  O  O338  1  0.20565496  0.58363429  0.19839851  1
  O  O339  1  0.21159656  0.58487059  0.69254990  1
  O  O340  1  0.54271931  0.08278562  0.20199876  1
  O  O341  1  0.54859638  0.08447926  0.69766213  1
  O  O342  1  0.53921164  0.58443796  0.20097336  1
  O  O343  1  0.54305247  0.58451603  0.69358018  1
  O  O344  1  0.87912404  0.08065884  0.19850870  1
  O  O345  1  0.87111798  0.07909349  0.69165999  1
  O  O346  1  0.87442270  0.58429334  0.19927335  1
  O  O347  1  0.88253445  0.59163908  0.69291336  1
  O  O348  1  0.03492391  0.33667073  0.19735240  1
  O  O349  1  0.04705861  0.33520148  0.69907378  1
  O  O350  1  0.04319689  0.83059228  0.19471261  1
  O  O351  1  0.04538725  0.83039402  0.69188596  1
  O  O352  1  0.37401495  0.33813475  0.19785926  1
  O  O353  1  0.37941779  0.33815874  0.69318627  1
  O  O354  1  0.36947879  0.83014066  0.19346329  1
  O  O355  1  0.38098334  0.82419193  0.69084450  1
  O  O356  1  0.70791401  0.33345320  0.20302601  1
  O  O357  1  0.70959963  0.33609107  0.68935653  1
  O  O358  1  0.71106747  0.82983545  0.19510493  1
  O  O359  1  0.71062927  0.82869005  0.69411304  1
  O  O360  1  0.21108971  0.42501849  0.19783227  1
  O  O361  1  0.21150990  0.42135690  0.69192330  1
  O  O362  1  0.21219516  0.91624136  0.19988007  1
  O  O363  1  0.20667017  0.90701756  0.68915570  1
  O  O364  1  0.53767462  0.41899986  0.19758508  1
  O  O365  1  0.54078446  0.42013867  0.69233403  1
  O  O366  1  0.54495935  0.91896063  0.20032913  1
  O  O367  1  0.54488827  0.91118696  0.69092860  1
  O  O368  1  0.87585249  0.41897310  0.19617388  1
  O  O369  1  0.88053882  0.41937868  0.69191522  1
  O  O370  1  0.87698037  0.91309701  0.19492995  1
  O  O371  1  0.87913247  0.90898084  0.69356628  1
  O  O372  1  0.04569401  0.16395653  0.19214353  1
  O  O373  1  0.04452183  0.16973469  0.69082311  1
  O  O374  1  0.04125161  0.66524891  0.19825242  1
  O  O375  1  0.04591960  0.66715383  0.69202166  1
  O  O376  1  0.37640597  0.17129899  0.19576618  1
  O  O377  1  0.37632088  0.17248264  0.68832460  1
  O  O378  1  0.37216379  0.66293895  0.19902648  1
  O  O379  1  0.37797191  0.66462089  0.69221996  1
  O  O380  1  0.70974465  0.16505836  0.19329555  1
  O  O381  1  0.71258490  0.16771639  0.69827254  1
  O  O382  1  0.70819171  0.66383047  0.20021416  1
  O  O383  1  0.71139530  0.66501750  0.69470083  1
  O  O384  1  0.12457262  0.07951109  0.30254746  1
  O  O385  1  0.11454877  0.09193521  0.80511268  1
  O  O386  1  0.12153943  0.58592729  0.30917555  1
  O  O387  1  0.12667536  0.58537153  0.80242832  1
  O  O388  1  0.45123894  0.08665189  0.30450683  1
  O  O389  1  0.45654611  0.08582228  0.79781030  1
  O  O390  1  0.45325408  0.58159425  0.30892108  1
  O  O391  1  0.45825780  0.58460442  0.80308977  1
  O  O392  1  0.78974532  0.08459299  0.30394476  1
  O  O393  1  0.79042620  0.08062524  0.80348388  1
  O  O394  1  0.79058835  0.58522552  0.31022741  1
  O  O395  1  0.79172406  0.58956936  0.80702067  1
  O  O396  1  0.29721008  0.33435778  0.30882270  1
  O  O397  1  0.28990425  0.33864581  0.80347637  1
  O  O398  1  0.28842629  0.83004089  0.30590416  1
  O  O399  1  0.28741899  0.82161268  0.80369642  1
  O  O400  1  0.61769051  0.33479725  0.30942441  1
  O  O401  1  0.62143089  0.33572593  0.79543177  1
  O  O402  1  0.62593470  0.83214384  0.30258752  1
  O  O403  1  0.62528281  0.82973496  0.80445469  1
  O  O404  1  0.95397058  0.33796681  0.30995934  1
  O  O405  1  0.95550472  0.33319589  0.79925042  1
  O  O406  1  0.95793437  0.83376557  0.30475673  1
  O  O407  1  0.96082498  0.82947104  0.80558952  1
  O  O408  1  0.11700773  0.42681365  0.30968934  1
  O  O409  1  0.12593525  0.42147049  0.80479152  1
  O  O410  1  0.12228024  0.91478220  0.30376986  1
  O  O411  1  0.12222503  0.90453538  0.80646701  1
  O  O412  1  0.45290510  0.41739953  0.30877576  1
  O  O413  1  0.45629593  0.42033107  0.80310119  1
  O  O414  1  0.44969678  0.92136293  0.30800994  1
  O  O415  1  0.46791378  0.91433502  0.80392330  1
  O  O416  1  0.78794716  0.41777247  0.30313673  1
  O  O417  1  0.78974706  0.41651523  0.79862596  1
  O  O418  1  0.79365239  0.91671908  0.30736824  1
  O  O419  1  0.78826297  0.91383176  0.79775587  1
  O  O420  1  0.28915224  0.16805361  0.30507335  1
  O  O421  1  0.29087019  0.17199536  0.79865536  1
  O  O422  1  0.28678314  0.66482488  0.30807470  1
  O  O423  1  0.29328631  0.66409506  0.80301253  1
  O  O424  1  0.62331595  0.16738829  0.30390014  1
  O  O425  1  0.62442486  0.16944702  0.80548426  1
  O  O426  1  0.62135401  0.66416149  0.31136636  1
  O  O427  1  0.62527029  0.66423311  0.80397217  1
  O  O428  1  0.95586542  0.16151375  0.30364762  1
  O  O429  1  0.95234194  0.16927795  0.80496313  1
  O  O430  1  0.95741841  0.66813243  0.30728600  1
  O  O431  1  0.96236069  0.66596956  0.80321765  1
  F  F432  1  0.04587293  -0.00225038  0.20061645  1
  F  F433  1  0.03412774  -0.00904815  0.69208223  1
  F  F434  1  0.04284839  0.50389768  0.20458200  1
  F  F435  1  0.04869335  0.50406894  0.69791641  1
  F  F436  1  0.37714667  0.00150099  0.20251496  1
  F  F437  1  0.38452758  0.00750564  0.69267333  1
  F  F438  1  0.37557254  0.50104832  0.20663349  1
  F  F439  1  0.38000084  0.50237929  0.69945210  1
  F  F440  1  0.71379787  -0.00362227  0.20550699  1
  F  F441  1  0.71191053  -0.00223483  0.69824852  1
  F  F442  1  0.70796206  0.50436845  0.20579994  1
  F  F443  1  0.70239609  0.50305211  0.69671991  1
  F  F444  1  0.21618056  0.24516125  0.20057232  1
  F  F445  1  0.21757431  0.26527766  0.69250290  1
  F  F446  1  0.21007001  0.74615437  0.20453024  1
  F  F447  1  0.21358817  0.74479544  0.69726975  1
  F  F448  1  0.54330015  0.25336852  0.20495936  1
  F  F449  1  0.54403547  0.25075753  0.69724625  1
  F  F450  1  0.54588395  0.73890234  0.20323603  1
  F  F451  1  0.54829821  0.74720668  0.70103263  1
  F  F452  1  0.87509764  0.25256041  0.20397969  1
  F  F453  1  0.87883293  0.24920443  0.69819286  1
  F  F454  1  0.87788756  0.74767276  0.20523900  1
  F  F455  1  0.88019973  0.74908681  0.70203274  1
  F  F456  1  0.28751497  0.00276421  0.29767650  1
  F  F457  1  0.30104931  0.01208293  0.80996551  1
  F  F458  1  0.28560891  0.50219336  0.30331969  1
  F  F459  1  0.28887996  0.50311414  0.79445322  1
  F  F460  1  0.62475589  0.00121611  0.30254865  1
  F  F461  1  0.62317025  -0.00277321  0.79469788  1
  F  F462  1  0.61791171  0.49985651  0.30188715  1
  F  F463  1  0.62026261  0.50332287  0.79694708  1
  F  F464  1  0.95798923  -0.00376145  0.29815694  1
  F  F465  1  0.95027036  -0.01076554  0.79958231  1
  F  F466  1  0.95295175  0.50261837  0.30085392  1
  F  F467  1  0.96359973  0.50226582  0.79684217  1
  F  F468  1  0.12189781  0.23516207  0.30760459  1
  F  F469  1  0.12447179  0.25503560  0.80005054  1
  F  F470  1  0.12017516  0.75039970  0.29962842  1
  F  F471  1  0.12370218  0.74630664  0.79435917  1
  F  F472  1  0.45316927  0.25110618  0.29891593  1
  F  F473  1  0.45370199  0.25258899  0.79263058  1
  F  F474  1  0.44749999  0.74165876  0.30521709  1
  F  F475  1  0.45627253  0.74635960  0.79555093  1
  F  F476  1  0.78742823  0.24588029  0.30005063  1
  F  F477  1  0.78913500  0.25316707  0.79397391  1
  F  F478  1  0.78850078  0.74976817  0.30020640  1
  F  F479  1  0.79038041  0.74788808  0.79726418  1
