# generated using pymatgen
data_K24Na3Li5Mg64Fe17Si79(O5F)48
_symmetry_space_group_name_H-M   'P 1'
_cell_length_a   16.09869782
_cell_length_b   18.58927281
_cell_length_c   20.55500096
_cell_angle_alpha   90.00361004
_cell_angle_beta   100.02253224
_cell_angle_gamma   90.00258957
_symmetry_Int_Tables_number   1
_chemical_formula_structural   K24Na3Li5Mg64Fe17Si79(O5F)48
_chemical_formula_sum   'K24 Na3 Li5 Mg64 Fe17 Si79 O240 F48'
_cell_volume   6057.47958004
_cell_formula_units_Z   1
loop_
 _symmetry_equiv_pos_site_id
 _symmetry_equiv_pos_as_xyz
  1  'x, y, z'
loop_
 _atom_site_type_symbol
 _atom_site_label
 _atom_site_symmetry_multiplicity
 _atom_site_fract_x
 _atom_site_fract_y
 _atom_site_fract_z
 _atom_site_occupancy
  K  K0  1  0.00588620  -0.00399565  -0.00702175  1
  K  K1  1  0.00000316  -0.00158389  0.51084932  1
  K  K2  1  -0.00497414  0.49733068  -0.01222688  1
  K  K3  1  -0.01484181  0.50737216  0.51394460  1
  K  K4  1  0.32901384  0.00063912  -0.00615640  1
  K  K5  1  0.33606336  -0.00364802  0.50536313  1
  K  K6  1  0.32525668  0.50040646  -0.00698530  1
  K  K7  1  0.33703113  0.50575460  0.51236230  1
  K  K8  1  0.65958135  0.00127479  -0.00494767  1
  K  K9  1  0.68085969  -0.00725408  0.50625017  1
  K  K10  1  0.67778414  0.50881272  -0.00800149  1
  K  K11  1  0.67993657  0.50889412  0.51020433  1
  K  K12  1  0.16410141  0.24870739  -0.01091782  1
  K  K13  1  0.16097234  0.24478487  0.51144910  1
  K  K14  1  0.17048742  0.74382420  -0.00336788  1
  K  K15  1  0.16689798  0.74865922  0.50776871  1
  K  K16  1  0.49132975  0.24496120  -0.01595089  1
  K  K17  1  0.50308889  0.24806122  0.50807203  1
  K  K18  1  0.50640661  0.75000472  -0.00411680  1
  K  K19  1  0.50080634  0.74307304  0.51049099  1
  K  K20  1  0.83578120  0.26106143  -0.01223975  1
  K  K21  1  0.84406386  0.26072721  0.51932311  1
  K  K22  1  0.82772110  0.74513574  -0.00445482  1
  K  K23  1  0.83990823  0.75012053  0.50225689  1
  Na  Na24  1  0.33194244  0.24902365  0.75589056  1
  Na  Na25  1  -0.00251675  0.57658298  0.74834310  1
  Na  Na26  1  0.83864267  0.16916341  0.74659787  1
  Li  Li27  1  0.16114778  0.50022346  0.74962981  1
  Li  Li28  1  0.84138927  0.49886404  0.75409574  1
  Li  Li29  1  0.66115962  0.91233827  0.24078010  1
  Li  Li30  1  0.82774064  0.66543106  0.25040143  1
  Li  Li31  1  0.00043746  0.08546426  0.75394001  1
  Mg  Mg32  1  0.49832777  -0.00056502  0.74992013  1
  Mg  Mg33  1  0.50213107  0.50012411  0.24929866  1
  Mg  Mg34  1  0.33634970  0.74888170  0.24411402  1
  Mg  Mg35  1  0.16336215  -0.00003136  0.75160664  1
  Mg  Mg36  1  0.66363962  0.75092510  0.74736287  1
  Mg  Mg37  1  -0.00050946  0.74929902  0.74772433  1
  Mg  Mg38  1  0.50112013  -0.00147778  0.24804858  1
  Mg  Mg39  1  0.16618559  -0.00071446  0.25385721  1
  Mg  Mg40  1  0.83805198  0.00257455  0.74785969  1
  Mg  Mg41  1  0.83399226  0.50498838  0.25017121  1
  Mg  Mg42  1  0.16693581  0.50001775  0.24857182  1
  Mg  Mg43  1  0.50021927  0.49972538  0.74700006  1
  Mg  Mg44  1  -0.00138185  0.74840826  0.25281687  1
  Mg  Mg45  1  0.33211360  0.25010598  0.25376973  1
  Mg  Mg46  1  -0.00036772  0.24956090  0.25100073  1
  Mg  Mg47  1  0.66976688  0.75278940  0.25047772  1
  Mg  Mg48  1  0.66654790  0.24938589  0.25078938  1
  Mg  Mg49  1  0.82949431  -0.00268359  0.25074274  1
  Mg  Mg50  1  0.66866935  0.25184004  0.74761811  1
  Mg  Mg51  1  0.33306510  0.74940880  0.74786601  1
  Mg  Mg52  1  0.00037721  0.24926598  0.75062083  1
  Mg  Mg53  1  0.49795748  0.16509604  0.25011155  1
  Mg  Mg54  1  0.49944177  0.16640960  0.75056696  1
  Mg  Mg55  1  0.50270877  0.66585482  0.24681884  1
  Mg  Mg56  1  0.83640617  0.33761348  0.74888821  1
  Mg  Mg57  1  0.16624282  0.66286771  0.74985758  1
  Mg  Mg58  1  0.16350749  0.16573798  0.75318663  1
  Mg  Mg59  1  0.33106601  0.58147844  0.74867823  1
  Mg  Mg60  1  0.16385027  0.16421484  0.25385843  1
  Mg  Mg61  1  -0.00175095  0.58634069  0.25165427  1
  Mg  Mg62  1  0.16303739  0.33362831  0.24880933  1
  Mg  Mg63  1  0.33240448  0.58293134  0.24592427  1
  Mg  Mg64  1  0.16726674  0.66446350  0.24796776  1
  Mg  Mg65  1  -0.00080167  0.41569255  0.24851067  1
  Mg  Mg66  1  0.49951540  0.33279121  0.74871985  1
  Mg  Mg67  1  0.50122452  0.83574257  0.24504719  1
  Mg  Mg68  1  0.33110642  0.08387992  0.25290210  1
  Mg  Mg69  1  0.33459014  0.91391162  0.24626365  1
  Mg  Mg70  1  0.33124081  0.41618551  0.75061923  1
  Mg  Mg71  1  0.50006873  0.83365633  0.74993926  1
  Mg  Mg72  1  0.66837754  0.58369005  0.74848417  1
  Mg  Mg73  1  0.66344765  0.08121751  0.24884031  1
  Mg  Mg74  1  0.16708591  0.33502154  0.75117435  1
  Mg  Mg75  1  0.83300990  0.16460741  0.25265057  1
  Mg  Mg76  1  0.66896614  0.08439458  0.74687995  1
  Mg  Mg77  1  0.50000681  0.33338342  0.25148803  1
  Mg  Mg78  1  0.50076025  0.66420523  0.74656091  1
  Mg  Mg79  1  -0.00019918  0.91887460  0.74926733  1
  Mg  Mg80  1  0.83256616  0.66552231  0.74967309  1
  Mg  Mg81  1  0.16822739  0.83308634  0.25048764  1
  Mg  Mg82  1  0.33181781  0.41598682  0.24891344  1
  Mg  Mg83  1  0.66905784  0.41645431  0.25329156  1
  Mg  Mg84  1  0.82988132  0.83153954  0.25111082  1
  Mg  Mg85  1  0.33313959  0.91343183  0.75125023  1
  Mg  Mg86  1  0.83423291  0.33539525  0.25113590  1
  Mg  Mg87  1  0.67137320  0.58718926  0.25191206  1
  Mg  Mg88  1  0.00002712  0.91485894  0.25412712  1
  Mg  Mg89  1  0.33060540  0.08414010  0.75391512  1
  Mg  Mg90  1  0.16753864  0.83290811  0.74919308  1
  Mg  Mg91  1  0.83306536  0.83613809  0.74822838  1
  Mg  Mg92  1  0.66712099  0.91663047  0.74760896  1
  Mg  Mg93  1  0.00100366  0.41928875  0.75063351  1
  Mg  Mg94  1  0.00065052  0.08256724  0.25417082  1
  Mg  Mg95  1  0.66854207  0.41837319  0.74366396  1
  Fe  Fe96  1  0.81046535  0.41586575  0.88552445  1
  Fe  Fe97  1  0.13989397  0.07935846  0.89221940  1
  Fe  Fe98  1  0.02265505  0.32822683  0.10982275  1
  Fe  Fe99  1  0.64210927  0.66813712  0.88847603  1
  Fe  Fe100  1  0.14448305  0.08193145  0.39498323  1
  Fe  Fe101  1  0.64293318  0.84065900  0.88839535  1
  Fe  Fe102  1  0.35922184  0.82862602  0.10520396  1
  Fe  Fe103  1  0.30737714  0.16917813  0.89611411  1
  Fe  Fe104  1  0.52923207  0.92170432  0.10656297  1
  Fe  Fe105  1  0.80842563  0.58423321  0.39263981  1
  Fe  Fe106  1  0.85713463  0.42366316  0.60996654  1
  Fe  Fe107  1  0.86240220  0.91721846  0.60751560  1
  Fe  Fe108  1  0.69133650  0.66930965  0.11159857  1
  Fe  Fe109  1  0.35877614  0.83464291  0.60860136  1
  Fe  Fe110  1  0.52484010  0.57925015  0.60700892  1
  Fe  Fe111  1  0.18914186  0.57834581  0.10887042  1
  Fe  Fe112  1  0.30789799  0.82724417  0.88916337  1
  Si  Si113  1  0.14699854  0.91084460  0.38991697  1
  Si  Si114  1  0.47065708  0.91967463  0.88726543  1
  Si  Si115  1  0.52328832  0.08510135  0.61216788  1
  Si  Si116  1  0.18900665  0.08424865  0.11804471  1
  Si  Si117  1  0.68780964  0.33080830  0.60786545  1
  Si  Si118  1  0.02461581  0.17027047  0.61576318  1
  Si  Si119  1  0.31090105  0.66298086  0.38343665  1
  Si  Si120  1  0.80402062  0.08327386  0.38625403  1
  Si  Si121  1  0.14181022  0.41766193  0.38659135  1
  Si  Si122  1  0.81053901  0.08733249  0.88208823  1
  Si  Si123  1  0.35646538  0.16252243  0.61552855  1
  Si  Si124  1  0.63827928  0.83729067  0.38370227  1
  Si  Si125  1  0.13992750  0.42113240  0.88554721  1
  Si  Si126  1  0.02494627  0.83553876  0.11789654  1
  Si  Si127  1  0.97652140  0.16694752  0.88685801  1
  Si  Si128  1  0.69363788  0.16869660  0.11593803  1
  Si  Si129  1  0.19268545  0.92184946  0.61273591  1
  Si  Si130  1  0.97427338  0.67280988  0.88436134  1
  Si  Si131  1  0.63902521  0.33237632  0.88379378  1
  Si  Si132  1  0.47113718  0.08303466  0.38607039  1
  Si  Si133  1  0.01791810  0.16053428  0.11494241  1
  Si  Si134  1  0.36194062  0.65664122  0.11037975  1
  Si  Si135  1  0.63744992  0.16311935  0.38537480  1
  Si  Si136  1  0.35341116  0.16977661  0.11774235  1
  Si  Si137  1  0.97042375  0.16557740  0.38974842  1
  Si  Si138  1  0.13873989  0.90866210  0.88787164  1
  Si  Si139  1  0.31117585  0.17299126  0.39102907  1
  Si  Si140  1  0.85684613  0.42260234  0.11414582  1
  Si  Si141  1  0.47593824  0.41618453  0.88284203  1
  Si  Si142  1  0.52067041  0.09233216  0.11179660  1
  Si  Si143  1  0.52934288  0.57650749  0.11351181  1
  Si  Si144  1  0.86435592  0.58754498  0.11535159  1
  Si  Si145  1  0.69186447  0.83603013  0.61043965  1
  Si  Si146  1  0.13922429  0.58645794  0.88386601  1
  Si  Si147  1  0.98163114  0.66841124  0.39068209  1
  Si  Si148  1  0.31015189  0.65808744  0.88595416  1
  Si  Si149  1  0.64483702  0.16584963  0.88273853  1
  Si  Si150  1  0.03005916  0.66734620  0.61431470  1
  Si  Si151  1  0.31059062  0.33877377  0.38671698  1
  Si  Si152  1  0.51997963  0.40890296  0.60854647  1
  Si  Si153  1  0.97579537  0.83484688  0.38830809  1
  Si  Si154  1  0.14352260  0.58404004  0.38702369  1
  Si  Si155  1  0.85861624  0.08477214  0.60916678  1
  Si  Si156  1  0.19473636  0.41242038  0.61505238  1
  Si  Si157  1  0.47580173  0.58335396  0.38353980  1
  Si  Si158  1  0.69599319  0.83734726  0.11263487  1
  Si  Si159  1  0.80802212  0.41124645  0.38932345  1
  Si  Si160  1  0.64017328  0.32873939  0.38676547  1
  Si  Si161  1  0.80792384  0.91644766  0.38459256  1
  Si  Si162  1  0.80954032  0.92588793  0.88582968  1
  Si  Si163  1  0.69123425  0.67184546  0.61062412  1
  Si  Si164  1  0.85535432  0.07742380  0.11773082  1
  Si  Si165  1  0.03284533  0.83103015  0.61098182  1
  Si  Si166  1  0.18965352  0.57751758  0.61474845  1
  Si  Si167  1  0.69386495  0.33498963  0.11620861  1
  Si  Si168  1  0.52442180  0.41145029  0.11648117  1
  Si  Si169  1  0.81310431  0.58511247  0.88770508  1
  Si  Si170  1  0.47288335  0.57942493  0.88408414  1
  Si  Si171  1  0.35700004  0.32949642  0.61473439  1
  Si  Si172  1  0.98169871  0.33025745  0.88779103  1
  Si  Si173  1  0.02700766  0.67073098  0.11435700  1
  Si  Si174  1  0.97592263  0.33209726  0.38684926  1
  Si  Si175  1  0.31046941  0.82746361  0.38457209  1
  Si  Si176  1  0.30729271  0.34399788  0.88976426  1
  Si  Si177  1  0.02805118  0.33484770  0.61366155  1
  Si  Si178  1  0.85598945  0.59512986  0.61248711  1
  Si  Si179  1  0.47169568  0.91791795  0.38531069  1
  Si  Si180  1  0.48000234  0.08405344  0.88742957  1
  Si  Si181  1  0.35827547  0.33337874  0.11737779  1
  Si  Si182  1  0.86053961  0.91382854  0.11763294  1
  Si  Si183  1  0.19026709  0.91845534  0.11451319  1
  Si  Si184  1  0.52730067  0.91986440  0.60990716  1
  Si  Si185  1  0.68899314  0.16584945  0.61124230  1
  Si  Si186  1  0.63659435  0.67231414  0.38876400  1
  Si  Si187  1  0.18776441  0.08477261  0.61544463  1
  Si  Si188  1  0.35035119  0.66397678  0.60817854  1
  Si  Si189  1  0.47802070  0.41848862  0.38562448  1
  Si  Si190  1  0.19141706  0.40943170  0.11242616  1
  Si  Si191  1  0.96923921  0.83562380  0.88423216  1
  O  O192  1  0.27198743  0.11780173  0.09120972  1
  O  O193  1  0.26888440  0.11859667  0.58485615  1
  O  O194  1  0.29360203  0.59424444  0.08336206  1
  O  O195  1  0.26441259  0.61440196  0.58074626  1
  O  O196  1  0.60288633  0.13132739  0.08608641  1
  O  O197  1  0.60006393  0.12260016  0.57978244  1
  O  O198  1  0.60968897  0.59659959  0.08077817  1
  O  O199  1  0.61583422  0.62054578  0.57373200  1
  O  O200  1  0.94061164  0.10206497  0.08998471  1
  O  O201  1  0.93514841  0.13108690  0.58225619  1
  O  O202  1  0.95056806  0.61375548  0.08739713  1
  O  O203  1  0.93796515  0.63233537  0.58478076  1
  O  O204  1  0.12863427  0.34373813  0.08540699  1
  O  O205  1  0.11079256  0.36608260  0.58346018  1
  O  O206  1  0.10565966  0.86809821  0.08849501  1
  O  O207  1  0.11231103  0.86959753  0.58323062  1
  O  O208  1  0.44429313  0.35743772  0.08984050  1
  O  O209  1  0.43524008  0.35888920  0.58013802  1
  O  O210  1  0.45011455  0.85529871  0.06798328  1
  O  O211  1  0.45005883  0.87205637  0.57188486  1
  O  O212  1  0.76908094  0.37589155  0.08743613  1
  O  O213  1  0.75805858  0.36998692  0.57323135  1
  O  O214  1  0.78883127  0.85566291  0.08841683  1
  O  O215  1  0.76663794  0.86181571  0.57238112  1
  O  O216  1  0.28451023  0.39090206  0.08973338  1
  O  O217  1  0.27232029  0.37568068  0.58187350  1
  O  O218  1  0.26594406  0.89218323  0.07942184  1
  O  O219  1  0.27011498  0.89857677  0.57670184  1
  O  O220  1  0.60469985  0.37655746  0.08759423  1
  O  O221  1  0.59461444  0.36610704  0.57839387  1
  O  O222  1  0.63608267  0.90439876  0.08410242  1
  O  O223  1  0.61265745  0.89146042  0.58369228  1
  O  O224  1  0.93243284  0.39143549  0.08023169  1
  O  O225  1  0.94680709  0.37844660  0.57542645  1
  O  O226  1  0.94682216  0.89069966  0.08995543  1
  O  O227  1  0.94884654  0.87038799  0.57265254  1
  O  O228  1  0.10500687  0.13235634  0.09019143  1
  O  O229  1  0.10314410  0.13197958  0.58507921  1
  O  O230  1  0.10772243  0.65031694  0.08106962  1
  O  O231  1  0.10006951  0.61809505  0.58358645  1
  O  O232  1  0.43858513  0.14714753  0.08932965  1
  O  O233  1  0.43496156  0.12886104  0.58154250  1
  O  O234  1  0.45054828  0.63074112  0.08603933  1
  O  O235  1  0.42443402  0.62936282  0.57296827  1
  O  O236  1  0.77200582  0.12775810  0.08880975  1
  O  O237  1  0.76829262  0.12991775  0.58210804  1
  O  O238  1  0.79141768  0.64182460  0.08250299  1
  O  O239  1  0.77749536  0.65057408  0.58171282  1
  O  O240  1  0.04792877  0.11699863  0.42557202  1
  O  O241  1  0.04358114  0.11054847  0.92665253  1
  O  O242  1  0.07372551  0.62827306  0.42005420  1
  O  O243  1  0.06244889  0.62871956  0.91300296  1
  O  O244  1  0.39987686  0.12830600  0.41745969  1
  O  O245  1  0.41082934  0.11888370  0.92588455  1
  O  O246  1  0.39289089  0.61270462  0.41226728  1
  O  O247  1  0.38331114  0.59629196  0.91016883  1
  O  O248  1  0.72351485  0.11855073  0.41495122  1
  O  O249  1  0.72851122  0.11776548  0.91336350  1
  O  O250  1  0.71953476  0.63103705  0.42549685  1
  O  O251  1  0.73610554  0.61215438  0.92348030  1
  O  O252  1  0.23091227  0.37472216  0.41582253  1
  O  O253  1  0.23170710  0.38618791  0.92036500  1
  O  O254  1  0.22784034  0.85572428  0.41442348  1
  O  O255  1  0.20548042  0.84628843  0.91725365  1
  O  O256  1  0.56219527  0.36984571  0.41450035  1
  O  O257  1  0.55238274  0.35946923  0.91113902  1
  O  O258  1  0.56390426  0.88192884  0.41441352  1
  O  O259  1  0.54426101  0.86522211  0.92045642  1
  O  O260  1  0.89681917  0.36667724  0.41629365  1
  O  O261  1  0.90546263  0.36026094  0.92205028  1
  O  O262  1  0.89636162  0.87366564  0.41633478  1
  O  O263  1  0.88890235  0.87042447  0.91336842  1
  O  O264  1  0.06434816  0.37641339  0.41456894  1
  O  O265  1  0.06795142  0.37725943  0.91786645  1
  O  O266  1  0.06340257  0.87882048  0.41740822  1
  O  O267  1  0.04933176  0.88647404  0.91394287  1
  O  O268  1  0.39603474  0.38638934  0.41453037  1
  O  O269  1  0.39400804  0.39264340  0.91547993  1
  O  O270  1  0.39526460  0.87532888  0.41406020  1
  O  O271  1  0.38391514  0.90318156  0.91467097  1
  O  O272  1  0.73170025  0.36402452  0.41524635  1
  O  O273  1  0.71660522  0.37942745  0.92182407  1
  O  O274  1  0.72833898  0.87921334  0.41310595  1
  O  O275  1  0.73020216  0.90734641  0.92088871  1
  O  O276  1  0.23706149  0.14350607  0.42707393  1
  O  O277  1  0.22724143  0.13241333  0.94108153  1
  O  O278  1  0.23363775  0.62537681  0.41407077  1
  O  O279  1  0.22744840  0.62837831  0.91698813  1
  O  O280  1  0.56134637  0.12277593  0.41487834  1
  O  O281  1  0.56799823  0.13003523  0.91407797  1
  O  O282  1  0.55345218  0.63573808  0.41471319  1
  O  O283  1  0.54479987  0.63339587  0.91949937  1
  O  O284  1  0.88463515  0.13486693  0.41514747  1
  O  O285  1  0.88399714  0.14620020  0.90910660  1
  O  O286  1  0.91205809  0.63027555  0.42660060  1
  O  O287  1  0.89725856  0.63701775  0.91567869  1
  O  O288  1  0.16739331  0.00271541  0.09036224  1
  O  O289  1  0.16718786  0.00421591  0.58450053  1
  O  O290  1  0.15586101  0.48481799  0.07957923  1
  O  O291  1  0.18215522  0.49471241  0.58469652  1
  O  O292  1  0.49970297  0.01764977  0.07468540  1
  O  O293  1  0.51221449  0.00374868  0.58124798  1
  O  O294  1  0.50053897  0.49236033  0.08887568  1
  O  O295  1  0.50406299  0.48546064  0.57134513  1
  O  O296  1  0.83353339  -0.00435343  0.08980230  1
  O  O297  1  0.84859469  0.00976618  0.56732449  1
  O  O298  1  0.83808244  0.50515135  0.08749352  1
  O  O299  1  0.84151083  0.51815016  0.57461712  1
  O  O300  1  -0.01312321  0.23534924  0.07993301  1
  O  O301  1  0.01824727  0.25142402  0.58293538  1
  O  O302  1  -0.00060782  0.75443070  0.08982860  1
  O  O303  1  0.03267542  0.74789554  0.58100967  1
  O  O304  1  0.33038032  0.25207531  0.09065549  1
  O  O305  1  0.34103672  0.24561968  0.58745590  1
  O  O306  1  0.32900369  0.73319444  0.07897414  1
  O  O307  1  0.32745098  0.74281165  0.57519113  1
  O  O308  1  0.68877074  0.25186554  0.08778105  1
  O  O309  1  0.67753882  0.24679783  0.57871208  1
  O  O310  1  0.66106470  0.76190536  0.07886860  1
  O  O311  1  0.66356677  0.75435762  0.58421427  1
  O  O312  1  0.17225333  -0.01255255  0.42467022  1
  O  O313  1  0.16623545  -0.01522011  0.92348810  1
  O  O314  1  0.15138313  0.50039492  0.41590734  1
  O  O315  1  0.14248171  0.50418151  0.91525349  1
  O  O316  1  0.47302934  0.00080588  0.41540212  1
  O  O317  1  0.50265354  0.00171815  0.91272125  1
  O  O318  1  0.49478495  0.50088911  0.41261061  1
  O  O319  1  0.50201359  0.49698013  0.91098845  1
  O  O320  1  0.81724544  0.00028617  0.41410761  1
  O  O321  1  0.84067712  0.00787036  0.91376474  1
  O  O322  1  0.81416018  0.48783265  0.42519201  1
  O  O323  1  0.83948962  0.50686007  0.92030044  1
  O  O324  1  0.33094046  0.25746174  0.41614179  1
  O  O325  1  0.32492886  0.26685549  0.92591513  1
  O  O326  1  0.32841608  0.74484628  0.41312746  1
  O  O327  1  0.34145396  0.73376803  0.92053394  1
  O  O328  1  0.64191065  0.24565436  0.41501821  1
  O  O329  1  0.65558626  0.24825472  0.91180326  1
  O  O330  1  0.64048403  0.75646023  0.41639592  1
  O  O331  1  0.67521314  0.75472017  0.92784559  1
  O  O332  1  0.98719485  0.24965629  0.41593454  1
  O  O333  1  1.00121943  0.24822309  0.91818711  1
  O  O334  1  0.99043931  0.75316030  0.41804972  1
  O  O335  1  0.98690478  0.75481026  0.91682514  1
  O  O336  1  0.20991059  0.08446671  0.19887923  1
  O  O337  1  0.20936328  0.08320286  0.69472423  1
  O  O338  1  0.21096475  0.58113404  0.20144679  1
  O  O339  1  0.21104498  0.58331782  0.69368951  1
  O  O340  1  0.54070152  0.08846368  0.19322697  1
  O  O341  1  0.54198543  0.08465676  0.69230689  1
  O  O342  1  0.54576303  0.57879307  0.19521306  1
  O  O343  1  0.54217805  0.58084932  0.69768656  1
  O  O344  1  0.87444556  0.08202323  0.19844194  1
  O  O345  1  0.87612563  0.07600324  0.68746556  1
  O  O346  1  0.88305353  0.58224832  0.19569285  1
  O  O347  1  0.86691833  0.59007176  0.69098883  1
  O  O348  1  0.04291298  0.33165242  0.20259715  1
  O  O349  1  0.04497144  0.33358367  0.69380433  1
  O  O350  1  0.04452176  0.83453444  0.19873842  1
  O  O351  1  0.04459567  0.83212369  0.69157320  1
  O  O352  1  0.37750699  0.33214758  0.19847311  1
  O  O353  1  0.37948768  0.33692019  0.69355870  1
  O  O354  1  0.37821426  0.83285096  0.19865524  1
  O  O355  1  0.38028131  0.83396388  0.69953432  1
  O  O356  1  0.70968680  0.33286113  0.19710383  1
  O  O357  1  0.70492763  0.33166199  0.68805319  1
  O  O358  1  0.71373401  0.83272593  0.19359642  1
  O  O359  1  0.71177768  0.83693021  0.69107966  1
  O  O360  1  0.21037937  0.41353589  0.19483540  1
  O  O361  1  0.21534665  0.41032680  0.69394333  1
  O  O362  1  0.20876719  0.91706965  0.19617128  1
  O  O363  1  0.21028394  0.91835381  0.69313795  1
  O  O364  1  0.54472498  0.41248681  0.19738100  1
  O  O365  1  0.54007473  0.41280439  0.68924337  1
  O  O366  1  0.54006017  0.92032053  0.19830787  1
  O  O367  1  0.54064986  0.92037002  0.69039250  1
  O  O368  1  0.87474389  0.41725470  0.19571323  1
  O  O369  1  0.88136380  0.41734677  0.69890402  1
  O  O370  1  0.87908349  0.91663205  0.19824694  1
  O  O371  1  0.87825044  0.91635038  0.69854707  1
  O  O372  1  0.03828428  0.16454033  0.19642687  1
  O  O373  1  0.04309916  0.17008054  0.69462443  1
  O  O374  1  0.04495762  0.66844515  0.19582465  1
  O  O375  1  0.04883032  0.67242817  0.69308556  1
  O  O376  1  0.37365911  0.16844320  0.19876850  1
  O  O377  1  0.38065813  0.15792882  0.69428625  1
  O  O378  1  0.37965580  0.66166753  0.19270901  1
  O  O379  1  0.37250870  0.66411871  0.68952739  1
  O  O380  1  0.70987073  0.16784669  0.19672956  1
  O  O381  1  0.69941875  0.16712950  0.69023187  1
  O  O382  1  0.70663896  0.66889559  0.20220435  1
  O  O383  1  0.70818614  0.66963203  0.69111540  1
  O  O384  1  0.12189757  0.08245187  0.30281282  1
  O  O385  1  0.12357148  0.08087024  0.80168291  1
  O  O386  1  0.12369709  0.58279644  0.30682569  1
  O  O387  1  0.12974193  0.58578047  0.80570266  1
  O  O388  1  0.45360676  0.08522333  0.30567682  1
  O  O389  1  0.45864201  0.08487955  0.80629194  1
  O  O390  1  0.45726476  0.58160578  0.30309762  1
  O  O391  1  0.45533668  0.58127793  0.80315125  1
  O  O392  1  0.78701572  0.08433226  0.30586558  1
  O  O393  1  0.78540963  0.07931248  0.80323922  1
  O  O394  1  0.78876583  0.57929194  0.30247149  1
  O  O395  1  0.78913190  0.58880276  0.80724329  1
  O  O396  1  0.29043751  0.33559765  0.30622073  1
  O  O397  1  0.28645743  0.34254546  0.81017855  1
  O  O398  1  0.29079535  0.83098648  0.30443220  1
  O  O399  1  0.28688718  0.83026074  0.79757263  1
  O  O400  1  0.62223671  0.33069661  0.30605788  1
  O  O401  1  0.62227953  0.33377043  0.80292364  1
  O  O402  1  0.61954517  0.83339828  0.30446105  1
  O  O403  1  0.62155966  0.83600683  0.79551041  1
  O  O404  1  0.95593597  0.33291860  0.30636715  1
  O  O405  1  0.96173709  0.33093034  0.80745503  1
  O  O406  1  0.95869320  0.83440585  0.30805257  1
  O  O407  1  0.95534096  0.83337409  0.80400110  1
  O  O408  1  0.12549435  0.41731159  0.30632331  1
  O  O409  1  0.12322426  0.41520373  0.80640864  1
  O  O410  1  0.12597841  0.91404228  0.30869229  1
  O  O411  1  0.12220618  0.91272384  0.80620154  1
  O  O412  1  0.45819949  0.41548928  0.30520467  1
  O  O413  1  0.45715971  0.41535369  0.80238863  1
  O  O414  1  0.45345039  0.91941539  0.30553497  1
  O  O415  1  0.45752015  0.91861187  0.80555856  1
  O  O416  1  0.79005555  0.41252258  0.30811355  1
  O  O417  1  0.78343235  0.41547383  0.79587765  1
  O  O418  1  0.79444645  0.91752314  0.30542866  1
  O  O419  1  0.78951515  0.92044071  0.80507473  1
  O  O420  1  0.29094831  0.16853679  0.30998499  1
  O  O421  1  0.28236297  0.15780605  0.80628727  1
  O  O422  1  0.29235471  0.66561050  0.30329476  1
  O  O423  1  0.29080393  0.66378092  0.80491460  1
  O  O424  1  0.62111018  0.16683708  0.30493543  1
  O  O425  1  0.62574141  0.16577408  0.80241918  1
  O  O426  1  0.62018276  0.66747734  0.30816502  1
  O  O427  1  0.62163267  0.66819770  0.79657750  1
  O  O428  1  0.95481488  0.16567037  0.30836964  1
  O  O429  1  0.96780352  0.16917849  0.80817927  1
  O  O430  1  0.96727760  0.66698690  0.31069679  1
  O  O431  1  0.95297459  0.67596762  0.80521621  1
  F  F432  1  0.04409746  -0.00257273  0.20542907  1
  F  F433  1  0.04917348  -0.00877570  0.69672507  1
  F  F434  1  0.04563895  0.50009334  0.20480790  1
  F  F435  1  0.04865480  0.48863667  0.69318994  1
  F  F436  1  0.37636869  0.00390176  0.20340727  1
  F  F437  1  0.37801994  0.00085747  0.70325018  1
  F  F438  1  0.38090243  0.49618582  0.20323980  1
  F  F439  1  0.37815351  0.49855115  0.69873784  1
  F  F440  1  0.71325199  0.00676056  0.20141543  1
  F  F441  1  0.71076975  0.00058163  0.69833464  1
  F  F442  1  0.71108647  0.49484710  0.20326320  1
  F  F443  1  0.69779093  0.50255914  0.69325160  1
  F  F444  1  0.21218692  0.24766880  0.20725260  1
  F  F445  1  0.20011032  0.24949573  0.69962418  1
  F  F446  1  0.21197835  0.74978245  0.20232897  1
  F  F447  1  0.21074038  0.74658615  0.69938916  1
  F  F448  1  0.54448245  0.24989656  0.20339506  1
  F  F449  1  0.54409523  0.24885653  0.69940885  1
  F  F450  1  0.54614720  0.74923410  0.20228920  1
  F  F451  1  0.54069362  0.75105805  0.69565241  1
  F  F452  1  0.87616914  0.24881124  0.20507651  1
  F  F453  1  0.88411564  0.26133256  0.69599609  1
  F  F454  1  0.88270340  0.75346850  0.20638657  1
  F  F455  1  0.87807474  0.75244702  0.69973648  1
  F  F456  1  0.28875622  -0.00148069  0.29947388  1
  F  F457  1  0.28704872  -0.00256316  0.79681699  1
  F  F458  1  0.29062411  0.49706163  0.29976130  1
  F  F459  1  0.29462876  0.49963996  0.79772097  1
  F  F460  1  0.61520827  0.01186023  0.30325764  1
  F  F461  1  0.62002084  0.00188304  0.79348297  1
  F  F462  1  0.62042185  0.49700886  0.30012190  1
  F  F463  1  0.62016482  0.49609730  0.79613204  1
  F  F464  1  0.95317807  -0.00009596  0.30090255  1
  F  F465  1  0.95490352  -0.00201710  0.79946285  1
  F  F466  1  0.95662416  0.49796791  0.29939905  1
  F  F467  1  0.95916099  0.48975919  0.80894942  1
  F  F468  1  0.12174843  0.24864600  0.30191778  1
  F  F469  1  0.12234239  0.25251454  0.80022885  1
  F  F470  1  0.12430525  0.74915071  0.29873266  1
  F  F471  1  0.12079888  0.74986658  0.79624358  1
  F  F472  1  0.45560896  0.24988239  0.30078692  1
  F  F473  1  0.46892214  0.24952168  0.80178652  1
  F  F474  1  0.45507179  0.74688487  0.29669407  1
  F  F475  1  0.45508426  0.74584353  0.79488609  1
  F  F476  1  0.78677877  0.24972870  0.29972644  1
  F  F477  1  0.78314577  0.25965793  0.79744638  1
  F  F478  1  0.78588645  0.75868366  0.30594518  1
  F  F479  1  0.78615581  0.75306569  0.79391336  1
