# generated using pymatgen
data_K24Na3Li5Mg64Fe17Si79(O5F)48
_symmetry_space_group_name_H-M   'P 1'
_cell_length_a   16.09158825
_cell_length_b   18.59022761
_cell_length_c   20.55192182
_cell_angle_alpha   89.99414236
_cell_angle_beta   100.01881961
_cell_angle_gamma   90.01366715
_symmetry_Int_Tables_number   1
_chemical_formula_structural   K24Na3Li5Mg64Fe17Si79(O5F)48
_chemical_formula_sum   'K24 Na3 Li5 Mg64 Fe17 Si79 O240 F48'
_cell_volume   6054.27754194
_cell_formula_units_Z   1
loop_
 _symmetry_equiv_pos_site_id
 _symmetry_equiv_pos_as_xyz
  1  'x, y, z'
loop_
 _atom_site_type_symbol
 _atom_site_label
 _atom_site_symmetry_multiplicity
 _atom_site_fract_x
 _atom_site_fract_y
 _atom_site_fract_z
 _atom_site_occupancy
  K  K0  1  -0.00188407  0.00297582  0.00703301  1
  K  K1  1  0.01090085  -0.00043894  0.49576530  1
  K  K2  1  0.00060930  0.49053322  0.00330901  1
  K  K3  1  -0.00842123  0.49910729  0.50057298  1
  K  K4  1  0.33256815  0.00487998  -0.00032613  1
  K  K5  1  0.32531147  0.00632818  0.49796202  1
  K  K6  1  0.32981166  0.49725805  0.00301245  1
  K  K7  1  0.32711256  0.50186648  0.49472984  1
  K  K8  1  0.66287461  -0.00383665  -0.00318881  1
  K  K9  1  0.66126497  0.00028821  0.49826556  1
  K  K10  1  0.68059840  0.50448469  0.00329269  1
  K  K11  1  0.67179248  0.49473867  0.50078803  1
  K  K12  1  0.17050531  0.25330147  0.01194308  1
  K  K13  1  0.16866498  0.24353810  0.49605978  1
  K  K14  1  0.16251563  0.75003269  0.00297863  1
  K  K15  1  0.17905105  0.75350353  0.50294560  1
  K  K16  1  0.49398069  0.24424953  0.00412185  1
  K  K17  1  0.49201321  0.24323176  0.49419790  1
  K  K18  1  0.51306145  0.75098020  -0.00191520  1
  K  K19  1  0.50161582  0.75318982  0.50300526  1
  K  K20  1  0.83815697  0.24986519  0.00043787  1
  K  K21  1  0.83579266  0.25673403  0.49902178  1
  K  K22  1  0.82603997  0.75801503  0.00064510  1
  K  K23  1  0.83133738  0.75337378  0.50100396  1
  Na  Na24  1  0.33202111  0.25175432  0.24725276  1
  Na  Na25  1  0.16854207  0.16969607  0.25410333  1
  Na  Na26  1  0.00121408  0.08111461  0.25508517  1
  Li  Li27  1  0.66388241  0.25159078  0.24211426  1
  Li  Li28  1  0.16953339  -0.00109284  0.74988523  1
  Li  Li29  1  -0.00830354  0.58562117  0.74732117  1
  Li  Li30  1  0.50184294  0.83588901  0.74840349  1
  Li  Li31  1  0.83757505  0.66444830  0.74850457  1
  Mg  Mg32  1  0.49897142  0.49817595  0.24585805  1
  Mg  Mg33  1  -0.00178508  0.74675016  0.74849228  1
  Mg  Mg34  1  -0.00179290  0.24964517  0.75206917  1
  Mg  Mg35  1  0.83193063  0.49775207  0.24465930  1
  Mg  Mg36  1  0.33138147  0.75010576  0.25386379  1
  Mg  Mg37  1  0.83784078  0.50382746  0.74792203  1
  Mg  Mg38  1  0.50014518  0.00075933  0.25382502  1
  Mg  Mg39  1  0.66610545  0.74995892  0.24975506  1
  Mg  Mg40  1  0.83522931  -0.00092283  0.75521975  1
  Mg  Mg41  1  0.16707488  -0.00111524  0.25221974  1
  Mg  Mg42  1  0.33849708  0.75123951  0.74872072  1
  Mg  Mg43  1  0.16794454  0.50066621  0.25081309  1
  Mg  Mg44  1  0.50098791  0.50008432  0.74899522  1
  Mg  Mg45  1  0.00179938  0.24856852  0.25192948  1
  Mg  Mg46  1  0.83291411  0.00168863  0.24975364  1
  Mg  Mg47  1  0.66667252  0.24903250  0.75170096  1
  Mg  Mg48  1  0.16150526  0.50213118  0.75002043  1
  Mg  Mg49  1  0.33201322  0.24820645  0.74829257  1
  Mg  Mg50  1  0.66670482  0.75049826  0.75135703  1
  Mg  Mg51  1  -0.00117135  0.75061052  0.24927769  1
  Mg  Mg52  1  0.50016531  -0.00300423  0.75104023  1
  Mg  Mg53  1  0.33119487  0.41582665  0.74887990  1
  Mg  Mg54  1  0.66571121  0.91546583  0.25169796  1
  Mg  Mg55  1  0.67201688  0.58577494  0.74996977  1
  Mg  Mg56  1  0.83465920  0.83031831  0.75240019  1
  Mg  Mg57  1  0.00394028  0.91608991  0.75047746  1
  Mg  Mg58  1  0.16334865  0.33410100  0.74991802  1
  Mg  Mg59  1  0.66479638  0.41364103  0.24349906  1
  Mg  Mg60  1  0.82894089  0.33134993  0.24716043  1
  Mg  Mg61  1  0.16455280  0.66659184  0.74833199  1
  Mg  Mg62  1  0.66750619  0.08374381  0.75451754  1
  Mg  Mg63  1  0.33263178  0.41597126  0.24899394  1
  Mg  Mg64  1  0.66524322  0.91393096  0.75194119  1
  Mg  Mg65  1  0.83694384  0.33604581  0.75043137  1
  Mg  Mg66  1  0.00009704  0.41464200  0.24769420  1
  Mg  Mg67  1  0.33247616  0.58398854  0.74878483  1
  Mg  Mg68  1  0.16482204  0.16241689  0.75095408  1
  Mg  Mg69  1  0.66544042  0.08674501  0.24694431  1
  Mg  Mg70  1  0.66987428  0.41630248  0.74995443  1
  Mg  Mg71  1  0.33277902  0.58581315  0.25192158  1
  Mg  Mg72  1  -0.00092778  0.58398388  0.24942922  1
  Mg  Mg73  1  0.49865732  0.16871995  0.24849033  1
  Mg  Mg74  1  0.83723596  0.16578692  0.75574300  1
  Mg  Mg75  1  0.33240516  0.08365079  0.25122277  1
  Mg  Mg76  1  0.82977202  0.66559383  0.24637834  1
  Mg  Mg77  1  0.00310146  0.08230261  0.75373145  1
  Mg  Mg78  1  0.00131553  0.91578852  0.25195550  1
  Mg  Mg79  1  0.16653192  0.83376929  0.25330466  1
  Mg  Mg80  1  0.33384573  0.91447799  0.25308008  1
  Mg  Mg81  1  0.33493204  0.91553983  0.74916106  1
  Mg  Mg82  1  0.16763472  0.66652578  0.25222102  1
  Mg  Mg83  1  0.50185627  0.66753242  0.74955986  1
  Mg  Mg84  1  0.50162478  0.83372229  0.25446186  1
  Mg  Mg85  1  0.66475567  0.58459763  0.24636280  1
  Mg  Mg86  1  0.83142168  0.83573143  0.24830449  1
  Mg  Mg87  1  0.16878282  0.33504306  0.24922894  1
  Mg  Mg88  1  0.50005975  0.66543154  0.25144159  1
  Mg  Mg89  1  0.50105282  0.33196820  0.24492589  1
  Mg  Mg90  1  0.16872457  0.83432452  0.74784120  1
  Mg  Mg91  1  -0.00288679  0.41844132  0.74956252  1
  Mg  Mg92  1  0.49955983  0.16473629  0.75092133  1
  Mg  Mg93  1  0.49987527  0.33385189  0.74956151  1
  Mg  Mg94  1  0.33102896  0.08249611  0.74939107  1
  Mg  Mg95  1  0.83013333  0.16934468  0.24874293  1
  Fe  Fe96  1  0.35903251  0.16788257  0.61037729  1
  Fe  Fe97  1  0.31326117  0.66262455  0.39360892  1
  Fe  Fe98  1  0.31315336  0.16961450  0.39497197  1
  Fe  Fe99  1  0.64191323  0.16685573  0.89184027  1
  Fe  Fe100  1  0.64203073  0.83287053  0.39184276  1
  Fe  Fe101  1  0.19402396  0.41947731  0.10898861  1
  Fe  Fe102  1  0.02350539  0.83433294  0.11141491  1
  Fe  Fe103  1  0.36428290  0.33216674  0.10585238  1
  Fe  Fe104  1  0.69291161  0.66487336  0.10766634  1
  Fe  Fe105  1  0.68774389  0.33447637  0.10590605  1
  Fe  Fe106  1  0.36122521  0.83277713  0.61067767  1
  Fe  Fe107  1  0.98110022  0.16338768  0.89438841  1
  Fe  Fe108  1  0.85649201  0.41950388  0.60681704  1
  Fe  Fe109  1  0.97857062  0.33550105  0.89223164  1
  Fe  Fe110  1  0.31272666  0.83618132  0.39254690  1
  Fe  Fe111  1  0.13960323  0.08056685  0.39696381  1
  Fe  Fe112  1  0.63949400  0.83386209  0.88986865  1
  Si  Si113  1  0.36133748  0.83500054  0.11657250  1
  Si  Si114  1  0.53166801  0.91872577  0.61302859  1
  Si  Si115  1  0.80538751  0.42016712  0.88623402  1
  Si  Si116  1  0.68567110  0.16415618  0.11043666  1
  Si  Si117  1  0.18673069  0.58169565  0.61386415  1
  Si  Si118  1  0.02406193  0.66942345  0.61281058  1
  Si  Si119  1  0.02779664  0.32902665  0.11332448  1
  Si  Si120  1  0.02660979  0.16528971  0.61551085  1
  Si  Si121  1  0.69131017  0.83715379  0.11268909  1
  Si  Si122  1  0.35699393  0.67096558  0.11565247  1
  Si  Si123  1  0.96572164  0.83125379  0.38513256  1
  Si  Si124  1  0.13353467  0.58512213  0.38881898  1
  Si  Si125  1  0.64154448  0.16750457  0.38156969  1
  Si  Si126  1  0.96627126  0.17165339  0.38873582  1
  Si  Si127  1  0.47070631  0.41403725  0.88401073  1
  Si  Si128  1  0.52727979  0.42235834  0.10774678  1
  Si  Si129  1  0.64342671  0.66080481  0.88718142  1
  Si  Si130  1  0.13852261  0.41935807  0.38673836  1
  Si  Si131  1  0.96516915  0.66589753  0.38405336  1
  Si  Si132  1  0.68848681  0.32844925  0.61248327  1
  Si  Si133  1  0.02252309  0.16547807  0.11715145  1
  Si  Si134  1  0.52875620  0.58274423  0.61428817  1
  Si  Si135  1  0.80690352  0.41543956  0.38252219  1
  Si  Si136  1  0.81522829  0.91504285  0.88836210  1
  Si  Si137  1  0.46842968  0.92076335  0.88897685  1
  Si  Si138  1  0.35667101  0.65858827  0.61220799  1
  Si  Si139  1  0.35700950  0.15864995  0.11076990  1
  Si  Si140  1  0.19044656  0.91677646  0.61347054  1
  Si  Si141  1  0.35584062  0.34087121  0.61238857  1
  Si  Si142  1  0.02632352  0.83337693  0.61388119  1
  Si  Si143  1  0.85490442  0.58888431  0.60993479  1
  Si  Si144  1  0.18942831  0.41781999  0.61531579  1
  Si  Si145  1  0.52314897  0.07822252  0.11372054  1
  Si  Si146  1  0.85286551  0.08728454  0.11457862  1
  Si  Si147  1  0.30780530  0.83158517  0.88534295  1
  Si  Si148  1  0.48073836  0.57734451  0.38710144  1
  Si  Si149  1  0.64135197  0.33195230  0.38099616  1
  Si  Si150  1  0.69650255  0.83643906  0.61566834  1
  Si  Si151  1  0.18917409  0.08101455  0.61553714  1
  Si  Si152  1  0.31022674  0.34455323  0.38945571  1
  Si  Si153  1  0.80405098  0.57861023  0.38277799  1
  Si  Si154  1  0.18981311  0.07909166  0.11492022  1
  Si  Si155  1  0.80751782  0.92263084  0.38721607  1
  Si  Si156  1  0.14689416  0.58803287  0.88396681  1
  Si  Si157  1  0.86222122  0.08183375  0.61712031  1
  Si  Si158  1  0.14239875  0.07484479  0.88771057  1
  Si  Si159  1  0.31225544  0.66815452  0.88420112  1
  Si  Si160  1  0.18955836  0.58939407  0.11329458  1
  Si  Si161  1  0.51787957  0.58485809  0.11112067  1
  Si  Si162  1  0.46768486  0.08569897  0.88882921  1
  Si  Si163  1  0.69778330  0.16286403  0.61747250  1
  Si  Si164  1  0.47444997  0.57935675  0.88416545  1
  Si  Si165  1  0.85524770  0.92273625  0.11225326  1
  Si  Si166  1  0.64196474  0.33933350  0.88593157  1
  Si  Si167  1  0.29981282  0.16651988  0.88543409  1
  Si  Si168  1  0.02802014  0.33098742  0.61176643  1
  Si  Si169  1  0.48144719  0.08466687  0.38759941  1
  Si  Si170  1  0.97354680  0.33465748  0.38479505  1
  Si  Si171  1  0.97921985  0.83099327  0.88552337  1
  Si  Si172  1  0.19508444  0.91581008  0.11307769  1
  Si  Si173  1  0.14400629  0.42411318  0.88606620  1
  Si  Si174  1  0.13665879  0.90880869  0.39248460  1
  Si  Si175  1  0.86212562  0.91657658  0.61672719  1
  Si  Si176  1  0.81308359  0.58399989  0.88330831  1
  Si  Si177  1  0.52469853  0.91521372  0.11642962  1
  Si  Si178  1  0.69048970  0.67147056  0.61495870  1
  Si  Si179  1  0.86540884  0.57878419  0.11153598  1
  Si  Si180  1  0.48126880  0.41609600  0.38403621  1
  Si  Si181  1  0.02379757  0.66617156  0.11459537  1
  Si  Si182  1  0.97870863  0.66615559  0.88291390  1
  Si  Si183  1  0.52674405  0.41674728  0.61436223  1
  Si  Si184  1  0.30387548  0.33234972  0.88362195  1
  Si  Si185  1  0.64304602  0.66301383  0.38758907  1
  Si  Si186  1  0.86232798  0.41197888  0.11104766  1
  Si  Si187  1  0.14438158  0.91095943  0.88405950  1
  Si  Si188  1  0.53139510  0.08250066  0.61407692  1
  Si  Si189  1  0.47557611  0.92209246  0.38978799  1
  Si  Si190  1  0.80873457  0.07956210  0.89062339  1
  Si  Si191  1  0.80554080  0.08714966  0.38447315  1
  O  O192  1  0.26923239  0.11196021  0.08255473  1
  O  O193  1  0.26684141  0.10738274  0.58124292  1
  O  O194  1  0.27196448  0.62518522  0.08587774  1
  O  O195  1  0.27124344  0.60797629  0.58577127  1
  O  O196  1  0.60618594  0.10675318  0.08477595  1
  O  O197  1  0.61916080  0.10983671  0.58874284  1
  O  O198  1  0.59448810  0.61139446  0.07518643  1
  O  O199  1  0.60250290  0.62678226  0.58406599  1
  O  O200  1  0.93653278  0.11802736  0.08674821  1
  O  O201  1  0.94081118  0.11802513  0.58703837  1
  O  O202  1  0.95484867  0.60207406  0.08843363  1
  O  O203  1  0.93553817  0.62871089  0.58180061  1
  O  O204  1  0.10288912  0.35815027  0.07805659  1
  O  O205  1  0.11398807  0.36162000  0.58543397  1
  O  O206  1  0.12072250  0.86279450  0.07751279  1
  O  O207  1  0.10416700  0.86862808  0.58387751  1
  O  O208  1  0.46078038  0.36326775  0.07206244  1
  O  O209  1  0.43428538  0.38235314  0.58498887  1
  O  O210  1  0.44424114  0.86306541  0.08641720  1
  O  O211  1  0.45618701  0.86735107  0.57826394  1
  O  O212  1  0.78579882  0.36343058  0.07396975  1
  O  O213  1  0.75802641  0.36427033  0.57441086  1
  O  O214  1  0.76834787  0.87710522  0.08391451  1
  O  O215  1  0.77869743  0.86823922  0.58616107  1
  O  O216  1  0.27700728  0.38965694  0.06372730  1
  O  O217  1  0.27482154  0.39536010  0.58705731  1
  O  O218  1  0.28327555  0.88891798  0.08697711  1
  O  O219  1  0.26507974  0.88930120  0.57638159  1
  O  O220  1  0.61447832  0.41298554  0.07873394  1
  O  O221  1  0.59708099  0.36911537  0.58478172  1
  O  O222  1  0.60635241  0.88627843  0.08683682  1
  O  O223  1  0.61845184  0.88969188  0.58639080  1
  O  O224  1  0.94687423  0.38218987  0.08522444  1
  O  O225  1  0.94905258  0.37740214  0.57418373  1
  O  O226  1  0.93061472  0.89301950  0.07697002  1
  O  O227  1  0.94036523  0.88045664  0.58578488  1
  O  O228  1  0.10259606  0.12626542  0.08876870  1
  O  O229  1  0.10448372  0.13000107  0.58542830  1
  O  O230  1  0.11212933  0.64692105  0.08807888  1
  O  O231  1  0.10355940  0.63093070  0.58336741  1
  O  O232  1  0.43672490  0.12048104  0.08015788  1
  O  O233  1  0.45696854  0.13576488  0.58054986  1
  O  O234  1  0.43596058  0.63823211  0.08425710  1
  O  O235  1  0.43543859  0.61649359  0.58502846  1
  O  O236  1  0.76959520  0.13448953  0.08090766  1
  O  O237  1  0.77877088  0.13058744  0.58694960  1
  O  O238  1  0.78843028  0.62869155  0.07563251  1
  O  O239  1  0.76939385  0.63914150  0.58254403  1
  O  O240  1  0.04153627  0.12130700  0.42463737  1
  O  O241  1  0.06466692  0.09280279  0.92480291  1
  O  O242  1  0.04906468  0.61931873  0.41460030  1
  O  O243  1  0.06616735  0.62093689  0.91412860  1
  O  O244  1  0.40880202  0.11008600  0.42713645  1
  O  O245  1  0.38422708  0.12040731  0.91501516  1
  O  O246  1  0.40111848  0.59481298  0.42216871  1
  O  O247  1  0.39742776  0.62050514  0.91313137  1
  O  O248  1  0.72218529  0.11546866  0.41360928  1
  O  O249  1  0.72230103  0.09468041  0.91923292  1
  O  O250  1  0.72175899  0.60585892  0.41251739  1
  O  O251  1  0.73214459  0.61639697  0.91370511  1
  O  O252  1  0.23029979  0.38426572  0.41948310  1
  O  O253  1  0.22814580  0.37340457  0.91197660  1
  O  O254  1  0.21037359  0.85228428  0.42149153  1
  O  O255  1  0.22364641  0.85717460  0.91487941  1
  O  O256  1  0.56113805  0.36209876  0.41440721  1
  O  O257  1  0.55663665  0.36983635  0.91252590  1
  O  O258  1  0.54602076  0.86383557  0.42358884  1
  O  O259  1  0.55011389  0.87663742  0.92560470  1
  O  O260  1  0.89425259  0.37283065  0.41392116  1
  O  O261  1  0.87803345  0.36670851  0.92159323  1
  O  O262  1  0.88898462  0.87001869  0.41549374  1
  O  O263  1  0.89967283  0.86456818  0.91506454  1
  O  O264  1  0.06132321  0.37785014  0.41572585  1
  O  O265  1  0.06581457  0.40336347  0.92085005  1
  O  O266  1  0.05071958  0.87380188  0.41688146  1
  O  O267  1  0.06337368  0.87950303  0.91527735  1
  O  O268  1  0.39672248  0.39525091  0.41517767  1
  O  O269  1  0.39259055  0.37474782  0.91186844  1
  O  O270  1  0.38881928  0.91263032  0.41843645  1
  O  O271  1  0.38507713  0.88512518  0.91613814  1
  O  O272  1  0.72724177  0.37974687  0.41207500  1
  O  O273  1  0.71454171  0.40087370  0.90996981  1
  O  O274  1  0.73138749  0.89717273  0.42384330  1
  O  O275  1  0.74004819  0.88563310  0.92401530  1
  O  O276  1  0.22781747  0.13757289  0.43696255  1
  O  O277  1  0.22351410  0.12860606  0.91633738  1
  O  O278  1  0.21474071  0.62863367  0.42551700  1
  O  O279  1  0.23099429  0.63747003  0.91478798  1
  O  O280  1  0.56321205  0.13813010  0.41538452  1
  O  O281  1  0.54601332  0.13406709  0.92429908  1
  O  O282  1  0.56109899  0.63068204  0.41608392  1
  O  O283  1  0.56571128  0.61569253  0.91371789  1
  O  O284  1  0.87975697  0.14360789  0.41591134  1
  O  O285  1  0.88056307  0.13579851  0.92366774  1
  O  O286  1  0.88618991  0.62851966  0.41341474  1
  O  O287  1  0.89890331  0.63077929  0.91298962  1
  O  O288  1  0.17466498  -0.00247563  0.08200765  1
  O  O289  1  0.16144253  -0.00087136  0.59017035  1
  O  O290  1  0.16553666  0.51461287  0.07577252  1
  O  O291  1  0.16363616  0.49929427  0.58644874  1
  O  O292  1  0.50441131  -0.00449036  0.08524952  1
  O  O293  1  0.51679136  0.00113893  0.58268081  1
  O  O294  1  0.48731138  0.50387340  0.08562170  1
  O  O295  1  0.52972355  0.49949590  0.58578651  1
  O  O296  1  0.83510578  0.00539667  0.08480857  1
  O  O297  1  0.84803987  -0.00074828  0.58703422  1
  O  O298  1  0.84809410  0.49597747  0.08426112  1
  O  O299  1  0.83999402  0.51308074  0.56973813  1
  O  O300  1  0.00546589  0.24651132  0.08442234  1
  O  O301  1  0.01336584  0.24701835  0.58487337  1
  O  O302  1  -0.01086056  0.74098195  0.08028626  1
  O  O303  1  0.01286367  0.75184594  0.58199336  1
  O  O304  1  0.34321702  0.23606893  0.07545630  1
  O  O305  1  0.33679756  0.26356925  0.57852856  1
  O  O306  1  0.33992288  0.75351286  0.08643301  1
  O  O307  1  0.34027492  0.73625506  0.57894692  1
  O  O308  1  0.65673832  0.24013155  0.07546251  1
  O  O309  1  0.67611212  0.24379488  0.58702586  1
  O  O310  1  0.67485331  0.75993158  0.07694079  1
  O  O311  1  0.67731552  0.75458565  0.58569701  1
  O  O312  1  0.15071315  -0.01495309  0.43084168  1
  O  O313  1  0.17267242  -0.00843171  0.91185569  1
  O  O314  1  0.13843476  0.50142731  0.41733503  1
  O  O315  1  0.17220890  0.50681199  0.91176132  1
  O  O316  1  0.51533968  0.00303443  0.41113805  1
  O  O317  1  0.47471709  0.00348229  0.91971486  1
  O  O318  1  0.51453484  0.49582648  0.41242268  1
  O  O319  1  0.47662106  0.49669182  0.91315740  1
  O  O320  1  0.83232905  0.00597354  0.41315689  1
  O  O321  1  0.84256170  -0.00290967  0.91357653  1
  O  O322  1  0.82240948  0.49723744  0.41317466  1
  O  O323  1  0.82884076  0.50267739  0.91458536  1
  O  O324  1  0.33030308  0.26782634  0.42468710  1
  O  O325  1  0.31185944  0.25005058  0.91312103  1
  O  O326  1  0.35328242  0.74904698  0.42918729  1
  O  O327  1  0.33112444  0.74962931  0.91435640  1
  O  O328  1  0.66264756  0.25008785  0.41017984  1
  O  O329  1  0.66986969  0.26285613  0.91962229  1
  O  O330  1  0.67144940  0.73857811  0.42345011  1
  O  O331  1  0.65045151  0.73789836  0.92329281  1
  O  O332  1  0.98169811  0.25498163  0.41896738  1
  O  O333  1  1.01922882  0.25025884  0.93119634  1
  O  O334  1  0.97215341  0.74783406  0.41423213  1
  O  O335  1  0.99511627  0.74849412  0.91472046  1
  O  O336  1  0.21400923  0.07401671  0.19361591  1
  O  O337  1  0.20963351  0.08646991  0.69552542  1
  O  O338  1  0.20792099  0.58527371  0.19426126  1
  O  O339  1  0.20762728  0.58330197  0.69421320  1
  O  O340  1  0.54197619  0.08030915  0.19400016  1
  O  O341  1  0.54494349  0.08183280  0.69507398  1
  O  O342  1  0.54046307  0.58605187  0.19243509  1
  O  O343  1  0.54505905  0.58217192  0.69475092  1
  O  O344  1  0.86478134  0.08511138  0.19407402  1
  O  O345  1  0.87722845  0.08064826  0.69713860  1
  O  O346  1  0.87672707  0.58218665  0.19281576  1
  O  O347  1  0.87252978  0.58285787  0.68889958  1
  O  O348  1  0.04182421  0.33403551  0.19422824  1
  O  O349  1  0.04425426  0.33303222  0.69240738  1
  O  O350  1  0.04408096  0.83188769  0.20298136  1
  O  O351  1  0.04364194  0.83229157  0.69405706  1
  O  O352  1  0.38374464  0.34432514  0.19581485  1
  O  O353  1  0.37551646  0.33696882  0.69357888  1
  O  O354  1  0.38044762  0.83292728  0.19665843  1
  O  O355  1  0.37876333  0.83266986  0.70152805  1
  O  O356  1  0.71228904  0.33578391  0.19641773  1
  O  O357  1  0.70835043  0.33263606  0.69338555  1
  O  O358  1  0.71038012  0.83448168  0.19361522  1
  O  O359  1  0.71467243  0.83480964  0.69553484  1
  O  O360  1  0.21109551  0.42168683  0.20107089  1
  O  O361  1  0.20826841  0.41766426  0.69582280  1
  O  O362  1  0.21076675  0.91460344  0.19361249  1
  O  O363  1  0.21207837  0.91114276  0.69348770  1
  O  O364  1  0.54384772  0.41966227  0.18953459  1
  O  O365  1  0.54378189  0.41696877  0.69500162  1
  O  O366  1  0.54168448  0.91644673  0.19657000  1
  O  O367  1  0.54762663  0.92153186  0.69314062  1
  O  O368  1  0.87678389  0.41486253  0.19245254  1
  O  O369  1  0.87535890  0.41839804  0.69772338  1
  O  O370  1  0.87379961  0.91777678  0.19322902  1
  O  O371  1  0.87877738  0.91637630  0.69688931  1
  O  O372  1  0.03651944  0.17193907  0.19512129  1
  O  O373  1  0.04363166  0.16595304  0.69567622  1
  O  O374  1  0.04128306  0.66621226  0.19600995  1
  O  O375  1  0.04563065  0.67045146  0.69210473  1
  O  O376  1  0.38075078  0.15551812  0.19028679  1
  O  O377  1  0.37854976  0.16715453  0.70239983  1
  O  O378  1  0.37744903  0.66869399  0.19590301  1
  O  O379  1  0.37653547  0.66098858  0.69321723  1
  O  O380  1  0.70811074  0.16364085  0.19063238  1
  O  O381  1  0.71550312  0.16480368  0.69769804  1
  O  O382  1  0.70992078  0.66685768  0.19955543  1
  O  O383  1  0.70588628  0.66815071  0.69431391  1
  O  O384  1  0.13108410  0.07318366  0.30981565  1
  O  O385  1  0.12249643  0.08284109  0.80773171  1
  O  O386  1  0.11971944  0.58452922  0.30769356  1
  O  O387  1  0.13049177  0.58691753  0.80440974  1
  O  O388  1  0.46072072  0.08447412  0.30659887  1
  O  O389  1  0.45582327  0.08353667  0.80805914  1
  O  O390  1  0.46027069  0.58214778  0.30595841  1
  O  O391  1  0.45601988  0.58021431  0.80362868  1
  O  O392  1  0.78778632  0.08508481  0.30425036  1
  O  O393  1  0.79188260  0.08227768  0.80851684  1
  O  O394  1  0.78979099  0.58042409  0.30272085  1
  O  O395  1  0.79129583  0.58193671  0.80366889  1
  O  O396  1  0.28658942  0.34526325  0.31018309  1
  O  O397  1  0.28822925  0.33320576  0.80290122  1
  O  O398  1  0.28862698  0.83270615  0.29979034  1
  O  O399  1  0.28919965  0.83079893  0.80540966  1
  O  O400  1  0.62138563  0.33873232  0.30217093  1
  O  O401  1  0.62234980  0.33609146  0.80436600  1
  O  O402  1  0.62360789  0.83222597  0.29983674  1
  O  O403  1  0.62355916  0.83216818  0.79958574  1
  O  O404  1  0.95440896  0.33635962  0.30473273  1
  O  O405  1  0.95759699  0.33334907  0.79945839  1
  O  O406  1  0.94980219  0.83026502  0.30493470  1
  O  O407  1  0.96039059  0.83226879  0.80508238  1
  O  O408  1  0.11978516  0.42068833  0.30670125  1
  O  O409  1  0.12471145  0.41894158  0.80494455  1
  O  O410  1  0.12201115  0.91303874  0.31112065  1
  O  O411  1  0.12307462  0.90960267  0.80450222  1
  O  O412  1  0.46105164  0.41772537  0.30405460  1
  O  O413  1  0.45436398  0.41669216  0.80321846  1
  O  O414  1  0.45964929  0.91633221  0.30791718  1
  O  O415  1  0.45414635  0.92175584  0.80910451  1
  O  O416  1  0.79029201  0.41789281  0.30272279  1
  O  O417  1  0.78938674  0.41846365  0.80506215  1
  O  O418  1  0.78789209  0.91781070  0.30627835  1
  O  O419  1  0.79377303  0.91419351  0.80717010  1
  O  O420  1  0.30041008  0.16066731  0.30770110  1
  O  O421  1  0.28504374  0.16731227  0.80525518  1
  O  O422  1  0.28836393  0.66582025  0.30100483  1
  O  O423  1  0.29167045  0.66595237  0.80386325  1
  O  O424  1  0.62238899  0.16360007  0.30230750  1
  O  O425  1  0.62089601  0.16765477  0.79944890  1
  O  O426  1  0.62334755  0.66522220  0.30655626  1
  O  O427  1  0.62404374  0.66275120  0.80637659  1
  O  O428  1  0.94872885  0.17547561  0.30922862  1
  O  O429  1  0.95761339  0.16529674  0.80117900  1
  O  O430  1  0.95098604  0.66547276  0.30361977  1
  O  O431  1  0.96117410  0.66865644  0.80409059  1
  F  F432  1  0.04961877  -0.01194117  0.19953212  1
  F  F433  1  0.03882418  -0.00058525  0.70167004  1
  F  F434  1  0.04483375  0.50123286  0.20344241  1
  F  F435  1  0.04731521  0.49631564  0.69869800  1
  F  F436  1  0.38153947  -0.00356126  0.20461509  1
  F  F437  1  0.38051527  0.00071576  0.70165644  1
  F  F438  1  0.37749243  0.50485533  0.20326095  1
  F  F439  1  0.37832007  0.49945231  0.70091303  1
  F  F440  1  0.71023084  -0.00160657  0.20259294  1
  F  F441  1  0.71521541  -0.00034097  0.70618993  1
  F  F442  1  0.71230642  0.50209940  0.19902536  1
  F  F443  1  0.71055105  0.50020279  0.70068405  1
  F  F444  1  0.20163958  0.26249380  0.19158228  1
  F  F445  1  0.21018366  0.25096298  0.70175287  1
  F  F446  1  0.20898087  0.74928852  0.20125353  1
  F  F447  1  0.21377331  0.74773227  0.70135800  1
  F  F448  1  0.54021212  0.24805701  0.19613606  1
  F  F449  1  0.54401381  0.25286431  0.70102809  1
  F  F450  1  0.54341111  0.74852936  0.20180603  1
  F  F451  1  0.54791904  0.74172795  0.69900524  1
  F  F452  1  0.87857739  0.25107557  0.20114009  1
  F  F453  1  0.87584055  0.24839733  0.69983697  1
  F  F454  1  0.87599419  0.75009175  0.20092116  1
  F  F455  1  0.88162962  0.75629284  0.69826378  1
  F  F456  1  0.29015031  -0.00336125  0.29784825  1
  F  F457  1  0.29111875  -0.00120999  0.79695004  1
  F  F458  1  0.28875704  0.50478683  0.30055439  1
  F  F459  1  0.28798769  0.50034911  0.79626767  1
  F  F460  1  0.62300961  0.00092109  0.29729140  1
  F  F461  1  0.62160056  -0.00081017  0.79957610  1
  F  F462  1  0.62199450  0.50047734  0.29301977  1
  F  F463  1  0.62104922  0.50032380  0.79646673  1
  F  F464  1  0.94640886  -0.01194163  0.30205014  1
  F  F465  1  0.95646118  -0.00318018  0.80051484  1
  F  F466  1  0.95199234  0.49962966  0.29612058  1
  F  F467  1  0.95569992  0.50137590  0.79810494  1
  F  F468  1  0.11595132  0.26484410  0.30493463  1
  F  F469  1  0.12230655  0.25024032  0.79691341  1
  F  F470  1  0.11874388  0.74589459  0.30071235  1
  F  F471  1  0.12264045  0.75010961  0.79636828  1
  F  F472  1  0.46996210  0.25130731  0.30107837  1
  F  F473  1  0.45355229  0.25452824  0.79891362  1
  F  F474  1  0.45612694  0.74849082  0.29890309  1
  F  F475  1  0.45246453  0.73772235  0.80282878  1
  F  F476  1  0.79029457  0.25084638  0.29898730  1
  F  F477  1  0.78800399  0.25220321  0.79719203  1
  F  F478  1  0.78913987  0.75083144  0.29811627  1
  F  F479  1  0.78745811  0.75186612  0.79935356  1
