# generated using pymatgen
data_K24Na3Li5Mg64Fe17Si79(O5F)48
_symmetry_space_group_name_H-M   'P 1'
_cell_length_a   16.10011776
_cell_length_b   18.59807886
_cell_length_c   20.55153099
_cell_angle_alpha   89.99305212
_cell_angle_beta   100.01612665
_cell_angle_gamma   90.01840522
_symmetry_Int_Tables_number   1
_chemical_formula_structural   K24Na3Li5Mg64Fe17Si79(O5F)48
_chemical_formula_sum   'K24 Na3 Li5 Mg64 Fe17 Si79 O240 F48'
_cell_volume   6059.97987384
_cell_formula_units_Z   1
loop_
 _symmetry_equiv_pos_site_id
 _symmetry_equiv_pos_as_xyz
  1  'x, y, z'
loop_
 _atom_site_type_symbol
 _atom_site_label
 _atom_site_symmetry_multiplicity
 _atom_site_fract_x
 _atom_site_fract_y
 _atom_site_fract_z
 _atom_site_occupancy
  K  K0  1  0.00759822  0.00066996  0.00783682  1
  K  K1  1  0.00167350  -0.00802579  0.49453765  1
  K  K2  1  -0.00461070  0.50295562  0.00516391  1
  K  K3  1  -0.00220798  0.49353288  0.48801294  1
  K  K4  1  0.34344873  0.00563528  0.01232656  1
  K  K5  1  0.33360816  0.00510431  0.48758556  1
  K  K6  1  0.34398381  0.49713394  0.01579736  1
  K  K7  1  0.34169997  0.49495108  0.49044828  1
  K  K8  1  0.66022465  0.00948630  0.00987233  1
  K  K9  1  0.65120558  -0.00547970  0.48101739  1
  K  K10  1  0.66315956  0.49565877  0.00745623  1
  K  K11  1  0.65967424  0.49213630  0.48496897  1
  K  K12  1  0.17531527  0.25435883  0.00785259  1
  K  K13  1  0.17280137  0.25101100  0.49567213  1
  K  K14  1  0.17721722  0.74315061  0.00881477  1
  K  K15  1  0.16032933  0.75285596  0.48973848  1
  K  K16  1  0.49493362  0.25184093  0.00581718  1
  K  K17  1  0.50598438  0.25384175  0.48749066  1
  K  K18  1  0.50217136  0.75269303  0.01600228  1
  K  K19  1  0.49919289  0.74726137  0.48006035  1
  K  K20  1  0.83171745  0.25132422  0.00999733  1
  K  K21  1  0.82228798  0.25653225  0.48142718  1
  K  K22  1  0.82632363  0.74945967  0.00637260  1
  K  K23  1  0.82799441  0.75471477  0.48662326  1
  Na  Na24  1  0.16755833  -0.00110614  0.24473943  1
  Na  Na25  1  0.00033035  0.57991223  0.24595936  1
  Na  Na26  1  0.83257280  0.17597664  0.25622307  1
  Li  Li27  1  0.49332729  0.50141964  0.24644514  1
  Li  Li28  1  0.49797127  0.00201344  0.25258780  1
  Li  Li29  1  0.82924180  0.33343623  0.25610336  1
  Li  Li30  1  0.33529305  0.58115252  0.23828346  1
  Li  Li31  1  0.33890204  0.08629469  0.75868408  1
  Mg  Mg32  1  0.33344767  0.24674874  0.75160398  1
  Mg  Mg33  1  0.66878731  0.25287574  0.25845568  1
  Mg  Mg34  1  0.00145740  0.74981332  0.24466433  1
  Mg  Mg35  1  0.66765600  0.75077382  0.74737058  1
  Mg  Mg36  1  0.16929790  0.00158059  0.74705121  1
  Mg  Mg37  1  0.66423654  0.24945970  0.75448077  1
  Mg  Mg38  1  0.66680388  0.75083426  0.25018455  1
  Mg  Mg39  1  0.33199510  0.75143579  0.74824982  1
  Mg  Mg40  1  0.83215349  0.49986628  0.75241102  1
  Mg  Mg41  1  0.49743481  0.00252909  0.75346217  1
  Mg  Mg42  1  0.33388932  0.74712555  0.24626332  1
  Mg  Mg43  1  0.49873446  0.49845989  0.74856674  1
  Mg  Mg44  1  -0.00276077  0.25085812  0.25313141  1
  Mg  Mg45  1  0.33417046  0.25089940  0.25066923  1
  Mg  Mg46  1  0.83384878  0.00033664  0.74969871  1
  Mg  Mg47  1  0.00082219  0.74919978  0.74742253  1
  Mg  Mg48  1  0.83354696  0.00152976  0.25083228  1
  Mg  Mg49  1  -0.00184869  0.25051779  0.75334025  1
  Mg  Mg50  1  0.83357788  0.49698403  0.25426452  1
  Mg  Mg51  1  0.16620966  0.49803106  0.75016901  1
  Mg  Mg52  1  0.16833581  0.50054006  0.24622822  1
  Mg  Mg53  1  0.33461878  0.41987298  0.24681259  1
  Mg  Mg54  1  0.49923141  0.66673584  0.74749564  1
  Mg  Mg55  1  0.00191145  0.91484823  0.74532819  1
  Mg  Mg56  1  0.33514874  0.41385496  0.74960953  1
  Mg  Mg57  1  0.16580992  0.83217858  0.24645975  1
  Mg  Mg58  1  0.33390045  0.08158462  0.24865306  1
  Mg  Mg59  1  0.66603734  0.41622952  0.25391045  1
  Mg  Mg60  1  0.00112842  0.91675247  0.24446558  1
  Mg  Mg61  1  -0.00112336  0.41452083  0.75343404  1
  Mg  Mg62  1  0.66383198  0.41568868  0.75093446  1
  Mg  Mg63  1  0.33450036  0.91946582  0.74922333  1
  Mg  Mg64  1  0.50020028  0.33608170  0.75072829  1
  Mg  Mg65  1  0.50066079  0.16554084  0.25402133  1
  Mg  Mg66  1  0.83301490  0.33368788  0.75328913  1
  Mg  Mg67  1  0.50047968  0.83561601  0.75011237  1
  Mg  Mg68  1  0.83216891  0.16524118  0.75382202  1
  Mg  Mg69  1  0.66531520  0.91641155  0.25274859  1
  Mg  Mg70  1  0.16634646  0.16622475  0.25091409  1
  Mg  Mg71  1  0.66496470  0.08490186  0.75493425  1
  Mg  Mg72  1  0.83441277  0.66553585  0.24987297  1
  Mg  Mg73  1  0.16572004  0.33538016  0.24854888  1
  Mg  Mg74  1  0.66783571  0.91659470  0.74965342  1
  Mg  Mg75  1  0.16747117  0.66356531  0.24535216  1
  Mg  Mg76  1  0.33538339  0.91705101  0.24942979  1
  Mg  Mg77  1  0.83639183  0.66608859  0.75015263  1
  Mg  Mg78  1  0.66561377  0.58488662  0.74702418  1
  Mg  Mg79  1  0.33395535  0.58364260  0.74894377  1
  Mg  Mg80  1  0.00025285  0.08450451  0.74947521  1
  Mg  Mg81  1  0.50096554  0.83546210  0.24966056  1
  Mg  Mg82  1  0.66571010  0.08342610  0.25622569  1
  Mg  Mg83  1  0.49992183  0.33688419  0.25169645  1
  Mg  Mg84  1  0.83693307  0.83458595  0.74786138  1
  Mg  Mg85  1  -0.00100180  0.08367600  0.25132080  1
  Mg  Mg86  1  0.83304159  0.83519933  0.24976733  1
  Mg  Mg87  1  -0.00014928  0.58393902  0.74979844  1
  Mg  Mg88  1  0.16519495  0.66453329  0.74638766  1
  Mg  Mg89  1  0.49920688  0.16490230  0.75481533  1
  Mg  Mg90  1  0.16488646  0.83468157  0.74489517  1
  Mg  Mg91  1  0.49689464  0.66282376  0.24762556  1
  Mg  Mg92  1  0.66531453  0.58167805  0.25166050  1
  Mg  Mg93  1  -0.00289694  0.41410134  0.25450793  1
  Mg  Mg94  1  0.16704121  0.33283816  0.75219983  1
  Mg  Mg95  1  0.16868073  0.16521791  0.75047889  1
  Fe  Fe96  1  0.64245907  0.83174312  0.39180680  1
  Fe  Fe97  1  0.36134873  0.66503095  0.10572114  1
  Fe  Fe98  1  0.64601124  0.16978593  0.89529014  1
  Fe  Fe99  1  0.47183559  0.08380536  0.89467124  1
  Fe  Fe100  1  0.35810174  0.33654828  0.11076824  1
  Fe  Fe101  1  0.18447384  0.58303011  0.10462508  1
  Fe  Fe102  1  0.02412656  0.82864758  0.60471899  1
  Fe  Fe103  1  0.69655136  0.83389669  0.11066500  1
  Fe  Fe104  1  0.47325566  0.41792672  0.89099802  1
  Fe  Fe105  1  0.02294710  0.83230007  0.10501102  1
  Fe  Fe106  1  0.19420946  0.91578751  0.10666132  1
  Fe  Fe107  1  0.97263824  0.33366435  0.89368578  1
  Fe  Fe108  1  0.46982441  0.08290552  0.39028344  1
  Fe  Fe109  1  0.52436946  0.42008253  0.60746878  1
  Fe  Fe110  1  0.81841448  0.41668573  0.39357554  1
  Fe  Fe111  1  0.64389817  0.33445860  0.39470957  1
  Fe  Fe112  1  0.97861275  0.66616210  0.88949803  1
  Si  Si113  1  0.36561485  0.83854324  0.11013561  1
  Si  Si114  1  0.14616361  0.57798553  0.88363117  1
  Si  Si115  1  0.30625271  0.83340997  0.88203016  1
  Si  Si116  1  0.35929291  0.83709702  0.61402018  1
  Si  Si117  1  0.02554276  0.33519227  0.61559106  1
  Si  Si118  1  0.80291407  0.58682724  0.88546683  1
  Si  Si119  1  0.46952621  0.41781064  0.38652829  1
  Si  Si120  1  0.98187342  0.16390407  0.38946971  1
  Si  Si121  1  0.52590203  0.08594901  0.11947747  1
  Si  Si122  1  0.19317078  0.41342696  0.61434749  1
  Si  Si123  1  0.46980297  0.58279120  0.38161716  1
  Si  Si124  1  0.69484714  0.33233036  0.11895614  1
  Si  Si125  1  0.52264178  0.59238128  0.60945100  1
  Si  Si126  1  0.64117949  0.66022874  0.38802370  1
  Si  Si127  1  0.68860209  0.16938116  0.12034134  1
  Si  Si128  1  0.97832613  0.83596909  0.38403661  1
  Si  Si129  1  0.30454711  0.66508152  0.38444560  1
  Si  Si130  1  0.46670900  0.91091554  0.39054899  1
  Si  Si131  1  0.85891238  0.41497191  0.11881061  1
  Si  Si132  1  0.81043344  0.07706306  0.88881976  1
  Si  Si133  1  0.47800192  0.91127814  0.88790448  1
  Si  Si134  1  0.35876874  0.16366057  0.61630082  1
  Si  Si135  1  0.85549969  0.08587125  0.11861612  1
  Si  Si136  1  0.18806292  0.08970023  0.11290503  1
  Si  Si137  1  0.69500733  0.33087289  0.61600270  1
  Si  Si138  1  0.64509725  0.83182581  0.88324471  1
  Si  Si139  1  0.52680690  0.91524347  0.61503867  1
  Si  Si140  1  0.85674527  0.92169664  0.61051424  1
  Si  Si141  1  0.30526747  0.66791859  0.88150275  1
  Si  Si142  1  0.64466187  0.33614083  0.88953550  1
  Si  Si143  1  0.30225482  0.33185239  0.88632188  1
  Si  Si144  1  0.29978155  0.16692400  0.88702026  1
  Si  Si145  1  0.30264781  0.82756041  0.38540731  1
  Si  Si146  1  0.53217375  0.41555801  0.11433227  1
  Si  Si147  1  0.97637885  0.67266055  0.38323154  1
  Si  Si148  1  0.69657577  0.66295377  0.11326871  1
  Si  Si149  1  0.01652499  0.66780159  0.10875444  1
  Si  Si150  1  0.98670760  0.32823742  0.39330099  1
  Si  Si151  1  0.14238869  0.41918759  0.38669107  1
  Si  Si152  1  0.97558462  0.16131846  0.88824170  1
  Si  Si153  1  0.53434021  0.58152989  0.11322185  1
  Si  Si154  1  0.30249326  0.17167639  0.38885959  1
  Si  Si155  1  0.85449606  0.57722997  0.61342309  1
  Si  Si156  1  0.35599387  0.32807146  0.61124131  1
  Si  Si157  1  0.64680908  0.16092726  0.39492961  1
  Si  Si158  1  0.68979689  0.16555103  0.61705185  1
  Si  Si159  1  0.02460481  0.16919809  0.61446710  1
  Si  Si160  1  0.81401568  0.08207655  0.38831414  1
  Si  Si161  1  0.02282080  0.65631336  0.60830261  1
  Si  Si162  1  0.98164674  0.83615963  0.88412520  1
  Si  Si163  1  0.85700031  0.57746871  0.11673018  1
  Si  Si164  1  0.85821440  0.41305582  0.61672239  1
  Si  Si165  1  0.14175086  0.41722347  0.88544078  1
  Si  Si166  1  0.69448272  0.66931886  0.61261539  1
  Si  Si167  1  0.63906010  0.66845104  0.88149769  1
  Si  Si168  1  0.19414688  0.57944140  0.61228989  1
  Si  Si169  1  0.13886334  0.08323164  0.88319789  1
  Si  Si170  1  0.81489380  0.91858319  0.38958719  1
  Si  Si171  1  0.47491944  0.58965813  0.88450388  1
  Si  Si172  1  0.35628516  0.16666829  0.11292183  1
  Si  Si173  1  0.14108310  0.58371642  0.38441047  1
  Si  Si174  1  0.85713156  0.08771392  0.61496480  1
  Si  Si175  1  0.35497826  0.67180486  0.61267980  1
  Si  Si176  1  0.14406875  0.92070797  0.88134818  1
  Si  Si177  1  0.19475983  0.91955575  0.60952329  1
  Si  Si178  1  0.14072375  0.08218103  0.38621768  1
  Si  Si179  1  0.80176703  0.42151819  0.88752909  1
  Si  Si180  1  0.86130970  0.92365030  0.11081756  1
  Si  Si181  1  0.14181809  0.91591147  0.38377421  1
  Si  Si182  1  0.52501700  0.08064306  0.61593159  1
  Si  Si183  1  0.53196535  0.92101681  0.11540289  1
  Si  Si184  1  0.02064096  0.16794046  0.11657356  1
  Si  Si185  1  0.18175151  0.41385654  0.10974687  1
  Si  Si186  1  0.81266013  0.91271150  0.88372887  1
  Si  Si187  1  0.81421888  0.58703613  0.38860756  1
  Si  Si188  1  0.69391925  0.83559463  0.61349445  1
  Si  Si189  1  0.18975044  0.08532772  0.61417668  1
  Si  Si190  1  0.02060006  0.33089716  0.11788182  1
  Si  Si191  1  0.30353566  0.33693846  0.38474399  1
  O  O192  1  0.27001261  0.12035907  0.08212961  1
  O  O193  1  0.26961841  0.12145752  0.58581288  1
  O  O194  1  0.27212782  0.61070670  0.06203572  1
  O  O195  1  0.26977094  0.62392950  0.58417098  1
  O  O196  1  0.60419609  0.12245301  0.08750202  1
  O  O197  1  0.60387290  0.11937565  0.58782517  1
  O  O198  1  0.62075391  0.60620659  0.08518164  1
  O  O199  1  0.60190028  0.63471776  0.58339444  1
  O  O200  1  0.93607358  0.11944532  0.08710694  1
  O  O201  1  0.93611334  0.12604562  0.58620617  1
  O  O202  1  0.94169137  0.60442140  0.09017867  1
  O  O203  1  0.93713878  0.60651362  0.58428514  1
  O  O204  1  0.10246125  0.35548110  0.08644682  1
  O  O205  1  0.10156110  0.37570383  0.58542818  1
  O  O206  1  0.11254006  0.85390349  0.06303926  1
  O  O207  1  0.11739838  0.87076524  0.57343575  1
  O  O208  1  0.45095567  0.37174590  0.07629993  1
  O  O209  1  0.42458109  0.36794535  0.57552697  1
  O  O210  1  0.45184506  0.86948299  0.08489442  1
  O  O211  1  0.44209174  0.86782233  0.58619314  1
  O  O212  1  0.77685105  0.36434783  0.08918787  1
  O  O213  1  0.78328697  0.35573765  0.59109806  1
  O  O214  1  0.78790841  0.86961757  0.07486564  1
  O  O215  1  0.76596608  0.88061228  0.58411558  1
  O  O216  1  0.25877640  0.38582392  0.07433623  1
  O  O217  1  0.26253634  0.36626186  0.58377763  1
  O  O218  1  0.29391842  0.89487931  0.07560793  1
  O  O219  1  0.28134757  0.89053115  0.58406795  1
  O  O220  1  0.61516544  0.38281246  0.08528939  1
  O  O221  1  0.62061306  0.38193847  0.57982516  1
  O  O222  1  0.60755783  0.89584659  0.07730676  1
  O  O223  1  0.60358876  0.87508807  0.58574295  1
  O  O224  1  0.93889204  0.38150809  0.08762316  1
  O  O225  1  0.94119954  0.38289025  0.58816784  1
  O  O226  1  0.94610850  0.90822307  0.08078237  1
  O  O227  1  0.92823597  0.88640164  0.57474883  1
  O  O228  1  0.10322285  0.14152399  0.08550471  1
  O  O229  1  0.10237025  0.13111415  0.58411930  1
  O  O230  1  0.09227094  0.64377687  0.07061527  1
  O  O231  1  0.10197232  0.61397581  0.58147739  1
  O  O232  1  0.43802509  0.12784275  0.08779889  1
  O  O233  1  0.43551682  0.12177916  0.58721021  1
  O  O234  1  0.45785603  0.62935474  0.07384953  1
  O  O235  1  0.43723854  0.64266396  0.58366659  1
  O  O236  1  0.77134623  0.13591256  0.09237709  1
  O  O237  1  0.77014197  0.13175089  0.58713097  1
  O  O238  1  0.77832381  0.62967637  0.08344842  1
  O  O239  1  0.77023337  0.62610707  0.58431576  1
  O  O240  1  0.06289262  0.11236084  0.42213071  1
  O  O241  1  0.05244760  0.10255116  0.91125357  1
  O  O242  1  0.06349087  0.62639596  0.41274717  1
  O  O243  1  0.06493345  0.59804009  0.91576177  1
  O  O244  1  0.38945855  0.13827017  0.42764224  1
  O  O245  1  0.36935785  0.11111014  0.92238811  1
  O  O246  1  0.39729397  0.62861713  0.41451384  1
  O  O247  1  0.39153669  0.62388385  0.90989554  1
  O  O248  1  0.73877214  0.11835714  0.42152742  1
  O  O249  1  0.73346046  0.10112627  0.92371079  1
  O  O250  1  0.73062653  0.61763817  0.41706770  1
  O  O251  1  0.71359434  0.61124113  0.90984657  1
  O  O252  1  0.23544460  0.38572117  0.41741093  1
  O  O253  1  0.21275921  0.35508707  0.90959458  1
  O  O254  1  0.22702832  0.87020462  0.41585575  1
  O  O255  1  0.22609078  0.86989429  0.90959852  1
  O  O256  1  0.55472860  0.38217950  0.42650633  1
  O  O257  1  0.56141143  0.35391327  0.92138624  1
  O  O258  1  0.55392737  0.87257059  0.42751039  1
  O  O259  1  0.56098444  0.85734640  0.91138943  1
  O  O260  1  0.91732648  0.36372530  0.43123981  1
  O  O261  1  0.87475643  0.36765938  0.92286732  1
  O  O262  1  0.90288245  0.87265883  0.41715796  1
  O  O263  1  0.89481140  0.86243255  0.91095421  1
  O  O264  1  0.07703198  0.37121076  0.42229219  1
  O  O265  1  0.05996390  0.40123179  0.91865706  1
  O  O266  1  0.06393217  0.88131461  0.41684308  1
  O  O267  1  0.05765356  0.89605270  0.90733901  1
  O  O268  1  0.39352145  0.37380610  0.41625954  1
  O  O269  1  0.37479898  0.38620663  0.92024413  1
  O  O270  1  0.39105231  0.86491182  0.41962711  1
  O  O271  1  0.39516656  0.87320804  0.91215559  1
  O  O272  1  0.73825963  0.38145428  0.43989363  1
  O  O273  1  0.71171107  0.40397898  0.91121464  1
  O  O274  1  0.74306906  0.88343518  0.42576881  1
  O  O275  1  0.72884609  0.88106776  0.91063038  1
  O  O276  1  0.22472705  0.12929193  0.41795474  1
  O  O277  1  0.20951163  0.14349944  0.91127275  1
  O  O278  1  0.23198398  0.62124859  0.41846692  1
  O  O279  1  0.22502225  0.63360563  0.90870626  1
  O  O280  1  0.57818745  0.11579231  0.42802254  1
  O  O281  1  0.55418680  0.14743791  0.93395662  1
  O  O282  1  0.56338370  0.61658538  0.41541517  1
  O  O283  1  0.55225355  0.64825588  0.90824074  1
  O  O284  1  0.89969094  0.13021393  0.41695121  1
  O  O285  1  0.89405122  0.12693783  0.91557160  1
  O  O286  1  0.89572070  0.64241212  0.41492522  1
  O  O287  1  0.87630294  0.64123642  0.91807690  1
  O  O288  1  0.16325148  0.01226423  0.08006512  1
  O  O289  1  0.17859236  0.00355583  0.58297684  1
  O  O290  1  0.14695647  0.48968194  0.07760187  1
  O  O291  1  0.19374867  0.49607676  0.58492000  1
  O  O292  1  0.51103921  0.00461746  0.08885482  1
  O  O293  1  0.51665252  -0.00235140  0.58599242  1
  O  O294  1  0.52164312  0.49829119  0.08545487  1
  O  O295  1  0.50713526  0.51565124  0.57388829  1
  O  O296  1  0.83174841  0.00690885  0.08535449  1
  O  O297  1  0.84461391  0.00611415  0.58543264  1
  O  O298  1  0.83848340  0.49555567  0.08519098  1
  O  O299  1  0.83578929  0.49433792  0.58652081  1
  O  O300  1  -0.00310520  0.24946539  0.08832411  1
  O  O301  1  0.01543243  0.25246365  0.58606113  1
  O  O302  1  -0.02558325  0.74256119  0.07715179  1
  O  O303  1  0.00925176  0.73317707  0.57180664  1
  O  O304  1  0.34317065  0.24305854  0.07521000  1
  O  O305  1  0.34588630  0.24440085  0.58326841  1
  O  O306  1  0.34735842  0.76087828  0.07389599  1
  O  O307  1  0.33693392  0.75484488  0.58545547  1
  O  O308  1  0.67798940  0.25055400  0.08743782  1
  O  O309  1  0.67586674  0.24758288  0.58918668  1
  O  O310  1  0.67422250  0.73955343  0.07661942  1
  O  O311  1  0.69316461  0.75275753  0.58535155  1
  O  O312  1  0.15690998  -0.00140090  0.41362631  1
  O  O313  1  0.16790855  0.00211663  0.90985198  1
  O  O314  1  0.14105088  0.50177191  0.41668278  1
  O  O315  1  0.18169733  0.49718650  0.90686415  1
  O  O316  1  0.46400280  -0.01024616  0.42455557  1
  O  O317  1  0.49784502  -0.01325312  0.92446013  1
  O  O318  1  0.46539833  0.50184753  0.41382511  1
  O  O319  1  0.50046806  0.51393695  0.91967789  1
  O  O320  1  0.83492611  0.00083628  0.42019265  1
  O  O321  1  0.83581908  -0.00666425  0.91236400  1
  O  O322  1  0.84139287  0.51236285  0.42593593  1
  O  O323  1  0.82510502  0.50481530  0.91265505  1
  O  O324  1  0.29724783  0.25577443  0.41585702  1
  O  O325  1  0.32081892  0.24953109  0.91452909  1
  O  O326  1  0.30527116  0.74619209  0.41871954  1
  O  O327  1  0.31550123  0.75054876  0.90913744  1
  O  O328  1  0.65522673  0.23980879  0.42945187  1
  O  O329  1  0.68992595  0.26248012  0.91930867  1
  O  O330  1  0.65047188  0.73700818  0.42636743  1
  O  O331  1  0.66814919  0.74931818  0.90920672  1
  O  O332  1  1.00277703  0.24417904  0.42229046  1
  O  O333  1  1.00097965  0.23808833  0.92248978  1
  O  O334  1  0.99454417  0.75427860  0.41512713  1
  O  O335  1  1.01281277  0.76003725  0.91608135  1
  O  O336  1  0.21199178  0.09418634  0.19263301  1
  O  O337  1  0.20313040  0.08466669  0.69353972  1
  O  O338  1  0.20703008  0.58226162  0.19528221  1
  O  O339  1  0.21062108  0.58182471  0.69273606  1
  O  O340  1  0.54663672  0.08769765  0.19874890  1
  O  O341  1  0.54441707  0.07997725  0.69584490  1
  O  O342  1  0.54863344  0.58709912  0.19298120  1
  O  O343  1  0.54152137  0.58862372  0.69067933  1
  O  O344  1  0.87886732  0.08116078  0.19761088  1
  O  O345  1  0.87670865  0.08535658  0.69573722  1
  O  O346  1  0.86533433  0.57963494  0.19578322  1
  O  O347  1  0.87312280  0.58074091  0.69385703  1
  O  O348  1  0.04219872  0.33165524  0.19796012  1
  O  O349  1  0.04462293  0.33307070  0.69576615  1
  O  O350  1  0.04426998  0.83373931  0.19763510  1
  O  O351  1  0.04452005  0.83179327  0.69685251  1
  O  O352  1  0.37765563  0.33267744  0.20201997  1
  O  O353  1  0.37300429  0.33096821  0.69206328  1
  O  O354  1  0.38014464  0.83422530  0.19161429  1
  O  O355  1  0.37717138  0.83387976  0.69456582  1
  O  O356  1  0.70762100  0.33159155  0.19791465  1
  O  O357  1  0.71053408  0.33236289  0.69729227  1
  O  O358  1  0.71434821  0.83425719  0.20203437  1
  O  O359  1  0.71138683  0.83456604  0.69413356  1
  O  O360  1  0.20670001  0.41348991  0.19104290  1
  O  O361  1  0.20967492  0.41517486  0.69480365  1
  O  O362  1  0.21770809  0.90648999  0.19663789  1
  O  O363  1  0.21020644  0.91707387  0.69045298  1
  O  O364  1  0.54650412  0.41301152  0.19389520  1
  O  O365  1  0.54528750  0.41817560  0.69925386  1
  O  O366  1  0.54816190  0.91664102  0.19525871  1
  O  O367  1  0.54543246  0.91516221  0.69550252  1
  O  O368  1  0.87960945  0.41958143  0.19772435  1
  O  O369  1  0.87633463  0.41707597  0.69713393  1
  O  O370  1  0.87468546  0.91879689  0.19250423  1
  O  O371  1  0.87615006  0.91828230  0.69176788  1
  O  O372  1  0.04158884  0.16682656  0.19665259  1
  O  O373  1  0.04191752  0.16786367  0.69492907  1
  O  O374  1  0.04580937  0.67313235  0.18861416  1
  O  O375  1  0.04431540  0.66170551  0.68921126  1
  O  O376  1  0.37342246  0.16897988  0.19355213  1
  O  O377  1  0.37730440  0.16797714  0.69569420  1
  O  O378  1  0.37899186  0.66862291  0.19594117  1
  O  O379  1  0.37442827  0.66875812  0.69325402  1
  O  O380  1  0.69967802  0.16880477  0.19941772  1
  O  O381  1  0.71083859  0.16401542  0.69747040  1
  O  O382  1  0.71223994  0.66678605  0.19429538  1
  O  O383  1  0.71132178  0.66803555  0.69335084  1
  O  O384  1  0.11994428  0.08871308  0.30747809  1
  O  O385  1  0.12118225  0.08293418  0.80228511  1
  O  O386  1  0.13097337  0.58239681  0.30601072  1
  O  O387  1  0.12518363  0.58206454  0.80174436  1
  O  O388  1  0.45135799  0.08726938  0.30057009  1
  O  O389  1  0.45834253  0.08235860  0.80296532  1
  O  O390  1  0.45609434  0.58519644  0.30335056  1
  O  O391  1  0.45625025  0.58660063  0.80264159  1
  O  O392  1  0.78991942  0.07742202  0.30953764  1
  O  O393  1  0.79153465  0.08026986  0.80704155  1
  O  O394  1  0.79311642  0.58564010  0.30811828  1
  O  O395  1  0.78738737  0.58616554  0.80379970  1
  O  O396  1  0.28536566  0.33401357  0.30513418  1
  O  O397  1  0.28850647  0.33254709  0.80453080  1
  O  O398  1  0.28844131  0.82882946  0.30588368  1
  O  O399  1  0.28889698  0.83418245  0.80093566  1
  O  O400  1  0.61907644  0.33518442  0.30378612  1
  O  O401  1  0.62411849  0.33444341  0.80738979  1
  O  O402  1  0.62185908  0.83234805  0.30129516  1
  O  O403  1  0.62556166  0.83289722  0.80231074  1
  O  O404  1  0.96824847  0.33047475  0.31390245  1
  O  O405  1  0.95406217  0.33246118  0.80104014  1
  O  O406  1  0.95669285  0.83559734  0.30436530  1
  O  O407  1  0.95808577  0.83519342  0.80259226  1
  O  O408  1  0.12346366  0.41556593  0.30721223  1
  O  O409  1  0.12209205  0.41581392  0.80352926  1
  O  O410  1  0.11954583  0.91086383  0.30541950  1
  O  O411  1  0.12599820  0.91878172  0.80050193  1
  O  O412  1  0.45338220  0.41474300  0.30726154  1
  O  O413  1  0.45237481  0.41830976  0.79856122  1
  O  O414  1  0.45272915  0.90901608  0.31033562  1
  O  O415  1  0.45866971  0.91374897  0.80636820  1
  O  O416  1  0.78715409  0.41890778  0.30429224  1
  O  O417  1  0.78870447  0.41850718  0.80587632  1
  O  O418  1  0.79529577  0.91775528  0.30920467  1
  O  O419  1  0.79201994  0.91464418  0.80260699  1
  O  O420  1  0.28768778  0.16872251  0.30843680  1
  O  O421  1  0.28528231  0.16880680  0.80628904  1
  O  O422  1  0.28542326  0.67035110  0.30592805  1
  O  O423  1  0.28901645  0.66723215  0.80032817  1
  O  O424  1  0.62600525  0.16414566  0.31398480  1
  O  O425  1  0.62204214  0.16630607  0.80191101  1
  O  O426  1  0.62497121  0.66517782  0.30752413  1
  O  O427  1  0.62242576  0.66888160  0.80043562  1
  O  O428  1  0.96894618  0.16599945  0.31057533  1
  O  O429  1  0.95649108  0.16427751  0.80652092  1
  O  O430  1  0.95519323  0.67455985  0.30430247  1
  O  O431  1  0.95654654  0.66704530  0.79616117  1
  F  F432  1  0.03315146  0.00338588  0.19870518  1
  F  F433  1  0.04458263  0.00159630  0.69867313  1
  F  F434  1  0.04890325  0.48598789  0.20146156  1
  F  F435  1  0.04430831  0.49794400  0.70141206  1
  F  F436  1  0.37390693  -0.00063171  0.19939538  1
  F  F437  1  0.38385775  -0.00894860  0.69740416  1
  F  F438  1  0.37619877  0.49520361  0.19505703  1
  F  F439  1  0.37567335  0.50307017  0.69779404  1
  F  F440  1  0.71223105  0.00136651  0.20493808  1
  F  F441  1  0.71238683  0.00047122  0.70259975  1
  F  F442  1  0.71177113  0.50061496  0.20341817  1
  F  F443  1  0.71197136  0.50093392  0.70192389  1
  F  F444  1  0.21109389  0.25055027  0.20309543  1
  F  F445  1  0.20994122  0.25011606  0.70114930  1
  F  F446  1  0.21282635  0.74846393  0.20006639  1
  F  F447  1  0.21215210  0.74914033  0.69749316  1
  F  F448  1  0.54430216  0.24818932  0.20743972  1
  F  F449  1  0.54378141  0.25073667  0.70301888  1
  F  F450  1  0.54611095  0.74806975  0.20203713  1
  F  F451  1  0.54490287  0.75208384  0.69966983  1
  F  F452  1  0.88523561  0.25938316  0.20127585  1
  F  F453  1  0.87732036  0.24685261  0.70272354  1
  F  F454  1  0.87667095  0.75095633  0.20204995  1
  F  F455  1  0.87663244  0.75145785  0.69769754  1
  F  F456  1  0.29881998  0.00050305  0.30312361  1
  F  F457  1  0.28597213  -0.00379238  0.79617260  1
  F  F458  1  0.28341216  0.49095391  0.29972475  1
  F  F459  1  0.28798375  0.50030480  0.79431657  1
  F  F460  1  0.62799426  -0.00136804  0.30429010  1
  F  F461  1  0.62273309  -0.00363582  0.79839463  1
  F  F462  1  0.62602548  0.50139160  0.30151918  1
  F  F463  1  0.62042627  0.50601466  0.79579892  1
  F  F464  1  0.95579415  -0.00152036  0.30029504  1
  F  F465  1  0.95548417  -0.00128392  0.79416894  1
  F  F466  1  0.95250304  0.49117428  0.30701528  1
  F  F467  1  0.95410307  0.50107057  0.79726509  1
  F  F468  1  0.12301671  0.25083607  0.29844885  1
  F  F469  1  0.11999730  0.24863919  0.79685610  1
  F  F470  1  0.12176742  0.74713088  0.29733783  1
  F  F471  1  0.12456558  0.74800896  0.79386568  1
  F  F472  1  0.45342303  0.24814114  0.30267163  1
  F  F473  1  0.45299689  0.25219228  0.79747844  1
  F  F474  1  0.45518009  0.75038845  0.29791456  1
  F  F475  1  0.45425264  0.75047750  0.79514616  1
  F  F476  1  0.78105043  0.25824243  0.31513828  1
  F  F477  1  0.78848452  0.24893822  0.79869020  1
  F  F478  1  0.79024091  0.74887548  0.30047086  1
  F  F479  1  0.78842878  0.75157880  0.79487080  1
