# generated using pymatgen
data_K24Na3Li5Mg64Fe17Si79(O5F)48
_symmetry_space_group_name_H-M   'P 1'
_cell_length_a   16.09062802
_cell_length_b   18.58414163
_cell_length_c   20.55619939
_cell_angle_alpha   90.00906536
_cell_angle_beta   99.99565096
_cell_angle_gamma   89.98617525
_symmetry_Int_Tables_number   1
_chemical_formula_structural   K24Na3Li5Mg64Fe17Si79(O5F)48
_chemical_formula_sum   'K24 Na3 Li5 Mg64 Fe17 Si79 O240 F48'
_cell_volume   6053.62588171
_cell_formula_units_Z   1
loop_
 _symmetry_equiv_pos_site_id
 _symmetry_equiv_pos_as_xyz
  1  'x, y, z'
loop_
 _atom_site_type_symbol
 _atom_site_label
 _atom_site_symmetry_multiplicity
 _atom_site_fract_x
 _atom_site_fract_y
 _atom_site_fract_z
 _atom_site_occupancy
  K  K0  1  0.00192737  -0.00306430  0.00815266  1
  K  K1  1  0.00020777  -0.00454670  0.48992120  1
  K  K2  1  0.00114083  0.50046495  0.01037750  1
  K  K3  1  0.00226649  0.50558235  0.49107056  1
  K  K4  1  0.34063169  -0.00809686  0.01111150  1
  K  K5  1  0.32091787  -0.00059976  0.49208836  1
  K  K6  1  0.33847720  0.50377711  0.00558021  1
  K  K7  1  0.33638356  0.50858683  0.49283599  1
  K  K8  1  0.65716927  -0.00351037  -0.00024813  1
  K  K9  1  0.66244669  -0.00172990  0.49412285  1
  K  K10  1  0.66506924  0.50068718  0.00090243  1
  K  K11  1  0.66016265  0.50209032  0.49508545  1
  K  K12  1  0.16117803  0.25244118  0.01084523  1
  K  K13  1  0.15958260  0.25202921  0.48786021  1
  K  K14  1  0.18731749  0.74752898  0.00412406  1
  K  K15  1  0.18430801  0.74478089  0.49917761  1
  K  K16  1  0.51126413  0.25197950  0.00519755  1
  K  K17  1  0.49674097  0.25161131  0.49159871  1
  K  K18  1  0.49615338  0.74555906  -0.00149673  1
  K  K19  1  0.49660903  0.74619988  0.49888689  1
  K  K20  1  0.83966673  0.26831066  0.00781840  1
  K  K21  1  0.83853049  0.24759371  0.49169806  1
  K  K22  1  0.83137518  0.75206287  -0.00174907  1
  K  K23  1  0.83009893  0.74900352  0.49341820  1
  Na  Na24  1  0.66497164  0.75147838  0.75637753  1
  Na  Na25  1  0.00043156  0.57950902  0.24616005  1
  Na  Na26  1  0.66984729  0.41842831  0.75192791  1
  Li  Li27  1  0.83073515  -0.00053121  0.25192877  1
  Li  Li28  1  0.50165273  0.49701410  0.25288402  1
  Li  Li29  1  0.33507460  0.08346740  0.25685045  1
  Li  Li30  1  0.16902636  0.83072865  0.75045608  1
  Li  Li31  1  -0.00207211  0.41946106  0.74859831  1
  Mg  Mg32  1  0.49705094  0.00150106  0.25433875  1
  Mg  Mg33  1  0.32855674  0.75014284  0.74933445  1
  Mg  Mg34  1  0.16649652  -0.00199546  0.74936441  1
  Mg  Mg35  1  0.33200951  0.24702232  0.25523103  1
  Mg  Mg36  1  0.16226061  0.50141616  0.74839866  1
  Mg  Mg37  1  0.83336527  -0.00135397  0.74898943  1
  Mg  Mg38  1  0.66590983  0.24907545  0.25244047  1
  Mg  Mg39  1  0.50027251  0.50170966  0.75167198  1
  Mg  Mg40  1  0.16542799  0.49758708  0.25092602  1
  Mg  Mg41  1  -0.00109933  0.24971004  0.24950578  1
  Mg  Mg42  1  0.16814534  -0.00062585  0.25104634  1
  Mg  Mg43  1  0.00030036  0.25232636  0.74852968  1
  Mg  Mg44  1  -0.00015201  0.74865019  0.24853457  1
  Mg  Mg45  1  0.83559045  0.49902865  0.24644286  1
  Mg  Mg46  1  0.66603809  0.75038688  0.24904538  1
  Mg  Mg47  1  0.00067730  0.75113865  0.74802514  1
  Mg  Mg48  1  0.33275472  0.25208632  0.74949446  1
  Mg  Mg49  1  0.83542534  0.50014144  0.74972720  1
  Mg  Mg50  1  0.66935118  0.25261980  0.75075977  1
  Mg  Mg51  1  0.49985958  -0.00110540  0.75325953  1
  Mg  Mg52  1  0.33614176  0.75132341  0.24953202  1
  Mg  Mg53  1  0.66544692  0.41613140  0.25205971  1
  Mg  Mg54  1  0.83287934  0.16280077  0.25158008  1
  Mg  Mg55  1  0.16674210  0.16653567  0.74927926  1
  Mg  Mg56  1  0.83186986  0.66677283  0.75007665  1
  Mg  Mg57  1  0.00071613  0.08373077  0.74851477  1
  Mg  Mg58  1  -0.00275050  0.08123980  0.25066051  1
  Mg  Mg59  1  0.66839032  0.08498666  0.75009357  1
  Mg  Mg60  1  0.50255591  0.66206369  0.24928630  1
  Mg  Mg61  1  0.00145153  0.91494599  0.74706032  1
  Mg  Mg62  1  0.83197199  0.83346735  0.74982796  1
  Mg  Mg63  1  0.83123485  0.66594969  0.24522467  1
  Mg  Mg64  1  0.83483697  0.16670997  0.74831481  1
  Mg  Mg65  1  0.49792154  0.66780655  0.75128416  1
  Mg  Mg66  1  0.83668614  0.33653474  0.74954007  1
  Mg  Mg67  1  0.33304636  0.41735724  0.75044814  1
  Mg  Mg68  1  0.66516615  0.91546666  0.75272416  1
  Mg  Mg69  1  0.16789440  0.16362413  0.25024623  1
  Mg  Mg70  1  0.50045074  0.33445538  0.25416240  1
  Mg  Mg71  1  0.16636501  0.66916763  0.74833162  1
  Mg  Mg72  1  0.33573462  0.41598367  0.25260072  1
  Mg  Mg73  1  0.50386106  0.16755297  0.75301757  1
  Mg  Mg74  1  0.33541353  0.08485215  0.75190858  1
  Mg  Mg75  1  -0.00010956  0.58322441  0.74819080  1
  Mg  Mg76  1  0.49836762  0.83479346  0.75310639  1
  Mg  Mg77  1  0.33820759  0.58098197  0.25177977  1
  Mg  Mg78  1  0.33192498  0.58660278  0.75114765  1
  Mg  Mg79  1  -0.00271475  0.91627052  0.25037094  1
  Mg  Mg80  1  0.33508181  0.91646461  0.25095593  1
  Mg  Mg81  1  0.66681467  0.91741106  0.24992340  1
  Mg  Mg82  1  0.16951492  0.66573310  0.25165730  1
  Mg  Mg83  1  0.66606295  0.58239954  0.24791623  1
  Mg  Mg84  1  0.16245013  0.33660543  0.74877713  1
  Mg  Mg85  1  0.16851926  0.83357780  0.24832937  1
  Mg  Mg86  1  0.16508614  0.33336764  0.25369458  1
  Mg  Mg87  1  0.66733416  0.08293059  0.25288390  1
  Mg  Mg88  1  0.49915894  0.16558118  0.25541760  1
  Mg  Mg89  1  -0.00009339  0.41369752  0.24894445  1
  Mg  Mg90  1  0.50079857  0.83433490  0.25120329  1
  Mg  Mg91  1  0.66605519  0.58395167  0.74995140  1
  Mg  Mg92  1  0.50354110  0.33487539  0.75195004  1
  Mg  Mg93  1  0.33179792  0.91487186  0.75226661  1
  Mg  Mg94  1  0.83091949  0.83524174  0.24903405  1
  Mg  Mg95  1  0.83526796  0.33449954  0.24788498  1
  Fe  Fe96  1  0.47440985  0.41686359  0.39039227  1
  Fe  Fe97  1  0.36284508  0.83131514  0.10947205  1
  Fe  Fe98  1  0.30915115  0.83851218  0.38892400  1
  Fe  Fe99  1  0.02635723  0.33273727  0.10826078  1
  Fe  Fe100  1  0.64381548  0.65810444  0.89119973  1
  Fe  Fe101  1  0.64273386  0.83578824  0.89608094  1
  Fe  Fe102  1  0.35937834  0.66677802  0.60913801  1
  Fe  Fe103  1  0.13972902  0.42012434  0.39332418  1
  Fe  Fe104  1  0.64255941  0.83366708  0.38981263  1
  Fe  Fe105  1  0.30828227  0.16074690  0.39090427  1
  Fe  Fe106  1  0.85470460  0.42435664  0.10500890  1
  Fe  Fe107  1  0.64971545  0.33399644  0.89167738  1
  Fe  Fe108  1  0.68544183  0.67204692  0.10832258  1
  Fe  Fe109  1  0.46933949  0.92041720  0.89297456  1
  Fe  Fe110  1  0.30395879  0.66734242  0.89013119  1
  Fe  Fe111  1  0.97019204  0.33283809  0.39165146  1
  Fe  Fe112  1  0.64764999  0.16684986  0.39254583  1
  Si  Si113  1  0.85834413  0.91504639  0.61183484  1
  Si  Si114  1  0.52562678  0.57397254  0.11391582  1
  Si  Si115  1  0.13252180  0.58426092  0.88620933  1
  Si  Si116  1  0.81106642  0.58121846  0.38313119  1
  Si  Si117  1  0.64478471  0.33480966  0.38974167  1
  Si  Si118  1  0.35937968  0.33159297  0.11703726  1
  Si  Si119  1  0.65183835  0.16551552  0.88737452  1
  Si  Si120  1  0.02373573  0.66726290  0.61217284  1
  Si  Si121  1  0.47971033  0.58517517  0.38672405  1
  Si  Si122  1  0.14769228  0.58946633  0.38730622  1
  Si  Si123  1  0.19038215  0.08212889  0.11507628  1
  Si  Si124  1  0.14260657  0.08174823  0.88477521  1
  Si  Si125  1  0.46979500  0.57720502  0.88978264  1
  Si  Si126  1  0.13400452  0.91734235  0.88297432  1
  Si  Si127  1  0.81418415  0.57969739  0.88602557  1
  Si  Si128  1  0.81045880  0.07913838  0.38738042  1
  Si  Si129  1  0.52702456  0.08557497  0.61543791  1
  Si  Si130  1  0.64666650  0.66502705  0.38681246  1
  Si  Si131  1  0.13528849  0.07866620  0.38681543  1
  Si  Si132  1  0.52526190  0.41375285  0.61490936  1
  Si  Si133  1  0.69548235  0.33125296  0.61342736  1
  Si  Si134  1  0.85920043  0.08141907  0.61287015  1
  Si  Si135  1  0.96995393  0.66899364  0.88222382  1
  Si  Si136  1  0.13465911  0.91243852  0.38608517  1
  Si  Si137  1  0.82121179  0.42001270  0.88620462  1
  Si  Si138  1  0.35739152  0.83971344  0.61240119  1
  Si  Si139  1  0.97750860  0.16704607  0.88408735  1
  Si  Si140  1  0.47678374  0.91968632  0.39075550  1
  Si  Si141  1  0.85835728  0.58490618  0.61222178  1
  Si  Si142  1  0.03166782  0.66990187  0.11401297  1
  Si  Si143  1  0.30696005  0.33176395  0.39139730  1
  Si  Si144  1  0.30170419  0.33581525  0.88492618  1
  Si  Si145  1  0.31476285  0.66903549  0.38584266  1
  Si  Si146  1  0.80206815  0.41806039  0.38575891  1
  Si  Si147  1  0.18963688  0.91754465  0.11075276  1
  Si  Si148  1  0.85760939  0.41826059  0.61280080  1
  Si  Si149  1  0.69073951  0.32872305  0.11321729  1
  Si  Si150  1  0.52126339  0.08764699  0.11668065  1
  Si  Si151  1  0.97421506  0.66834552  0.38316696  1
  Si  Si152  1  0.35600428  0.16856229  0.11762163  1
  Si  Si153  1  0.69170715  0.16246247  0.11546681  1
  Si  Si154  1  0.85672075  0.07869534  0.11567162  1
  Si  Si155  1  0.52624052  0.40814176  0.11711647  1
  Si  Si156  1  0.81169167  0.92051403  0.88677085  1
  Si  Si157  1  0.02458921  0.83439146  0.11290692  1
  Si  Si158  1  0.47903457  0.08163951  0.39172871  1
  Si  Si159  1  0.52793804  0.92417241  0.11461465  1
  Si  Si160  1  0.18947331  0.41405050  0.61367541  1
  Si  Si161  1  0.96969575  0.83128536  0.38434361  1
  Si  Si162  1  0.81444866  0.08254578  0.88365491  1
  Si  Si163  1  0.97231243  0.83395460  0.88291812  1
  Si  Si164  1  0.52915075  0.57966966  0.61046698  1
  Si  Si165  1  0.85786345  0.91312818  0.11483457  1
  Si  Si166  1  0.68808930  0.84057901  0.11296116  1
  Si  Si167  1  0.19342695  0.58182762  0.11638091  1
  Si  Si168  1  0.36115091  0.65930783  0.11375224  1
  Si  Si169  1  0.85680239  0.59420941  0.10788001  1
  Si  Si170  1  0.19821226  0.41622036  0.11432543  1
  Si  Si171  1  0.97338868  0.16241048  0.38680346  1
  Si  Si172  1  0.35926588  0.16718240  0.61556485  1
  Si  Si173  1  0.47860184  0.09231053  0.88894905  1
  Si  Si174  1  0.02561031  0.83379240  0.61298029  1
  Si  Si175  1  0.97689760  0.33073977  0.88321080  1
  Si  Si176  1  0.52675224  0.92035631  0.61421263  1
  Si  Si177  1  0.30656135  0.16992124  0.88537258  1
  Si  Si178  1  0.80927026  0.91708456  0.38600039  1
  Si  Si179  1  0.47284337  0.41101614  0.88798315  1
  Si  Si180  1  0.18658594  0.58027266  0.61098773  1
  Si  Si181  1  0.35829228  0.33401008  0.61400400  1
  Si  Si182  1  0.19123959  0.08552940  0.61410433  1
  Si  Si183  1  0.69225900  0.83478593  0.61465595  1
  Si  Si184  1  0.30024449  0.83851183  0.88649150  1
  Si  Si185  1  0.69477822  0.66624082  0.61463799  1
  Si  Si186  1  0.02158192  0.16075857  0.11164614  1
  Si  Si187  1  0.69425281  0.16728635  0.61349176  1
  Si  Si188  1  0.02289178  0.33261772  0.61391411  1
  Si  Si189  1  0.13755546  0.41858777  0.88294695  1
  Si  Si190  1  0.02411178  0.16725865  0.61318802  1
  Si  Si191  1  0.19082916  0.92021631  0.61467561  1
  O  O192  1  0.26949876  0.12236999  0.08731911  1
  O  O193  1  0.27126274  0.12308442  0.58672638  1
  O  O194  1  0.27240617  0.61527072  0.08601277  1
  O  O195  1  0.25784634  0.61622976  0.57545120  1
  O  O196  1  0.60167736  0.12144011  0.08615690  1
  O  O197  1  0.60367827  0.12726965  0.58662778  1
  O  O198  1  0.59842383  0.60602139  0.07686649  1
  O  O199  1  0.61004161  0.61995114  0.58406070  1
  O  O200  1  0.93631813  0.11099865  0.08366118  1
  O  O201  1  0.93797544  0.12067288  0.58465726  1
  O  O202  1  0.94729671  0.62353199  0.08586738  1
  O  O203  1  0.93389608  0.62693849  0.58180977  1
  O  O204  1  0.12300303  0.36686322  0.07605075  1
  O  O205  1  0.10434568  0.36623290  0.58586884  1
  O  O206  1  0.09658067  0.87958918  0.08229345  1
  O  O207  1  0.10234648  0.87634203  0.58480145  1
  O  O208  1  0.44183865  0.35977480  0.08713406  1
  O  O209  1  0.43564589  0.37175193  0.58355230  1
  O  O210  1  0.45308822  0.87415048  0.07636470  1
  O  O211  1  0.43522503  0.88379030  0.58564854  1
  O  O212  1  0.76000324  0.36443048  0.07584071  1
  O  O213  1  0.76801467  0.37655017  0.58185237  1
  O  O214  1  0.77316838  0.86769707  0.08390946  1
  O  O215  1  0.76991236  0.87292922  0.58223471  1
  O  O216  1  0.28358208  0.38734643  0.08618127  1
  O  O217  1  0.26943588  0.37657174  0.58556398  1
  O  O218  1  0.25923660  0.87846557  0.07528604  1
  O  O219  1  0.26965414  0.88679485  0.58388660  1
  O  O220  1  0.59999803  0.36860730  0.08379916  1
  O  O221  1  0.60232237  0.36847422  0.58913240  1
  O  O222  1  0.61858084  0.90529573  0.09142229  1
  O  O223  1  0.60329215  0.87755322  0.58527287  1
  O  O224  1  0.93859426  0.38655706  0.06366831  1
  O  O225  1  0.93613233  0.37748650  0.58466324  1
  O  O226  1  0.93537709  0.87578076  0.08266207  1
  O  O227  1  0.93596381  0.87597800  0.58180056  1
  O  O228  1  0.10116701  0.12193088  0.08199749  1
  O  O229  1  0.10446103  0.13123148  0.58488103  1
  O  O230  1  0.10963626  0.63017310  0.08477613  1
  O  O231  1  0.09638090  0.62312524  0.58210529  1
  O  O232  1  0.43571704  0.13452076  0.08565953  1
  O  O233  1  0.43755187  0.12777943  0.58743346  1
  O  O234  1  0.43422543  0.61320712  0.08525936  1
  O  O235  1  0.44495624  0.61909592  0.57278735  1
  O  O236  1  0.76801818  0.12170311  0.08489148  1
  O  O237  1  0.77040591  0.12363961  0.58510084  1
  O  O238  1  0.78689193  0.65423250  0.07797772  1
  O  O239  1  0.77193266  0.62950987  0.58122082  1
  O  O240  1  0.04787667  0.10271235  0.41293465  1
  O  O241  1  0.06215530  0.11844766  0.91295375  1
  O  O242  1  0.06291207  0.62635913  0.41195470  1
  O  O243  1  0.04660933  0.61402476  0.91187135  1
  O  O244  1  0.39475890  0.09501496  0.42406631  1
  O  O245  1  0.39871216  0.13532865  0.91457161  1
  O  O246  1  0.39434353  0.61480970  0.41389646  1
  O  O247  1  0.38602321  0.59822105  0.92031498  1
  O  O248  1  0.73433106  0.10005245  0.42611570  1
  O  O249  1  0.72838635  0.10490481  0.91143872  1
  O  O250  1  0.72826864  0.61014520  0.41297975  1
  O  O251  1  0.73352761  0.59188295  0.92050293  1
  O  O252  1  0.22105757  0.34928665  0.42070383  1
  O  O253  1  0.22406929  0.37372117  0.91422080  1
  O  O254  1  0.21041152  0.86265079  0.42279230  1
  O  O255  1  0.20913212  0.86178073  0.91076902  1
  O  O256  1  0.56300490  0.35261879  0.42346620  1
  O  O257  1  0.54844797  0.35890958  0.92203820  1
  O  O258  1  0.54662390  0.86083499  0.42431652  1
  O  O259  1  0.55262682  0.86193434  0.93719277  1
  O  O260  1  0.87057149  0.36157753  0.42255005  1
  O  O261  1  0.89824009  0.36212511  0.91471757  1
  O  O262  1  0.88912534  0.86197771  0.41479585  1
  O  O263  1  0.89164185  0.86526924  0.91304493  1
  O  O264  1  0.05182952  0.39332759  0.43562759  1
  O  O265  1  0.06149983  0.37770601  0.91218174  1
  O  O266  1  0.04911360  0.88384503  0.41368422  1
  O  O267  1  0.05095767  0.88802106  0.91246310  1
  O  O268  1  0.37626893  0.39241960  0.42267716  1
  O  O269  1  0.38670536  0.38061401  0.91471886  1
  O  O270  1  0.39089791  0.90741817  0.42117947  1
  O  O271  1  0.36405609  0.90211196  0.91746582  1
  O  O272  1  0.71235492  0.40214430  0.41180777  1
  O  O273  1  0.73981794  0.39919216  0.91864370  1
  O  O274  1  0.73322110  0.89593125  0.42457782  1
  O  O275  1  0.73442303  0.90396450  0.92336601  1
  O  O276  1  0.21152279  0.12718513  0.42497177  1
  O  O277  1  0.22985652  0.12673793  0.91326166  1
  O  O278  1  0.22924122  0.64303154  0.41440167  1
  O  O279  1  0.20871390  0.63266229  0.92371971  1
  O  O280  1  0.55152712  0.13819687  0.42646033  1
  O  O281  1  0.56434490  0.14131739  0.91375466  1
  O  O282  1  0.56182294  0.63809919  0.41526115  1
  O  O283  1  0.54695010  0.62766183  0.92387110  1
  O  O284  1  0.89089441  0.13213711  0.41630287  1
  O  O285  1  0.89468688  0.13613831  0.91214848  1
  O  O286  1  0.89590820  0.63001623  0.41395798  1
  O  O287  1  0.88742511  0.64188851  0.91180004  1
  O  O288  1  0.18170274  0.00116615  0.08184724  1
  O  O289  1  0.17666344  0.00359909  0.58427826  1
  O  O290  1  0.18056567  0.49990906  0.08643610  1
  O  O291  1  0.17209213  0.49557850  0.58486862  1
  O  O292  1  0.50573353  0.00688870  0.08578807  1
  O  O293  1  0.52349496  0.00378410  0.58487164  1
  O  O294  1  0.50971581  0.48951321  0.08725900  1
  O  O295  1  0.52763072  0.49472368  0.58333291  1
  O  O296  1  0.84532858  -0.00402381  0.08570402  1
  O  O297  1  0.85125184  -0.00120851  0.58353220  1
  O  O298  1  0.83505601  0.51789988  0.07033842  1
  O  O299  1  0.85124007  0.50160593  0.58319621  1
  O  O300  1  0.00757797  0.23684474  0.07416297  1
  O  O301  1  0.00923377  0.24927300  0.58432315  1
  O  O302  1  0.02071326  0.75238231  0.08177712  1
  O  O303  1  0.01819176  0.75086673  0.58318365  1
  O  O304  1  0.33760956  0.25016344  0.08519200  1
  O  O305  1  0.34884973  0.24988990  0.58691262  1
  O  O306  1  0.35152858  0.73645646  0.07722969  1
  O  O307  1  0.34686260  0.76248899  0.57618480  1
  O  O308  1  0.67910090  0.24411615  0.08564193  1
  O  O309  1  0.69063702  0.24856768  0.58209310  1
  O  O310  1  0.65277851  0.76635120  0.07885853  1
  O  O311  1  0.68381893  0.75087364  0.58758295  1
  O  O312  1  0.14968254  -0.00493889  0.41480203  1
  O  O313  1  0.15354881  -0.00024116  0.91428332  1
  O  O314  1  0.16731098  0.51465083  0.42658658  1
  O  O315  1  0.14490456  0.50002269  0.91336037  1
  O  O316  1  0.51514266  -0.00009874  0.41482788  1
  O  O317  1  0.49268726  0.01665991  0.92572695  1
  O  O318  1  0.50444956  0.50964665  0.42380666  1
  O  O319  1  0.49139696  0.49273442  0.91567775  1
  O  O320  1  0.84467419  -0.00246195  0.41143116  1
  O  O321  1  0.84740916  0.00272495  0.91025850  1
  O  O322  1  0.83091631  0.50033521  0.41354086  1
  O  O323  1  0.85769411  0.50088629  0.90996274  1
  O  O324  1  0.34121809  0.25334839  0.42172949  1
  O  O325  1  0.30742666  0.25257908  0.91371291  1
  O  O326  1  0.34154092  0.74583377  0.42002933  1
  O  O327  1  0.32634249  0.76162933  0.92194085  1
  O  O328  1  0.68649214  0.25958925  0.42082970  1
  O  O329  1  0.68452532  0.23981946  0.92283031  1
  O  O330  1  0.67560156  0.74089262  0.42233831  1
  O  O331  1  0.68544812  0.74642841  0.92329015  1
  O  O332  1  0.99864623  0.23761229  0.42395153  1
  O  O333  1  0.99694386  0.24820707  0.91311230  1
  O  O334  1  0.98613932  0.75001637  0.41604928  1
  O  O335  1  0.99230014  0.75162664  0.91054645  1
  O  O336  1  0.20220977  0.08073042  0.19404575  1
  O  O337  1  0.20864820  0.08584250  0.69464888  1
  O  O338  1  0.21034834  0.58334127  0.19645881  1
  O  O339  1  0.20452693  0.58190631  0.69168813  1
  O  O340  1  0.54026458  0.08551278  0.19645099  1
  O  O341  1  0.54436808  0.08571371  0.69602283  1
  O  O342  1  0.54587456  0.58216857  0.19368107  1
  O  O343  1  0.54126240  0.58071343  0.69062264  1
  O  O344  1  0.87663307  0.08308638  0.19510140  1
  O  O345  1  0.87803052  0.08254934  0.69339988  1
  O  O346  1  0.86677731  0.58604804  0.18800781  1
  O  O347  1  0.87829111  0.58577422  0.69219223  1
  O  O348  1  0.04591464  0.32872608  0.19931597  1
  O  O349  1  0.04372790  0.32967613  0.69354854  1
  O  O350  1  0.04256400  0.83424383  0.19326763  1
  O  O351  1  0.03803954  0.83432047  0.69226276  1
  O  O352  1  0.37515738  0.32964191  0.19677552  1
  O  O353  1  0.37482844  0.33323755  0.69470386  1
  O  O354  1  0.38111794  0.83386164  0.20046117  1
  O  O355  1  0.37188975  0.83718486  0.69284590  1
  O  O356  1  0.70920842  0.33049803  0.19400394  1
  O  O357  1  0.71930264  0.32540873  0.69240215  1
  O  O358  1  0.71111128  0.83570410  0.19355952  1
  O  O359  1  0.71533959  0.84235321  0.69362422  1
  O  O360  1  0.21395517  0.41464259  0.19469459  1
  O  O361  1  0.20888422  0.41461731  0.69421072  1
  O  O362  1  0.20604400  0.91689382  0.19117956  1
  O  O363  1  0.20957803  0.92230798  0.69416979  1
  O  O364  1  0.54769451  0.40827202  0.19627760  1
  O  O365  1  0.53225893  0.41617745  0.69378433  1
  O  O366  1  0.54083942  0.92117643  0.19508356  1
  O  O367  1  0.54519983  0.92241724  0.69401298  1
  O  O368  1  0.87653411  0.41669725  0.19674757  1
  O  O369  1  0.87372020  0.41714929  0.69213884  1
  O  O370  1  0.87906958  0.91201168  0.19427750  1
  O  O371  1  0.87738183  0.91731148  0.69232818  1
  O  O372  1  0.04069021  0.16184047  0.19247615  1
  O  O373  1  0.04319982  0.16594873  0.69385741  1
  O  O374  1  0.05135258  0.67529710  0.19328243  1
  O  O375  1  0.04082577  0.66757999  0.69233048  1
  O  O376  1  0.37869900  0.16969368  0.19657836  1
  O  O377  1  0.37612448  0.16727403  0.69614275  1
  O  O378  1  0.37794422  0.66380308  0.19442533  1
  O  O379  1  0.37697544  0.66582039  0.70012283  1
  O  O380  1  0.71090290  0.16348146  0.19527813  1
  O  O381  1  0.71283894  0.16596496  0.69404110  1
  O  O382  1  0.70892064  0.66787809  0.20009862  1
  O  O383  1  0.71647304  0.66298189  0.69359262  1
  O  O384  1  0.12108392  0.08037482  0.30594475  1
  O  O385  1  0.12371588  0.08416740  0.80400825  1
  O  O386  1  0.13417321  0.58481164  0.30757438  1
  O  O387  1  0.12028748  0.58440855  0.80506260  1
  O  O388  1  0.46232776  0.08428472  0.31082315  1
  O  O389  1  0.45787302  0.08846786  0.80745760  1
  O  O390  1  0.45871291  0.58566468  0.30657750  1
  O  O391  1  0.45238993  0.57905362  0.80806587  1
  O  O392  1  0.78795208  0.08530736  0.30755050  1
  O  O393  1  0.79500366  0.08431722  0.80275031  1
  O  O394  1  0.79353988  0.58274639  0.30322357  1
  O  O395  1  0.79424273  0.58348822  0.80491689  1
  O  O396  1  0.28961009  0.33222708  0.30902263  1
  O  O397  1  0.28618451  0.33329856  0.80416297  1
  O  O398  1  0.28639899  0.83344245  0.29775583  1
  O  O399  1  0.28781967  0.83530862  0.80559760  1
  O  O400  1  0.62496370  0.33222030  0.30811001  1
  O  O401  1  0.61952044  0.32461637  0.80178304  1
  O  O402  1  0.62241107  0.83378158  0.29817493  1
  O  O403  1  0.61530550  0.84555460  0.80480443  1
  O  O404  1  0.95349191  0.32947913  0.30023160  1
  O  O405  1  0.95762567  0.32813980  0.80348800  1
  O  O406  1  0.95532924  0.83199221  0.30415187  1
  O  O407  1  0.95631378  0.83576227  0.80236237  1
  O  O408  1  0.12191178  0.41760822  0.30136287  1
  O  O409  1  0.12477824  0.41740839  0.80316693  1
  O  O410  1  0.12038274  0.91314256  0.30514534  1
  O  O411  1  0.11647029  0.92333912  0.80334787  1
  O  O412  1  0.45429551  0.41465842  0.30009801  1
  O  O413  1  0.45344845  0.41210676  0.80665206  1
  O  O414  1  0.45900122  0.91667880  0.30927150  1
  O  O415  1  0.45154956  0.92047276  0.79973021  1
  O  O416  1  0.78789321  0.41598883  0.30507410  1
  O  O417  1  0.80534846  0.41649389  0.80616739  1
  O  O418  1  0.78798221  0.91261192  0.30614594  1
  O  O419  1  0.79290351  0.91888694  0.80531213  1
  O  O420  1  0.28529937  0.16502446  0.30061888  1
  O  O421  1  0.28834911  0.16839323  0.80457213  1
  O  O422  1  0.29420310  0.66768481  0.30479772  1
  O  O423  1  0.28289017  0.66692511  0.79852020  1
  O  O424  1  0.62337072  0.16606480  0.30094317  1
  O  O425  1  0.62984257  0.16550476  0.80586889  1
  O  O426  1  0.62562761  0.66584452  0.30633096  1
  O  O427  1  0.61472520  0.65773098  0.80051294  1
  O  O428  1  0.95575672  0.16400691  0.30577052  1
  O  O429  1  0.95957643  0.16513727  0.80332107  1
  O  O430  1  0.95202615  0.67308759  0.30409848  1
  O  O431  1  0.95609681  0.66841574  0.80162593  1
  F  F432  1  0.04479967  -0.00214545  0.20146484  1
  F  F433  1  0.04431049  0.00257819  0.69804333  1
  F  F434  1  0.05095730  0.49075342  0.19442968  1
  F  F435  1  0.04614325  0.50446051  0.69706943  1
  F  F436  1  0.37984803  -0.00167507  0.20369114  1
  F  F437  1  0.37738987  0.00634539  0.70134776  1
  F  F438  1  0.37108123  0.49981869  0.19963594  1
  F  F439  1  0.37630554  0.49903348  0.70324942  1
  F  F440  1  0.70812516  0.00141841  0.20280819  1
  F  F441  1  0.71351597  0.00237296  0.70151904  1
  F  F442  1  0.71194640  0.49745895  0.20109996  1
  F  F443  1  0.71884787  0.50840226  0.69828916  1
  F  F444  1  0.21055527  0.25019571  0.20208375  1
  F  F445  1  0.21087415  0.24991284  0.70110487  1
  F  F446  1  0.21212299  0.74804386  0.19969534  1
  F  F447  1  0.20802488  0.75016129  0.69657480  1
  F  F448  1  0.54376826  0.25000608  0.20334784  1
  F  F449  1  0.54436460  0.24630711  0.69987162  1
  F  F450  1  0.54369630  0.74756526  0.20129268  1
  F  F451  1  0.52927407  0.75328233  0.69774704  1
  F  F452  1  0.87626886  0.24434058  0.19961710  1
  F  F453  1  0.88139375  0.24687157  0.69886428  1
  F  F454  1  0.87929708  0.75243652  0.19994195  1
  F  F455  1  0.87918171  0.75214862  0.69810907  1
  F  F456  1  0.28329643  -0.00633472  0.29922152  1
  F  F457  1  0.28520169  0.00515628  0.79778911  1
  F  F458  1  0.28798443  0.50007356  0.29860497  1
  F  F459  1  0.28304949  0.49858773  0.79587665  1
  F  F460  1  0.62055703  -0.00017088  0.29885548  1
  F  F461  1  0.62321035  0.00497857  0.79734799  1
  F  F462  1  0.62740270  0.50070498  0.29832763  1
  F  F463  1  0.61593681  0.50622222  0.79929215  1
  F  F464  1  0.95843563  -0.00213903  0.29872906  1
  F  F465  1  0.95547168  0.00071291  0.79488328  1
  F  F466  1  0.95107504  0.49288743  0.30071865  1
  F  F467  1  0.95602524  0.50362226  0.79479767  1
  F  F468  1  0.11999066  0.24390356  0.29841549  1
  F  F469  1  0.12203666  0.24867319  0.79751270  1
  F  F470  1  0.12134098  0.75148877  0.29764111  1
  F  F471  1  0.11615875  0.74811397  0.79648989  1
  F  F472  1  0.45496475  0.24998160  0.30069983  1
  F  F473  1  0.45167992  0.24943758  0.79713868  1
  F  F474  1  0.45765798  0.74653753  0.29785940  1
  F  F475  1  0.44956487  0.75288929  0.79927834  1
  F  F476  1  0.78852208  0.24899319  0.29565102  1
  F  F477  1  0.79338347  0.24785165  0.79679527  1
  F  F478  1  0.78997005  0.75136738  0.29755883  1
  F  F479  1  0.80399039  0.75170414  0.80061352  1
