# generated using pymatgen
data_K24Na3Li5Mg64Fe17Si79(O5F)48
_symmetry_space_group_name_H-M   'P 1'
_cell_length_a   16.09401966
_cell_length_b   18.58629562
_cell_length_c   20.54677005
_cell_angle_alpha   90.00829382
_cell_angle_beta   100.02396065
_cell_angle_gamma   89.98927595
_symmetry_Int_Tables_number   1
_chemical_formula_structural   K24Na3Li5Mg64Fe17Si79(O5F)48
_chemical_formula_sum   'K24 Na3 Li5 Mg64 Fe17 Si79 O240 F48'
_cell_volume   6052.29814082
_cell_formula_units_Z   1
loop_
 _symmetry_equiv_pos_site_id
 _symmetry_equiv_pos_as_xyz
  1  'x, y, z'
loop_
 _atom_site_type_symbol
 _atom_site_label
 _atom_site_symmetry_multiplicity
 _atom_site_fract_x
 _atom_site_fract_y
 _atom_site_fract_z
 _atom_site_occupancy
  K  K0  1  -0.00143438  -0.00033933  -0.00389722  1
  K  K1  1  0.00183364  0.00507303  0.50555836  1
  K  K2  1  0.00077937  0.49741505  0.01111007  1
  K  K3  1  -0.00126546  0.49765098  0.47703276  1
  K  K4  1  0.33031112  -0.00511036  -0.00268069  1
  K  K5  1  0.33102516  -0.00449489  0.50072626  1
  K  K6  1  0.34414357  0.50073293  0.01410696  1
  K  K7  1  0.33230399  0.50353415  0.49073803  1
  K  K8  1  0.66358180  -0.00617755  -0.00327792  1
  K  K9  1  0.67321117  0.00106890  0.50311374  1
  K  K10  1  0.66460337  0.50172704  0.00538936  1
  K  K11  1  0.66347374  0.51118881  0.49085047  1
  K  K12  1  0.17125368  0.24878753  0.00328224  1
  K  K13  1  0.16685151  0.25037056  0.49276877  1
  K  K14  1  0.17262987  0.74903427  0.00426069  1
  K  K15  1  0.18267561  0.76020747  0.49871045  1
  K  K16  1  0.49418872  0.25204725  0.00665359  1
  K  K17  1  0.49096032  0.24818291  0.49116984  1
  K  K18  1  0.49006853  0.74764665  0.00551322  1
  K  K19  1  0.49372412  0.74476005  0.49704061  1
  K  K20  1  0.83984110  0.25434560  -0.00187834  1
  K  K21  1  0.84075059  0.24422872  0.49796022  1
  K  K22  1  0.83646076  0.75085563  0.00229147  1
  K  K23  1  0.82514941  0.74860509  0.49312016  1
  Na  Na24  1  0.66195039  0.74605463  0.24920930  1
  Na  Na25  1  0.33328636  0.91924037  0.24759304  1
  Na  Na26  1  -0.00226093  0.42071162  0.26108888  1
  Li  Li27  1  0.83361607  0.50060192  0.25396123  1
  Li  Li28  1  0.83609421  -0.00038488  0.74969043  1
  Li  Li29  1  0.49581260  0.33879869  0.24770275  1
  Li  Li30  1  0.32958123  0.08044186  0.74481414  1
  Li  Li31  1  0.49796723  0.66434977  0.24770329  1
  Mg  Mg32  1  0.49754805  0.00107388  0.74758223  1
  Mg  Mg33  1  0.33620415  0.74941867  0.24984529  1
  Mg  Mg34  1  0.16485256  0.50128801  0.25043664  1
  Mg  Mg35  1  0.83164901  -0.00123297  0.24691138  1
  Mg  Mg36  1  0.66866414  0.24829881  0.75456680  1
  Mg  Mg37  1  0.33254127  0.24560678  0.74792741  1
  Mg  Mg38  1  0.83232460  0.50137085  0.75376428  1
  Mg  Mg39  1  0.49986197  -0.00023802  0.24811086  1
  Mg  Mg40  1  0.16631264  0.49949802  0.74974474  1
  Mg  Mg41  1  0.17014296  0.00154857  0.74894030  1
  Mg  Mg42  1  0.33522252  0.25127504  0.25126938  1
  Mg  Mg43  1  0.49997607  0.49835810  0.75511088  1
  Mg  Mg44  1  0.00059097  0.74840521  0.24778329  1
  Mg  Mg45  1  0.00081384  0.24713857  0.75106403  1
  Mg  Mg46  1  0.33352587  0.75163504  0.74937492  1
  Mg  Mg47  1  -0.00180209  0.25196008  0.25370158  1
  Mg  Mg48  1  0.16608870  -0.00040142  0.24923766  1
  Mg  Mg49  1  0.49867295  0.50133164  0.24659556  1
  Mg  Mg50  1  -0.00061836  0.75213445  0.75091180  1
  Mg  Mg51  1  0.66145082  0.25227686  0.24770016  1
  Mg  Mg52  1  0.66633698  0.75310237  0.74908650  1
  Mg  Mg53  1  0.33504186  0.58609936  0.24828078  1
  Mg  Mg54  1  0.16693797  0.83294029  0.24727817  1
  Mg  Mg55  1  0.83344414  0.83756323  0.74889392  1
  Mg  Mg56  1  0.33312398  0.08505873  0.24953998  1
  Mg  Mg57  1  0.83301084  0.66321747  0.25174590  1
  Mg  Mg58  1  0.16522990  0.33265759  0.74900701  1
  Mg  Mg59  1  0.33192354  0.91611717  0.74697722  1
  Mg  Mg60  1  0.33607804  0.41547239  0.24983299  1
  Mg  Mg61  1  -0.00032225  0.58489079  0.75120523  1
  Mg  Mg62  1  -0.00079295  0.41598717  0.75185585  1
  Mg  Mg63  1  0.16833105  0.66477451  0.24809586  1
  Mg  Mg64  1  -0.00009995  0.91418665  0.24618251  1
  Mg  Mg65  1  0.66440144  0.58348554  0.24961666  1
  Mg  Mg66  1  -0.00048343  0.58162078  0.25233711  1
  Mg  Mg67  1  0.66729691  0.41412303  0.75512350  1
  Mg  Mg68  1  0.16679211  0.33548638  0.25366880  1
  Mg  Mg69  1  0.49737685  0.16821024  0.24752012  1
  Mg  Mg70  1  0.16797731  0.66616346  0.75153456  1
  Mg  Mg71  1  0.66558472  0.41782616  0.24989291  1
  Mg  Mg72  1  0.49830471  0.83629900  0.74755793  1
  Mg  Mg73  1  0.83494241  0.33384664  0.75582419  1
  Mg  Mg74  1  0.66567858  0.91433544  0.24789638  1
  Mg  Mg75  1  0.83773132  0.16184210  0.75213508  1
  Mg  Mg76  1  0.49879423  0.66507704  0.75177324  1
  Mg  Mg77  1  0.33573688  0.58328951  0.75265970  1
  Mg  Mg78  1  0.83232526  0.16803540  0.25080006  1
  Mg  Mg79  1  0.50305778  0.33165941  0.75487655  1
  Mg  Mg80  1  0.16831256  0.16653439  0.25239069  1
  Mg  Mg81  1  0.66913418  0.91809237  0.74593267  1
  Mg  Mg82  1  0.00058571  0.08465423  0.75028057  1
  Mg  Mg83  1  0.16745390  0.16342425  0.74875868  1
  Mg  Mg84  1  0.66527697  0.08474678  0.24762084  1
  Mg  Mg85  1  0.83256544  0.66841776  0.75073721  1
  Mg  Mg86  1  0.83270984  0.83140770  0.24774930  1
  Mg  Mg87  1  -0.00142966  0.91780002  0.75144069  1
  Mg  Mg88  1  -0.00101425  0.08402464  0.25157900  1
  Mg  Mg89  1  0.83201217  0.33715440  0.25428290  1
  Mg  Mg90  1  0.16795717  0.83563005  0.74926501  1
  Mg  Mg91  1  0.33471324  0.41402328  0.75266348  1
  Mg  Mg92  1  0.66537650  0.58532187  0.75264133  1
  Mg  Mg93  1  0.49917249  0.16483631  0.75061174  1
  Mg  Mg94  1  0.49865827  0.82979843  0.24695529  1
  Mg  Mg95  1  0.67121992  0.08209849  0.75231473  1
  Fe  Fe96  1  0.36263957  0.83336123  0.60744156  1
  Fe  Fe97  1  0.97590259  0.16664877  0.89407206  1
  Fe  Fe98  1  0.97494277  0.83383654  0.88997534  1
  Fe  Fe99  1  0.35873089  0.33304926  0.10952928  1
  Fe  Fe100  1  0.31157798  0.67307414  0.39200411  1
  Fe  Fe101  1  0.64549563  0.32729337  0.89448640  1
  Fe  Fe102  1  0.19489993  0.08450125  0.60734386  1
  Fe  Fe103  1  0.30723994  0.83152617  0.88920986  1
  Fe  Fe104  1  0.47876781  0.58100625  0.38945447  1
  Fe  Fe105  1  0.47660412  0.57948142  0.89271940  1
  Fe  Fe106  1  0.30826567  0.16252909  0.38985272  1
  Fe  Fe107  1  0.02480983  0.17149150  0.60772650  1
  Fe  Fe108  1  0.97238154  0.33086915  0.39546764  1
  Fe  Fe109  1  0.14104778  0.58882508  0.39128389  1
  Fe  Fe110  1  0.35700407  0.66866577  0.10672886  1
  Fe  Fe111  1  0.69304175  0.83554686  0.60786590  1
  Fe  Fe112  1  0.02479983  0.83178123  0.10676274  1
  Si  Si113  1  0.14053867  0.92012767  0.88681680  1
  Si  Si114  1  0.97242376  0.83390200  0.38400317  1
  Si  Si115  1  0.63812314  0.83850446  0.88349340  1
  Si  Si116  1  0.30502715  0.66044863  0.88791365  1
  Si  Si117  1  0.63864913  0.33140726  0.38312319  1
  Si  Si118  1  0.19016259  0.58173933  0.61578532  1
  Si  Si119  1  0.64017860  0.66801058  0.38757307  1
  Si  Si120  1  0.02008926  0.34047020  0.61459049  1
  Si  Si121  1  0.85611227  0.41407891  0.11855622  1
  Si  Si122  1  0.80612908  0.07871708  0.88807077  1
  Si  Si123  1  0.53266833  0.58493383  0.11061722  1
  Si  Si124  1  0.52685276  0.08034116  0.11269959  1
  Si  Si125  1  0.69505498  0.83305306  0.11277297  1
  Si  Si126  1  0.52907658  0.91507781  0.11214632  1
  Si  Si127  1  0.86468369  0.91364689  0.61101785  1
  Si  Si128  1  0.53100251  0.41995727  0.11149653  1
  Si  Si129  1  0.80133108  0.58535710  0.38534340  1
  Si  Si130  1  0.52678191  0.57614693  0.61698273  1
  Si  Si131  1  0.97925983  0.66395244  0.88725012  1
  Si  Si132  1  0.47846200  0.41422734  0.38534874  1
  Si  Si133  1  0.80307097  0.08147989  0.38309581  1
  Si  Si134  1  0.02350329  0.66511668  0.61544615  1
  Si  Si135  1  0.68691758  0.66498154  0.61376172  1
  Si  Si136  1  0.36493090  0.16920548  0.61265476  1
  Si  Si137  1  0.02306861  0.16709622  0.11637105  1
  Si  Si138  1  0.64513978  0.15958388  0.88884838  1
  Si  Si139  1  0.13448158  0.07869523  0.38626312  1
  Si  Si140  1  0.14346666  0.41786994  0.88509896  1
  Si  Si141  1  0.85664153  0.42178140  0.61791209  1
  Si  Si142  1  0.19094030  0.91921523  0.11075041  1
  Si  Si143  1  0.18750356  0.58023567  0.11048994  1
  Si  Si144  1  0.80662892  0.91688392  0.38359396  1
  Si  Si145  1  0.52684760  0.41172722  0.61748433  1
  Si  Si146  1  0.85573290  0.58554447  0.61667017  1
  Si  Si147  1  0.02791398  0.83035215  0.61400259  1
  Si  Si148  1  0.52833048  0.92632858  0.60915601  1
  Si  Si149  1  0.69352474  0.33332858  0.11462103  1
  Si  Si150  1  0.18533826  0.41457205  0.11279052  1
  Si  Si151  1  0.31289889  0.33391602  0.38891491  1
  Si  Si152  1  0.64125649  0.16758614  0.38336098  1
  Si  Si153  1  0.47414050  0.40877476  0.89046359  1
  Si  Si154  1  0.52899162  0.09104263  0.61568568  1
  Si  Si155  1  0.14133081  0.91398150  0.38400758  1
  Si  Si156  1  0.35800556  0.16102247  0.11025232  1
  Si  Si157  1  0.80892668  0.58958000  0.88667303  1
  Si  Si158  1  0.96752984  0.66792193  0.38724397  1
  Si  Si159  1  0.48049651  0.08110069  0.38640509  1
  Si  Si160  1  0.97105370  0.16054637  0.38762654  1
  Si  Si161  1  0.69603770  0.33197873  0.61748671  1
  Si  Si162  1  0.14844545  0.08351641  0.88870409  1
  Si  Si163  1  0.35872546  0.66038399  0.61348397  1
  Si  Si164  1  0.80438640  0.91435053  0.88551325  1
  Si  Si165  1  0.13968149  0.58098910  0.88467386  1
  Si  Si166  1  0.64067608  0.83459057  0.38358618  1
  Si  Si167  1  0.69990413  0.66512442  0.11391471  1
  Si  Si168  1  0.64288751  0.67323744  0.88796793  1
  Si  Si169  1  0.81003811  0.42345994  0.89109320  1
  Si  Si170  1  0.19099360  0.41630554  0.61569965  1
  Si  Si171  1  0.35911756  0.83856789  0.11123778  1
  Si  Si172  1  0.48195244  0.91874028  0.38241165  1
  Si  Si173  1  0.35774870  0.33360551  0.61595318  1
  Si  Si174  1  0.85496150  0.92088416  0.10977496  1
  Si  Si175  1  0.47624808  0.08560478  0.88385428  1
  Si  Si176  1  0.02030686  0.66158709  0.11135006  1
  Si  Si177  1  0.18730714  0.91489667  0.60846599  1
  Si  Si178  1  0.31319383  0.83994982  0.38416551  1
  Si  Si179  1  0.79950194  0.41777965  0.39026873  1
  Si  Si180  1  0.85510114  0.08640214  0.11460198  1
  Si  Si181  1  0.18784651  0.08355817  0.11331460  1
  Si  Si182  1  0.47460803  0.92071721  0.88661806  1
  Si  Si183  1  0.02258239  0.33113095  0.11816635  1
  Si  Si184  1  0.86012867  0.08030329  0.61193544  1
  Si  Si185  1  0.15069472  0.41742146  0.39194205  1
  Si  Si186  1  0.85952081  0.57855565  0.11602616  1
  Si  Si187  1  0.31046924  0.16832451  0.88430551  1
  Si  Si188  1  0.69772841  0.16595316  0.61653657  1
  Si  Si189  1  0.30544425  0.33264545  0.88491217  1
  Si  Si190  1  0.97732932  0.34009379  0.89027805  1
  Si  Si191  1  0.68963322  0.16863738  0.11363010  1
  O  O192  1  0.26836721  0.11692260  0.08376484  1
  O  O193  1  0.29583538  0.11327127  0.57701930  1
  O  O194  1  0.26042956  0.61094870  0.07298047  1
  O  O195  1  0.27217201  0.61208260  0.58771269  1
  O  O196  1  0.60265973  0.12400162  0.08367674  1
  O  O197  1  0.61135943  0.12183771  0.58627130  1
  O  O198  1  0.61270579  0.62386911  0.08169504  1
  O  O199  1  0.60809154  0.60859643  0.58830324  1
  O  O200  1  0.93660023  0.12081312  0.08699515  1
  O  O201  1  0.93050551  0.11264875  0.57281641  1
  O  O202  1  0.93960925  0.60748931  0.08329087  1
  O  O203  1  0.93759529  0.61746039  0.58776784  1
  O  O204  1  0.09700793  0.36865861  0.08466749  1
  O  O205  1  0.10508769  0.37089288  0.58753615  1
  O  O206  1  0.11786644  0.86730243  0.07202311  1
  O  O207  1  0.11044021  0.85462475  0.58365056  1
  O  O208  1  0.44662860  0.37902936  0.07499752  1
  O  O209  1  0.43929005  0.36835229  0.58782199  1
  O  O210  1  0.43943705  0.87760632  0.08189440  1
  O  O211  1  0.45171720  0.87595179  0.57302718  1
  O  O212  1  0.77351658  0.36549835  0.08379030  1
  O  O213  1  0.77376075  0.37180709  0.58822317  1
  O  O214  1  0.76709077  0.87640772  0.07963938  1
  O  O215  1  0.79047082  0.86148552  0.57373943  1
  O  O216  1  0.25615576  0.38064352  0.07463151  1
  O  O217  1  0.27258640  0.38187516  0.58789866  1
  O  O218  1  0.28180136  0.89776152  0.08893867  1
  O  O219  1  0.26540630  0.88651435  0.57461263  1
  O  O220  1  0.61110158  0.38048770  0.08323179  1
  O  O221  1  0.60576069  0.37271461  0.58909507  1
  O  O222  1  0.60384785  0.87168954  0.08212334  1
  O  O223  1  0.61343997  0.90759326  0.57979698  1
  O  O224  1  0.93594450  0.37685309  0.08916328  1
  O  O225  1  0.94256395  0.39921078  0.59088519  1
  O  O226  1  0.93075817  0.89229234  0.07531002  1
  O  O227  1  0.95116294  0.88545249  0.58356586  1
  O  O228  1  0.10227544  0.13212979  0.08585734  1
  O  O229  1  0.11510649  0.15050037  0.56748356  1
  O  O230  1  0.09995083  0.62575952  0.08222775  1
  O  O231  1  0.10390968  0.62842617  0.58774774  1
  O  O232  1  0.43468791  0.11527788  0.08252881  1
  O  O233  1  0.45517122  0.14942329  0.58757616  1
  O  O234  1  0.44892925  0.62629029  0.07407789  1
  O  O235  1  0.43825584  0.61726668  0.58873516  1
  O  O236  1  0.77034673  0.13388778  0.08478746  1
  O  O237  1  0.77122496  0.12629570  0.58401498  1
  O  O238  1  0.77645503  0.62669762  0.08151297  1
  O  O239  1  0.77193251  0.63282865  0.58722246  1
  O  O240  1  0.04542338  0.10074993  0.41065146  1
  O  O241  1  0.07409807  0.11243045  0.92636938  1
  O  O242  1  0.04609081  0.62278905  0.42554832  1
  O  O243  1  0.05234069  0.60150079  0.91160373  1
  O  O244  1  0.40379100  0.10500269  0.42268263  1
  O  O245  1  0.39600829  0.12112805  0.91314926  1
  O  O246  1  0.39356959  0.61030453  0.43301547  1
  O  O247  1  0.37162387  0.59798389  0.91727628  1
  O  O248  1  0.72365947  0.11678948  0.41242237  1
  O  O249  1  0.71557852  0.09648241  0.91391505  1
  O  O250  1  0.72809380  0.62362206  0.42039853  1
  O  O251  1  0.73073367  0.62692992  0.91557727  1
  O  O252  1  0.23471124  0.36707016  0.42123767  1
  O  O253  1  0.22143895  0.36286316  0.91260199  1
  O  O254  1  0.23044110  0.87414960  0.41362974  1
  O  O255  1  0.21125613  0.86292750  0.92130332  1
  O  O256  1  0.55248476  0.35213503  0.41104172  1
  O  O257  1  0.54070381  0.34601581  0.91948902  1
  O  O258  1  0.56114856  0.86599311  0.41667839  1
  O  O259  1  0.55843934  0.87007024  0.91511239  1
  O  O260  1  0.88055601  0.37396532  0.42922021  1
  O  O261  1  0.89948509  0.38122264  0.91846041  1
  O  O262  1  0.89619337  0.87660300  0.41343761  1
  O  O263  1  0.87462829  0.85777122  0.92069362  1
  O  O264  1  0.07233275  0.38274870  0.42258647  1
  O  O265  1  0.06035782  0.39278040  0.91509573  1
  O  O266  1  0.06318487  0.87366873  0.41304958  1
  O  O267  1  0.05356036  0.90695964  0.91550465  1
  O  O268  1  0.39534981  0.38557817  0.41561965  1
  O  O269  1  0.38275065  0.38703103  0.91360135  1
  O  O270  1  0.39256208  0.89820288  0.40634987  1
  O  O271  1  0.39864621  0.89333724  0.92198018  1
  O  O272  1  0.71464336  0.38563930  0.41802763  1
  O  O273  1  0.73540986  0.39198451  0.92583683  1
  O  O274  1  0.72806865  0.88109503  0.41346145  1
  O  O275  1  0.71572794  0.89284906  0.91267352  1
  O  O276  1  0.21074520  0.12929419  0.42061543  1
  O  O277  1  0.23343254  0.13354825  0.91671188  1
  O  O278  1  0.22022075  0.65287629  0.43178237  1
  O  O279  1  0.21338371  0.63869600  0.91159524  1
  O  O280  1  0.56235261  0.13465782  0.41439431  1
  O  O281  1  0.55836214  0.13498939  0.91608297  1
  O  O282  1  0.56942707  0.64131155  0.42905061  1
  O  O283  1  0.56772267  0.64338090  0.92300778  1
  O  O284  1  0.88667630  0.12729136  0.41360187  1
  O  O285  1  0.88014204  0.13078983  0.92637875  1
  O  O286  1  0.88548994  0.63338817  0.41519419  1
  O  O287  1  0.89378172  0.63627551  0.91483481  1
  O  O288  1  0.17080845  0.00294524  0.08204762  1
  O  O289  1  0.15541168  -0.00818219  0.57642591  1
  O  O290  1  0.16404259  0.49682291  0.08431462  1
  O  O291  1  0.17480893  0.49888921  0.58793596  1
  O  O292  1  0.52884514  -0.00169904  0.08260476  1
  O  O293  1  0.50392109  0.01133436  0.58533561  1
  O  O294  1  0.52994549  0.50192495  0.08015814  1
  O  O295  1  0.51671085  0.49348257  0.58785050  1
  O  O296  1  0.83522332  0.00547553  0.08481989  1
  O  O297  1  0.84299718  -0.00322848  0.58387775  1
  O  O298  1  0.84281418  0.49574122  0.08624029  1
  O  O299  1  0.83469541  0.50339951  0.58903536  1
  O  O300  1  0.00730644  0.24874429  0.08617089  1
  O  O301  1  -0.01147458  0.26630572  0.57981805  1
  O  O302  1  -0.00312478  0.73830532  0.07518291  1
  O  O303  1  0.00535885  0.74696114  0.58628968  1
  O  O304  1  0.35030146  0.23765027  0.07307725  1
  O  O305  1  0.34250657  0.25298478  0.58471984  1
  O  O306  1  0.33824061  0.76400309  0.07116707  1
  O  O307  1  0.34760392  0.73693537  0.57720616  1
  O  O308  1  0.67710980  0.25060581  0.08489261  1
  O  O309  1  0.68899477  0.24961193  0.58787751  1
  O  O310  1  0.69325490  0.74951824  0.08587304  1
  O  O311  1  0.66247917  0.74070795  0.57801491  1
  O  O312  1  0.14986372  -0.00440220  0.41399762  1
  O  O313  1  0.17593302  0.00125455  0.91304489  1
  O  O314  1  0.16940628  0.49610245  0.42606628  1
  O  O315  1  0.16807910  0.49965135  0.91232430  1
  O  O316  1  0.51111871  -0.00057123  0.41229131  1
  O  O317  1  0.49650929  0.00416665  0.91446392  1
  O  O318  1  0.51109366  0.48731150  0.42393753  1
  O  O319  1  0.50703029  0.48553129  0.92213510  1
  O  O320  1  0.81538372  -0.00044178  0.41283995  1
  O  O321  1  0.82885815  -0.00409490  0.91475046  1
  O  O322  1  0.81053026  0.50288712  0.41636189  1
  O  O323  1  0.82602059  0.50796029  0.91604491  1
  O  O324  1  0.33433656  0.25564069  0.42301297  1
  O  O325  1  0.32568497  0.25124520  0.91496869  1
  O  O326  1  0.34171491  0.76748178  0.42445452  1
  O  O327  1  0.33507344  0.73748273  0.91989316  1
  O  O328  1  0.66307084  0.24881236  0.41265833  1
  O  O329  1  0.67963689  0.23411036  0.92445041  1
  O  O330  1  0.66273349  0.75326016  0.41094861  1
  O  O331  1  0.66338793  0.75727717  0.91273102  1
  O  O332  1  0.99270214  0.23487476  0.42643617  1
  O  O333  1  0.99414487  0.26325870  0.92623409  1
  O  O334  1  0.97432149  0.75287022  0.41489499  1
  O  O335  1  1.01035679  0.73964612  0.92014924  1
  O  O336  1  0.20551576  0.08385131  0.19341956  1
  O  O337  1  0.20906205  0.08416094  0.69849458  1
  O  O338  1  0.20901114  0.58218607  0.19083530  1
  O  O339  1  0.20815956  0.58188179  0.69649173  1
  O  O340  1  0.54521567  0.08256849  0.19297967  1
  O  O341  1  0.54745275  0.08731172  0.69608912  1
  O  O342  1  0.54783569  0.58123058  0.19019505  1
  O  O343  1  0.54579937  0.57931637  0.69747082  1
  O  O344  1  0.87369138  0.08492013  0.19516241  1
  O  O345  1  0.87913851  0.08630470  0.69170136  1
  O  O346  1  0.87853056  0.58500273  0.19512572  1
  O  O347  1  0.87544319  0.58402957  0.69737748  1
  O  O348  1  0.04604497  0.32638983  0.19704712  1
  O  O349  1  0.04110876  0.33732900  0.69598046  1
  O  O350  1  0.04213313  0.83277171  0.19843085  1
  O  O351  1  0.04519868  0.83079438  0.69433970  1
  O  O352  1  0.37417229  0.33178941  0.19970965  1
  O  O353  1  0.37704204  0.33358817  0.69656474  1
  O  O354  1  0.37985699  0.82997434  0.19031891  1
  O  O355  1  0.38058017  0.83263656  0.69903111  1
  O  O356  1  0.70974596  0.33163586  0.19474624  1
  O  O357  1  0.71398467  0.33389806  0.69783369  1
  O  O358  1  0.71532409  0.84052075  0.19185541  1
  O  O359  1  0.71204825  0.83254645  0.69967614  1
  O  O360  1  0.20692768  0.41397980  0.19346864  1
  O  O361  1  0.20974224  0.41602700  0.69639630  1
  O  O362  1  0.19612128  0.91920895  0.19030022  1
  O  O363  1  0.20666243  0.91547561  0.68988869  1
  O  O364  1  0.54614817  0.41923281  0.19143469  1
  O  O365  1  0.54400013  0.41442984  0.69793898  1
  O  O366  1  0.54660560  0.91848043  0.19202332  1
  O  O367  1  0.54319519  0.92002674  0.69079983  1
  O  O368  1  0.86669747  0.41418510  0.19665247  1
  O  O369  1  0.87388084  0.41907442  0.69871179  1
  O  O370  1  0.87407971  0.91815887  0.19096537  1
  O  O371  1  0.87999655  0.91205507  0.69090886  1
  O  O372  1  0.04103989  0.16551417  0.19671091  1
  O  O373  1  0.04627034  0.16875080  0.70015877  1
  O  O374  1  0.03946440  0.66649071  0.19188583  1
  O  O375  1  0.04204376  0.66484662  0.69602187  1
  O  O376  1  0.37733277  0.16478368  0.19070648  1
  O  O377  1  0.38097714  0.17110485  0.69289043  1
  O  O378  1  0.37355120  0.66779332  0.19613185  1
  O  O379  1  0.37544894  0.66405214  0.69453421  1
  O  O380  1  0.70883382  0.16586858  0.19388838  1
  O  O381  1  0.71356004  0.16752127  0.69695301  1
  O  O382  1  0.71777849  0.66047560  0.19275460  1
  O  O383  1  0.70787134  0.66518324  0.69501757  1
  O  O384  1  0.11973757  0.08178854  0.30498905  1
  O  O385  1  0.12549136  0.08529149  0.80827461  1
  O  O386  1  0.12219140  0.58567743  0.29915980  1
  O  O387  1  0.12173897  0.58109288  0.80371424  1
  O  O388  1  0.46071499  0.08371124  0.30542794  1
  O  O389  1  0.46123826  0.08413431  0.80426978  1
  O  O390  1  0.45383167  0.57902906  0.29923586  1
  O  O391  1  0.45651658  0.58182142  0.80029083  1
  O  O392  1  0.78722769  0.08206733  0.30259765  1
  O  O393  1  0.78974832  0.08635399  0.80803039  1
  O  O394  1  0.78400462  0.58681792  0.30617767  1
  O  O395  1  0.78966895  0.58600076  0.80577259  1
  O  O396  1  0.29104548  0.33273077  0.30806593  1
  O  O397  1  0.28822722  0.33264889  0.80427938  1
  O  O398  1  0.28524193  0.83006692  0.30526336  1
  O  O399  1  0.28688105  0.83225972  0.79758160  1
  O  O400  1  0.62575957  0.33172007  0.30350899  1
  O  O401  1  0.62516557  0.33177260  0.80226044  1
  O  O402  1  0.62136010  0.84162457  0.30464590  1
  O  O403  1  0.61924259  0.83575552  0.80306704  1
  O  O404  1  0.94640933  0.32254687  0.30572923  1
  O  O405  1  0.95763849  0.33711217  0.80897108  1
  O  O406  1  0.95439208  0.83578373  0.30371940  1
  O  O407  1  0.95403450  0.83216198  0.79812508  1
  O  O408  1  0.13693697  0.41733176  0.31142581  1
  O  O409  1  0.12329223  0.41722970  0.80434729  1
  O  O410  1  0.12147011  0.91649232  0.30373297  1
  O  O411  1  0.12414884  0.91700369  0.80505572  1
  O  O412  1  0.45714624  0.41923396  0.30551654  1
  O  O413  1  0.45657089  0.41275095  0.80822815  1
  O  O414  1  0.47017921  0.91862832  0.30315717  1
  O  O415  1  0.45902654  0.91886808  0.80598980  1
  O  O416  1  0.78389064  0.41189164  0.31060146  1
  O  O417  1  0.79136209  0.41921992  0.80967148  1
  O  O418  1  0.79010522  0.91744538  0.30314279  1
  O  O419  1  0.78761273  0.91399960  0.80548443  1
  O  O420  1  0.28925943  0.16642246  0.29824222  1
  O  O421  1  0.28921240  0.17158512  0.80503309  1
  O  O422  1  0.28756847  0.66705536  0.29996614  1
  O  O423  1  0.28840020  0.66317187  0.80583650  1
  O  O424  1  0.62327541  0.16579279  0.30302225  1
  O  O425  1  0.62531028  0.16500000  0.80764980  1
  O  O426  1  0.62041737  0.65779564  0.30920611  1
  O  O427  1  0.62454255  0.66822194  0.80674042  1
  O  O428  1  0.95284085  0.16341251  0.30628845  1
  O  O429  1  0.95552279  0.16791881  0.80266782  1
  O  O430  1  0.95582059  0.66969098  0.30652212  1
  O  O431  1  0.95738342  0.66490824  0.80592201  1
  F  F432  1  0.04127090  0.00217371  0.20149585  1
  F  F433  1  0.04671066  0.00003133  0.70338366  1
  F  F434  1  0.04630355  0.50448887  0.19926303  1
  F  F435  1  0.04294525  0.50007079  0.70264469  1
  F  F436  1  0.38447883  0.01169453  0.19748058  1
  F  F437  1  0.38115822  -0.00365059  0.69943055  1
  F  F438  1  0.37695011  0.49673309  0.19694192  1
  F  F439  1  0.37829786  0.49562370  0.70286204  1
  F  F440  1  0.71136001  0.00133843  0.19886694  1
  F  F441  1  0.71027964  0.00295458  0.70107279  1
  F  F442  1  0.70874567  0.49894384  0.20278498  1
  F  F443  1  0.71188664  0.49921058  0.70551592  1
  F  F444  1  0.20904799  0.25091925  0.20268819  1
  F  F445  1  0.21176614  0.25299740  0.70080140  1
  F  F446  1  0.20899807  0.75125309  0.19861469  1
  F  F447  1  0.20988642  0.74513579  0.70000506  1
  F  F448  1  0.54750359  0.24162162  0.19537920  1
  F  F449  1  0.54749346  0.24912887  0.70349758  1
  F  F450  1  0.53612266  0.75577575  0.19178126  1
  F  F451  1  0.54491042  0.74762291  0.70260214  1
  F  F452  1  0.87574460  0.24584305  0.19982043  1
  F  F453  1  0.87736250  0.25473175  0.70422924  1
  F  F454  1  0.87865251  0.74988004  0.19976269  1
  F  F455  1  0.87820541  0.74495842  0.69997924  1
  F  F456  1  0.28186855  0.00995920  0.29939059  1
  F  F457  1  0.28806741  -0.00588858  0.79782881  1
  F  F458  1  0.28805979  0.49952048  0.29346383  1
  F  F459  1  0.28662059  0.49784091  0.79735134  1
  F  F460  1  0.62476448  0.00208707  0.29540027  1
  F  F461  1  0.61993835  -0.00079644  0.79603520  1
  F  F462  1  0.61939233  0.49830636  0.29792073  1
  F  F463  1  0.62353471  0.49981323  0.80081536  1
  F  F464  1  0.95115513  -0.00172919  0.29564275  1
  F  F465  1  0.95655801  0.00161231  0.79664454  1
  F  F466  1  0.95141081  0.51387233  0.30958455  1
  F  F467  1  0.95444996  0.50087188  0.79924699  1
  F  F468  1  0.12067824  0.24781634  0.30045914  1
  F  F469  1  0.12267087  0.25406472  0.79950345  1
  F  F470  1  0.12012522  0.74950613  0.29657391  1
  F  F471  1  0.12109088  0.74842902  0.79657868  1
  F  F472  1  0.45483805  0.24244587  0.29956259  1
  F  F473  1  0.45387673  0.24870970  0.79826029  1
  F  F474  1  0.45301198  0.75873938  0.30206816  1
  F  F475  1  0.45646350  0.74854089  0.79834134  1
  F  F476  1  0.78249491  0.24644267  0.29732384  1
  F  F477  1  0.79007783  0.25056912  0.80078177  1
  F  F478  1  0.79998648  0.75160925  0.30050690  1
  F  F479  1  0.78780556  0.74733021  0.79880146  1
