# generated using pymatgen
data_K24Na3Li5Mg64Fe17Si79(O5F)48
_symmetry_space_group_name_H-M   'P 1'
_cell_length_a   16.10348076
_cell_length_b   18.60421272
_cell_length_c   20.56535764
_cell_angle_alpha   90.00246482
_cell_angle_beta   100.01264239
_cell_angle_gamma   89.99111057
_symmetry_Int_Tables_number   1
_chemical_formula_structural   K24Na3Li5Mg64Fe17Si79(O5F)48
_chemical_formula_sum   'K24 Na3 Li5 Mg64 Fe17 Si79 O240 F48'
_cell_volume   6067.38938971
_cell_formula_units_Z   1
loop_
 _symmetry_equiv_pos_site_id
 _symmetry_equiv_pos_as_xyz
  1  'x, y, z'
loop_
 _atom_site_type_symbol
 _atom_site_label
 _atom_site_symmetry_multiplicity
 _atom_site_fract_x
 _atom_site_fract_y
 _atom_site_fract_z
 _atom_site_occupancy
  K  K0  1  0.00150503  0.00326324  -0.01265256  1
  K  K1  1  0.00995198  0.00736266  0.50701281  1
  K  K2  1  0.00495508  0.48939994  -0.00182098  1
  K  K3  1  0.01901712  0.50098617  0.50471833  1
  K  K4  1  0.33003780  0.00881060  -0.01453239  1
  K  K5  1  0.33784347  0.00277920  0.51013171  1
  K  K6  1  0.33066729  0.49242668  -0.00422031  1
  K  K7  1  0.33131005  0.49121233  0.50936226  1
  K  K8  1  0.66497599  0.01162354  -0.00979985  1
  K  K9  1  0.66584722  0.00360742  0.51681475  1
  K  K10  1  0.64872043  0.50033217  -0.01468823  1
  K  K11  1  0.66025506  0.48863859  0.50441530  1
  K  K12  1  0.17296231  0.25340852  -0.00097371  1
  K  K13  1  0.17191452  0.25055276  0.50499607  1
  K  K14  1  0.16375372  0.75505299  -0.00922253  1
  K  K15  1  0.17813751  0.75158116  0.51137012  1
  K  K16  1  0.50708921  0.25334969  -0.01303183  1
  K  K17  1  0.49230380  0.24896181  0.51510484  1
  K  K18  1  0.49918025  0.74746221  -0.01623361  1
  K  K19  1  0.50396179  0.76421083  0.51356962  1
  K  K20  1  0.81769618  0.25127773  -0.00558140  1
  K  K21  1  0.84228407  0.24020265  0.50466721  1
  K  K22  1  0.82983393  0.74563575  -0.01734794  1
  K  K23  1  0.83505548  0.74303023  0.50925570  1
  Na  Na24  1  0.49811802  0.50151105  0.75199190  1
  Na  Na25  1  0.66378435  0.58025607  0.24557930  1
  Na  Na26  1  0.00171789  0.08109084  0.74739403  1
  Li  Li27  1  0.16497841  0.00417570  0.25601340  1
  Li  Li28  1  0.33192868  0.24519785  0.74955898  1
  Li  Li29  1  0.33275311  0.92670010  0.74774762  1
  Li  Li30  1  0.33314358  0.08185482  0.74961184  1
  Li  Li31  1  0.16736263  0.33625058  0.25042222  1
  Mg  Mg32  1  0.00003240  0.74997460  0.25211879  1
  Mg  Mg33  1  0.00341674  0.25058751  0.25278154  1
  Mg  Mg34  1  0.83365134  0.49983532  0.75291755  1
  Mg  Mg35  1  0.83408246  0.49903416  0.24924117  1
  Mg  Mg36  1  0.33368482  0.75348215  0.74757131  1
  Mg  Mg37  1  0.66592244  0.74846417  0.24878557  1
  Mg  Mg38  1  0.49814283  -0.00013575  0.24808946  1
  Mg  Mg39  1  0.17286193  0.00148265  0.75048087  1
  Mg  Mg40  1  0.49517669  0.00298566  0.74981925  1
  Mg  Mg41  1  0.50048226  0.49899052  0.24591827  1
  Mg  Mg42  1  0.66312853  0.25052582  0.75226287  1
  Mg  Mg43  1  0.83293093  0.00091905  0.24848278  1
  Mg  Mg44  1  0.00086835  0.24812254  0.74796765  1
  Mg  Mg45  1  0.33030879  0.25090664  0.24870303  1
  Mg  Mg46  1  0.00145253  0.74978345  0.74958999  1
  Mg  Mg47  1  0.66728351  0.25032589  0.24395996  1
  Mg  Mg48  1  0.16876088  0.50135768  0.74677499  1
  Mg  Mg49  1  0.66658056  0.74957532  0.75097521  1
  Mg  Mg50  1  0.33147302  0.75070120  0.24922082  1
  Mg  Mg51  1  0.83563137  -0.00103541  0.75112118  1
  Mg  Mg52  1  0.16769197  0.49535654  0.24972839  1
  Mg  Mg53  1  0.83241558  0.16629104  0.24830692  1
  Mg  Mg54  1  0.33221321  0.41413111  0.74944986  1
  Mg  Mg55  1  0.66286581  0.41701354  0.75208535  1
  Mg  Mg56  1  0.49842013  0.83376023  0.24939641  1
  Mg  Mg57  1  0.66421933  0.41720809  0.24489991  1
  Mg  Mg58  1  0.49739188  0.33236882  0.75220147  1
  Mg  Mg59  1  0.66674381  0.91556199  0.75162040  1
  Mg  Mg60  1  0.83422928  0.33479540  0.24871010  1
  Mg  Mg61  1  0.83196283  0.66497259  0.24977186  1
  Mg  Mg62  1  0.00206204  0.58453712  0.74919056  1
  Mg  Mg63  1  0.83337675  0.83395539  0.25067644  1
  Mg  Mg64  1  0.33071515  0.41334274  0.24766567  1
  Mg  Mg65  1  0.16699054  0.33097222  0.74721882  1
  Mg  Mg66  1  0.16586353  0.66693943  0.74812882  1
  Mg  Mg67  1  0.83447837  0.16503443  0.75042131  1
  Mg  Mg68  1  0.17129827  0.16565710  0.74561313  1
  Mg  Mg69  1  0.49920711  0.66559313  0.24725862  1
  Mg  Mg70  1  0.32928695  0.91828418  0.25137373  1
  Mg  Mg71  1  0.83460060  0.66493587  0.75114201  1
  Mg  Mg72  1  0.00564943  0.41341454  0.25000782  1
  Mg  Mg73  1  0.83179973  0.33317191  0.75213744  1
  Mg  Mg74  1  0.00043817  0.91525214  0.74998814  1
  Mg  Mg75  1  0.49673205  0.83751325  0.74925722  1
  Mg  Mg76  1  0.16674807  0.66503539  0.24979059  1
  Mg  Mg77  1  0.00148997  0.58265589  0.25173987  1
  Mg  Mg78  1  0.49855095  0.33453213  0.24285239  1
  Mg  Mg79  1  0.00407511  0.08294925  0.25286985  1
  Mg  Mg80  1  -0.00016305  0.41536954  0.74920088  1
  Mg  Mg81  1  0.16694673  0.16577547  0.25486917  1
  Mg  Mg82  1  0.66495442  0.08490819  0.24556188  1
  Mg  Mg83  1  0.00307105  0.91797810  0.25427769  1
  Mg  Mg84  1  0.32952161  0.08310166  0.25256292  1
  Mg  Mg85  1  0.33238887  0.58299905  0.24665084  1
  Mg  Mg86  1  0.16833465  0.83609543  0.75109005  1
  Mg  Mg87  1  0.16593494  0.83656492  0.25284826  1
  Mg  Mg88  1  0.49804791  0.16536690  0.24616171  1
  Mg  Mg89  1  0.66712114  0.08530570  0.75108931  1
  Mg  Mg90  1  0.49910229  0.66732175  0.75042963  1
  Mg  Mg91  1  0.83418770  0.83327519  0.75077855  1
  Mg  Mg92  1  0.66482355  0.58484419  0.75167627  1
  Mg  Mg93  1  0.33256638  0.58610463  0.74779809  1
  Mg  Mg94  1  0.66602111  0.91546999  0.24915833  1
  Mg  Mg95  1  0.49844958  0.16703086  0.75566741  1
  Fe  Fe96  1  0.64151847  0.16373506  0.89231393  1
  Fe  Fe97  1  0.69345585  0.82662851  0.61230862  1
  Fe  Fe98  1  0.02811852  0.16893807  0.60701291  1
  Fe  Fe99  1  0.53257802  0.58090540  0.60847128  1
  Fe  Fe100  1  0.14365916  0.08327987  0.39332145  1
  Fe  Fe101  1  0.63934988  0.34055153  0.89273093  1
  Fe  Fe102  1  0.69112599  0.16860778  0.10764410  1
  Fe  Fe103  1  0.52431943  0.42094303  0.10487811  1
  Fe  Fe104  1  0.97933372  0.83298191  0.89056929  1
  Fe  Fe105  1  0.64179807  0.66718337  0.89301893  1
  Fe  Fe106  1  0.02517839  0.66847983  0.60878737  1
  Fe  Fe107  1  0.19964768  0.58600397  0.60751282  1
  Fe  Fe108  1  0.85602768  0.08059182  0.60885373  1
  Fe  Fe109  1  0.35842503  0.16153900  0.61695309  1
  Fe  Fe110  1  0.19297973  0.41414084  0.10813757  1
  Fe  Fe111  1  0.14563412  0.41412867  0.39075996  1
  Fe  Fe112  1  0.36978266  0.67324950  0.60662279  1
  Si  Si113  1  0.97831366  0.16912651  0.88582104  1
  Si  Si114  1  0.85831810  0.58348349  0.11434811  1
  Si  Si115  1  0.69243881  0.66868060  0.11360809  1
  Si  Si116  1  0.47615966  0.58284399  0.38259358  1
  Si  Si117  1  0.86274805  0.57900909  0.61540869  1
  Si  Si118  1  0.18857645  0.91723703  0.61732497  1
  Si  Si119  1  0.97216433  0.66582748  0.38587232  1
  Si  Si120  1  0.85920154  0.91343083  0.61169848  1
  Si  Si121  1  0.69152150  0.83312695  0.11372970  1
  Si  Si122  1  0.80672140  0.91673531  0.38518735  1
  Si  Si123  1  0.64055662  0.84124562  0.88981384  1
  Si  Si124  1  0.19068987  0.08320876  0.11775034  1
  Si  Si125  1  0.85791707  0.91635809  0.11588551  1
  Si  Si126  1  0.85456051  0.41728180  0.61653856  1
  Si  Si127  1  0.80899117  0.91775958  0.88856051  1
  Si  Si128  1  0.02387722  0.83435613  0.11708492  1
  Si  Si129  1  0.81564575  0.08288650  0.88937488  1
  Si  Si130  1  0.51695814  0.59125634  0.10900541  1
  Si  Si131  1  0.35300013  0.83673947  0.11481646  1
  Si  Si132  1  0.35615649  0.84215922  0.61317611  1
  Si  Si133  1  0.69952754  0.65834429  0.61283730  1
  Si  Si134  1  0.86539932  0.41694959  0.11505344  1
  Si  Si135  1  0.18863054  0.91875015  0.11767042  1
  Si  Si136  1  0.52131032  0.07804584  0.11118294  1
  Si  Si137  1  0.14388781  0.58809767  0.38649447  1
  Si  Si138  1  0.30613265  0.16863053  0.88426680  1
  Si  Si139  1  0.97986709  0.66260114  0.88901149  1
  Si  Si140  1  0.02355316  0.32785612  0.11268762  1
  Si  Si141  1  0.47660815  0.41722127  0.38199985  1
  Si  Si142  1  0.96930995  0.33363541  0.38768678  1
  Si  Si143  1  0.52603191  0.92061435  0.61390632  1
  Si  Si144  1  0.19020162  0.41483244  0.61400051  1
  Si  Si145  1  0.52218786  0.91259468  0.11396314  1
  Si  Si146  1  0.35633776  0.33030899  0.61558259  1
  Si  Si147  1  0.86430074  0.08163108  0.11373379  1
  Si  Si148  1  0.02605050  0.16451519  0.11617243  1
  Si  Si149  1  0.47535486  0.08146048  0.38427390  1
  Si  Si150  1  0.81439055  0.58184014  0.88859466  1
  Si  Si151  1  0.47112199  0.91611028  0.88510807  1
  Si  Si152  1  0.14092420  0.41431586  0.88358215  1
  Si  Si153  1  0.14078503  0.57837944  0.88591059  1
  Si  Si154  1  0.69393474  0.17007316  0.61391406  1
  Si  Si155  1  0.31154014  0.66670811  0.38327347  1
  Si  Si156  1  0.63984413  0.33151179  0.38122321  1
  Si  Si157  1  0.19227861  0.07927985  0.61142541  1
  Si  Si158  1  0.80772388  0.58254714  0.38429234  1
  Si  Si159  1  0.64129722  0.83242994  0.38497134  1
  Si  Si160  1  0.80341220  0.41701724  0.38398851  1
  Si  Si161  1  0.14288834  0.90957749  0.39062054  1
  Si  Si162  1  0.30670236  0.83312609  0.88518657  1
  Si  Si163  1  0.96669524  0.16630648  0.38624630  1
  Si  Si164  1  0.46247844  0.41920406  0.88809319  1
  Si  Si165  1  0.47015284  0.08050874  0.88914905  1
  Si  Si166  1  0.02325246  0.66907236  0.11548008  1
  Si  Si167  1  0.64010267  0.66831451  0.38363787  1
  Si  Si168  1  0.02466444  0.83704108  0.61388589  1
  Si  Si169  1  0.97629274  0.33215671  0.88581155  1
  Si  Si170  1  0.02011702  0.33715941  0.61254643  1
  Si  Si171  1  0.63737189  0.16620478  0.38270257  1
  Si  Si172  1  0.14656863  0.08714450  0.88525083  1
  Si  Si173  1  0.69020444  0.33368474  0.61591095  1
  Si  Si174  1  0.18885481  0.58671554  0.11118253  1
  Si  Si175  1  0.29970060  0.66964627  0.88721703  1
  Si  Si176  1  0.97267634  0.83179549  0.38715856  1
  Si  Si177  1  0.35413442  0.67261625  0.11255392  1
  Si  Si178  1  0.30327867  0.33181932  0.88449012  1
  Si  Si179  1  0.31493440  0.16819254  0.38845938  1
  Si  Si180  1  0.80150080  0.08182394  0.38330364  1
  Si  Si181  1  0.31101333  0.83132954  0.38564102  1
  Si  Si182  1  0.47538046  0.91624794  0.38447555  1
  Si  Si183  1  0.81456532  0.41824248  0.88885936  1
  Si  Si184  1  0.36252859  0.32600223  0.10797750  1
  Si  Si185  1  0.52196421  0.41187493  0.61270714  1
  Si  Si186  1  0.14697349  0.92153954  0.89001713  1
  Si  Si187  1  0.35549099  0.16041283  0.11433737  1
  Si  Si188  1  0.52922328  0.08603070  0.61467753  1
  Si  Si189  1  0.46313346  0.58785031  0.88928516  1
  Si  Si190  1  0.31858348  0.33106635  0.38706887  1
  Si  Si191  1  0.69614055  0.34127468  0.11107645  1
  O  O192  1  0.27147706  0.11172562  0.08535440  1
  O  O193  1  0.27780952  0.09340291  0.58173449  1
  O  O194  1  0.26930247  0.62612740  0.08385385  1
  O  O195  1  0.28895138  0.60911587  0.56646225  1
  O  O196  1  0.59825121  0.10723713  0.07895828  1
  O  O197  1  0.61254499  0.11802093  0.58678770  1
  O  O198  1  0.60270490  0.62809286  0.08698174  1
  O  O199  1  0.63864635  0.59297768  0.58232005  1
  O  O200  1  0.95146876  0.10648636  0.08772852  1
  O  O201  1  0.94181837  0.10972711  0.56646661  1
  O  O202  1  0.93667615  0.62387235  0.08612639  1
  O  O203  1  0.94293873  0.59575130  0.58071309  1
  O  O204  1  0.10006130  0.35329668  0.07657221  1
  O  O205  1  0.10553995  0.36539695  0.58635147  1
  O  O206  1  0.10410323  0.87008437  0.08869167  1
  O  O207  1  0.11065408  0.86249752  0.58582647  1
  O  O208  1  0.44687220  0.34620070  0.07844933  1
  O  O209  1  0.43962052  0.35998511  0.58492566  1
  O  O210  1  0.43645094  0.86568621  0.08633013  1
  O  O211  1  0.43394568  0.88370225  0.58443387  1
  O  O212  1  0.78565906  0.36546202  0.08708429  1
  O  O213  1  0.77322070  0.36519477  0.58648907  1
  O  O214  1  0.77009974  0.87262866  0.08654796  1
  O  O215  1  0.79330095  0.85027726  0.58094444  1
  O  O216  1  0.28460431  0.37588300  0.07301446  1
  O  O217  1  0.27337183  0.38206764  0.58740682  1
  O  O218  1  0.26971810  0.88619102  0.08652872  1
  O  O219  1  0.27195131  0.89252550  0.58649978  1
  O  O220  1  0.62930866  0.40285111  0.08145678  1
  O  O221  1  0.60634154  0.37994797  0.58325834  1
  O  O222  1  0.60242561  0.87601849  0.08609832  1
  O  O223  1  0.59734357  0.88326037  0.57778582  1
  O  O224  1  0.94380630  0.38305728  0.08388661  1
  O  O225  1  0.93943018  0.39372948  0.58744253  1
  O  O226  1  0.93715601  0.87854555  0.08797331  1
  O  O227  1  0.95201582  0.89845023  0.58879830  1
  O  O228  1  0.10979847  0.13475445  0.08751303  1
  O  O229  1  0.12234571  0.13557037  0.57372280  1
  O  O230  1  0.10437668  0.63824442  0.08611345  1
  O  O231  1  0.11326986  0.64548476  0.56685285  1
  O  O232  1  0.43298120  0.12192406  0.08459172  1
  O  O233  1  0.45113198  0.13237080  0.57708167  1
  O  O234  1  0.43716636  0.64782858  0.08221803  1
  O  O235  1  0.46194004  0.65128823  0.56745401  1
  O  O236  1  0.78802685  0.13164971  0.07911746  1
  O  O237  1  0.76718296  0.14495782  0.57463122  1
  O  O238  1  0.77024848  0.62728747  0.08558002  1
  O  O239  1  0.79078231  0.63935366  0.58840318  1
  O  O240  1  0.04753047  0.12224889  0.42175517  1
  O  O241  1  0.06590249  0.12416676  0.91358227  1
  O  O242  1  0.06322622  0.62854258  0.41240526  1
  O  O243  1  0.05898095  0.60653340  0.91651203  1
  O  O244  1  0.39670413  0.11401022  0.41432512  1
  O  O245  1  0.39079386  0.12207684  0.91580214  1
  O  O246  1  0.39471521  0.61705585  0.41018429  1
  O  O247  1  0.38641482  0.62849989  0.92109120  1
  O  O248  1  0.72126586  0.11802043  0.41113885  1
  O  O249  1  0.74329016  0.11393992  0.92649023  1
  O  O250  1  0.72933507  0.62533543  0.41003563  1
  O  O251  1  0.73928116  0.61074876  0.92493034  1
  O  O252  1  0.24234102  0.35791973  0.42253960  1
  O  O253  1  0.22203711  0.36500425  0.91525658  1
  O  O254  1  0.22910206  0.85928106  0.41529341  1
  O  O255  1  0.23890394  0.88150571  0.91851660  1
  O  O256  1  0.56311452  0.37118435  0.41052728  1
  O  O257  1  0.54996349  0.38567705  0.92663313  1
  O  O258  1  0.56146841  0.86998715  0.41263913  1
  O  O259  1  0.56195795  0.87992610  0.91970487  1
  O  O260  1  0.88849234  0.37292903  0.41452055  1
  O  O261  1  0.89871549  0.36749685  0.91698840  1
  O  O262  1  0.89534688  0.87481598  0.41380217  1
  O  O263  1  0.88362291  0.86503098  0.92452828  1
  O  O264  1  0.05293720  0.37388630  0.42407831  1
  O  O265  1  0.06042145  0.38128813  0.91398353  1
  O  O266  1  0.06370443  0.86733379  0.41791115  1
  O  O267  1  0.07710725  0.88589481  0.92854578  1
  O  O268  1  0.40180156  0.38257584  0.41596253  1
  O  O269  1  0.38418861  0.38040013  0.91853267  1
  O  O270  1  0.39561176  0.88049865  0.41330763  1
  O  O271  1  0.40032868  0.86689604  0.91494992  1
  O  O272  1  0.72509842  0.37733146  0.41194605  1
  O  O273  1  0.73927824  0.39392644  0.92575332  1
  O  O274  1  0.72840860  0.87682487  0.41300734  1
  O  O275  1  0.72179532  0.89495131  0.91623431  1
  O  O276  1  0.23838709  0.14282562  0.42368406  1
  O  O277  1  0.23032929  0.13298409  0.92052666  1
  O  O278  1  0.22729960  0.64043414  0.41047062  1
  O  O279  1  0.22209356  0.62915463  0.91690348  1
  O  O280  1  0.55994962  0.12883758  0.41326087  1
  O  O281  1  0.55630427  0.11524682  0.92891167  1
  O  O282  1  0.56232398  0.62872282  0.41210051  1
  O  O283  1  0.55047747  0.62453653  0.92670583  1
  O  O284  1  0.88304456  0.13051521  0.41157042  1
  O  O285  1  0.90450711  0.12785418  0.91784499  1
  O  O286  1  0.89713607  0.62319538  0.41581965  1
  O  O287  1  0.89800465  0.63125920  0.91811991  1
  O  O288  1  0.17037619  0.00054155  0.08867726  1
  O  O289  1  0.16029566  -0.00354303  0.58665194  1
  O  O290  1  0.17123103  0.51040713  0.07499310  1
  O  O291  1  0.16941779  0.49151412  0.57909875  1
  O  O292  1  0.50326802  -0.00635764  0.08539633  1
  O  O293  1  0.51838557  0.00341202  0.58468782  1
  O  O294  1  0.49451190  0.51561231  0.07217605  1
  O  O295  1  0.49988399  0.48772111  0.57554760  1
  O  O296  1  0.84693590  -0.00226207  0.08673527  1
  O  O297  1  0.82243049  -0.01211755  0.57671826  1
  O  O298  1  0.85140252  0.50058696  0.08659892  1
  O  O299  1  0.82635608  0.49811707  0.58944213  1
  O  O300  1  -0.00134525  0.24432875  0.08565887  1
  O  O301  1  -0.00684381  0.26266376  0.57544210  1
  O  O302  1  0.00919896  0.75218531  0.08817332  1
  O  O303  1  -0.00903430  0.76221388  0.57839935  1
  O  O304  1  0.33807921  0.24104439  0.08463335  1
  O  O305  1  0.33312077  0.25378905  0.57988160  1
  O  O306  1  0.33229671  0.75551503  0.08583547  1
  O  O307  1  0.33952016  0.76730062  0.57287607  1
  O  O308  1  0.66835637  0.26310165  0.07992149  1
  O  O309  1  0.66905027  0.25274059  0.58647447  1
  O  O310  1  0.68366620  0.75147712  0.08315113  1
  O  O311  1  0.66727273  0.73413320  0.57769998  1
  O  O312  1  0.15856385  -0.01342961  0.42552621  1
  O  O313  1  0.15860575  0.00564777  0.91807362  1
  O  O314  1  0.15972152  0.51132183  0.42162104  1
  O  O315  1  0.15902580  0.49592505  0.91476502  1
  O  O316  1  0.49145486  -0.00158823  0.41262688  1
  O  O317  1  0.46525151  -0.00359465  0.91763699  1
  O  O318  1  0.49257123  0.50030946  0.40990792  1
  O  O319  1  0.45912749  0.50367495  0.91343783  1
  O  O320  1  0.81290653  -0.00063705  0.41286352  1
  O  O321  1  0.83547711  -0.00048154  0.91639947  1
  O  O322  1  0.80924063  0.49995922  0.41345341  1
  O  O323  1  0.84461483  0.50011894  0.91395067  1
  O  O324  1  0.34843748  0.24903789  0.41309981  1
  O  O325  1  0.31858672  0.25063970  0.91647619  1
  O  O326  1  0.33383101  0.74892919  0.41088181  1
  O  O327  1  0.30522863  0.75176305  0.91918431  1
  O  O328  1  0.65076818  0.24886210  0.41122112  1
  O  O329  1  0.65662474  0.25201241  0.93317594  1
  O  O330  1  0.65205521  0.75057634  0.41474368  1
  O  O331  1  0.65754379  0.76346661  0.92613433  1
  O  O332  1  0.96740676  0.24974309  0.41282922  1
  O  O333  1  0.99292030  0.25114707  0.91801409  1
  O  O334  1  0.97146702  0.74866067  0.41376067  1
  O  O335  1  1.00428267  0.73892750  0.92501529  1
  O  O336  1  0.21226314  0.08429764  0.19706551  1
  O  O337  1  0.20419292  0.08234388  0.69141102  1
  O  O338  1  0.20870951  0.58639178  0.19239813  1
  O  O339  1  0.21025973  0.58580316  0.70013117  1
  O  O340  1  0.54041926  0.07970800  0.19265626  1
  O  O341  1  0.54489661  0.08399730  0.69496166  1
  O  O342  1  0.52947006  0.58657194  0.18903213  1
  O  O343  1  0.54832858  0.59091166  0.69830355  1
  O  O344  1  0.87781448  0.08157176  0.19496424  1
  O  O345  1  0.86677650  0.08224195  0.69899357  1
  O  O346  1  0.87729726  0.58499097  0.19484366  1
  O  O347  1  0.87949686  0.58004887  0.69673891  1
  O  O348  1  0.03713361  0.32995198  0.19271300  1
  O  O349  1  0.03877337  0.33581675  0.69358144  1
  O  O350  1  0.04195022  0.83361728  0.19757942  1
  O  O351  1  0.04524344  0.83228372  0.69474483  1
  O  O352  1  0.37663337  0.32985349  0.18980049  1
  O  O353  1  0.37743447  0.33478485  0.69539172  1
  O  O354  1  0.37405734  0.83573608  0.19540572  1
  O  O355  1  0.37766997  0.83388380  0.69275737  1
  O  O356  1  0.71276327  0.33547092  0.19306410  1
  O  O357  1  0.71125852  0.33492252  0.69594090  1
  O  O358  1  0.70887124  0.83367578  0.19458676  1
  O  O359  1  0.71189211  0.83233141  0.70397485  1
  O  O360  1  0.21456590  0.41901667  0.19827228  1
  O  O361  1  0.20666227  0.41555241  0.69486393  1
  O  O362  1  0.21014116  0.91403719  0.19719418  1
  O  O363  1  0.20701113  0.91548032  0.69675625  1
  O  O364  1  0.54353376  0.41776146  0.19721994  1
  O  O365  1  0.54541167  0.41053114  0.69222811  1
  O  O366  1  0.54191827  0.91381221  0.19476825  1
  O  O367  1  0.54493042  0.91807938  0.69450766  1
  O  O368  1  0.88181335  0.41777827  0.19577700  1
  O  O369  1  0.87444406  0.41548729  0.69710792  1
  O  O370  1  0.87521662  0.91479196  0.19657707  1
  O  O371  1  0.87456148  0.91540213  0.69314060  1
  O  O372  1  0.04249879  0.16592451  0.19626509  1
  O  O373  1  0.05009211  0.17519881  0.69712217  1
  O  O374  1  0.04145717  0.66778046  0.19618650  1
  O  O375  1  0.04460639  0.66665681  0.70142720  1
  O  O376  1  0.37571894  0.16155054  0.19497695  1
  O  O377  1  0.38170247  0.16581506  0.70482798  1
  O  O378  1  0.37357949  0.67038414  0.19329669  1
  O  O379  1  0.37737598  0.67009199  0.69917266  1
  O  O380  1  0.71162902  0.16553973  0.19999966  1
  O  O381  1  0.71229369  0.16936238  0.69457208  1
  O  O382  1  0.71481116  0.67456069  0.19306673  1
  O  O383  1  0.71542544  0.66408677  0.69431855  1
  O  O384  1  0.12133822  0.08389469  0.30246843  1
  O  O385  1  0.13440223  0.08478507  0.80680665  1
  O  O386  1  0.12404191  0.58623337  0.30497104  1
  O  O387  1  0.12309181  0.58022933  0.80630928  1
  O  O388  1  0.45835736  0.08129794  0.30364076  1
  O  O389  1  0.46384386  0.08147587  0.81035758  1
  O  O390  1  0.45711579  0.58482337  0.30198040  1
  O  O391  1  0.44764543  0.59453293  0.81017949  1
  O  O392  1  0.78574971  0.07958382  0.30285843  1
  O  O393  1  0.79243097  0.08429684  0.80902559  1
  O  O394  1  0.79840076  0.58292074  0.30502693  1
  O  O395  1  0.79423861  0.58369910  0.80775834  1
  O  O396  1  0.30106967  0.33236045  0.30679466  1
  O  O397  1  0.28408650  0.33616704  0.80546435  1
  O  O398  1  0.29160371  0.83349455  0.30490794  1
  O  O399  1  0.28719985  0.82922507  0.80641204  1
  O  O400  1  0.62344261  0.33004204  0.30112960  1
  O  O401  1  0.62236453  0.33504788  0.80112963  1
  O  O402  1  0.62279255  0.83381662  0.30415256  1
  O  O403  1  0.62155799  0.83673402  0.80946688  1
  O  O404  1  0.95463376  0.33484810  0.30641682  1
  O  O405  1  0.95706755  0.33372617  0.80565703  1
  O  O406  1  0.95531906  0.83301180  0.30618547  1
  O  O407  1  0.95664841  0.83119801  0.79960649  1
  O  O408  1  0.12072864  0.41890439  0.30042553  1
  O  O409  1  0.12182016  0.41623427  0.80375030  1
  O  O410  1  0.12123660  0.90964168  0.31010360  1
  O  O411  1  0.12541876  0.91601613  0.81025037  1
  O  O412  1  0.45572076  0.41593469  0.30181916  1
  O  O413  1  0.44821907  0.41059492  0.80897857  1
  O  O414  1  0.45712240  0.91553301  0.30385208  1
  O  O415  1  0.46057811  0.91737541  0.80617120  1
  O  O416  1  0.78838375  0.41716262  0.30367101  1
  O  O417  1  0.79442537  0.41536320  0.80808233  1
  O  O418  1  0.78821455  0.91542857  0.30432041  1
  O  O419  1  0.79133625  0.91632960  0.80805643  1
  O  O420  1  0.29453601  0.16575760  0.30736142  1
  O  O421  1  0.28417664  0.16933647  0.80617286  1
  O  O422  1  0.29162486  0.66737101  0.30224749  1
  O  O423  1  0.28490518  0.66988090  0.80773123  1
  O  O424  1  0.61886662  0.16487851  0.30242041  1
  O  O425  1  0.62432042  0.16599022  0.80070038  1
  O  O426  1  0.61814754  0.67408238  0.30416949  1
  O  O427  1  0.62370805  0.66926592  0.80237690  1
  O  O428  1  0.95244901  0.16507547  0.30502611  1
  O  O429  1  0.95355552  0.17506709  0.80732410  1
  O  O430  1  0.95482038  0.66699862  0.30493971  1
  O  O431  1  0.95924986  0.66407133  0.80849235  1
  F  F432  1  0.03758515  -0.00353533  0.20233076  1
  F  F433  1  0.05309458  -0.01124294  0.70286075  1
  F  F434  1  0.04370835  0.50413754  0.20018721  1
  F  F435  1  0.04475848  0.49888050  0.70265108  1
  F  F436  1  0.37765945  -0.00190449  0.20136449  1
  F  F437  1  0.38285260  0.00079179  0.69977212  1
  F  F438  1  0.37742240  0.50068392  0.20073003  1
  F  F439  1  0.36399048  0.49967209  0.70047090  1
  F  F440  1  0.71035905  -0.00333093  0.20015092  1
  F  F441  1  0.71195903  -0.00015587  0.70553313  1
  F  F442  1  0.71995110  0.49316866  0.19752499  1
  F  F443  1  0.71480095  0.49836604  0.70569747  1
  F  F444  1  0.21348590  0.24324858  0.20300695  1
  F  F445  1  0.20738443  0.25196473  0.69900250  1
  F  F446  1  0.20966810  0.75190945  0.20247246  1
  F  F447  1  0.21093826  0.75162856  0.70213408  1
  F  F448  1  0.54505570  0.24687007  0.19858228  1
  F  F449  1  0.54350809  0.24965471  0.70114577  1
  F  F450  1  0.54376655  0.75276893  0.19970310  1
  F  F451  1  0.54529582  0.75565396  0.70366697  1
  F  F452  1  0.87988189  0.25000767  0.20392717  1
  F  F453  1  0.87705039  0.25238231  0.70268369  1
  F  F454  1  0.87901696  0.75091692  0.20288082  1
  F  F455  1  0.87863831  0.74623458  0.70371282  1
  F  F456  1  0.29707325  -0.00137451  0.30257697  1
  F  F457  1  0.28733081  -0.00088454  0.80221250  1
  F  F458  1  0.29082701  0.50426058  0.29782147  1
  F  F459  1  0.28555426  0.49918699  0.80065953  1
  F  F460  1  0.62001335  -0.00132477  0.29578328  1
  F  F461  1  0.62127718  0.00044318  0.79811067  1
  F  F462  1  0.61772113  0.49257756  0.30114014  1
  F  F463  1  0.63532502  0.50049438  0.80513915  1
  F  F464  1  0.95038173  -0.00205465  0.30029835  1
  F  F465  1  0.95192322  -0.01124598  0.80403686  1
  F  F466  1  0.95490096  0.50088608  0.29769679  1
  F  F467  1  0.95687683  0.49850817  0.79864202  1
  F  F468  1  0.11908428  0.24635198  0.30130266  1
  F  F469  1  0.11951866  0.25579297  0.80095764  1
  F  F470  1  0.12155960  0.74928732  0.29815999  1
  F  F471  1  0.12333087  0.75129269  0.80058901  1
  F  F472  1  0.45624178  0.24899916  0.29312684  1
  F  F473  1  0.46637705  0.25116194  0.80702204  1
  F  F474  1  0.45363263  0.75108213  0.29603817  1
  F  F475  1  0.45442943  0.75527478  0.80009236  1
  F  F476  1  0.78712109  0.25184554  0.29772018  1
  F  F477  1  0.78810265  0.25041678  0.79903846  1
  F  F478  1  0.78756623  0.75130918  0.29882672  1
  F  F479  1  0.79084463  0.74693153  0.80136095  1
