# generated using pymatgen
data_K24Na3Li5Mg64Fe17Si79(O5F)48
_symmetry_space_group_name_H-M   'P 1'
_cell_length_a   16.10972579
_cell_length_b   18.59932050
_cell_length_c   20.56001997
_cell_angle_alpha   90.00837804
_cell_angle_beta   99.99506439
_cell_angle_gamma   89.95993494
_symmetry_Int_Tables_number   1
_chemical_formula_structural   K24Na3Li5Mg64Fe17Si79(O5F)48
_chemical_formula_sum   'K24 Na3 Li5 Mg64 Fe17 Si79 O240 F48'
_cell_volume   6066.89818024
_cell_formula_units_Z   1
loop_
 _symmetry_equiv_pos_site_id
 _symmetry_equiv_pos_as_xyz
  1  'x, y, z'
loop_
 _atom_site_type_symbol
 _atom_site_label
 _atom_site_symmetry_multiplicity
 _atom_site_fract_x
 _atom_site_fract_y
 _atom_site_fract_z
 _atom_site_occupancy
  K  K0  1  -0.00053656  0.00553954  0.00116292  1
  K  K1  1  -0.01386082  0.00139644  0.49800070  1
  K  K2  1  -0.00068140  0.50759129  0.00073451  1
  K  K3  1  -0.00149667  0.50130307  0.50106872  1
  K  K4  1  0.34946721  0.00618066  0.01432827  1
  K  K5  1  0.33353658  0.00129424  0.49526555  1
  K  K6  1  0.32848779  0.50106778  0.00412012  1
  K  K7  1  0.32959539  0.51080006  0.48804840  1
  K  K8  1  0.66069854  -0.00085599  0.00742304  1
  K  K9  1  0.67127688  -0.00410240  0.49048973  1
  K  K10  1  0.66766997  0.50523389  0.00112940  1
  K  K11  1  0.66880256  0.49878356  0.50038172  1
  K  K12  1  0.17420003  0.26587192  0.00101608  1
  K  K13  1  0.16334563  0.24694181  0.49817950  1
  K  K14  1  0.16997416  0.75218395  0.00276085  1
  K  K15  1  0.15720797  0.74241477  0.48729143  1
  K  K16  1  0.51283409  0.24143076  0.00860950  1
  K  K17  1  0.50560238  0.24644557  0.49221923  1
  K  K18  1  0.51937172  0.74748313  0.00733199  1
  K  K19  1  0.49755146  0.74625816  0.49433798  1
  K  K20  1  0.82842380  0.25176251  -0.00508028  1
  K  K21  1  0.82619284  0.24981983  0.50312978  1
  K  K22  1  0.82462657  0.73848399  0.00526357  1
  K  K23  1  0.83065427  0.74781708  0.49699776  1
  Na  Na24  1  0.50558652  -0.00292924  0.24942649  1
  Na  Na25  1  0.66391340  0.91895378  0.24768511  1
  Na  Na26  1  0.66908734  0.08328587  0.75809024  1
  Li  Li27  1  0.83529957  0.49677774  0.74551653  1
  Li  Li28  1  0.16095853  0.49971332  0.74777429  1
  Li  Li29  1  0.16794651  0.65865193  0.24719754  1
  Li  Li30  1  0.32688309  0.58426699  0.24676005  1
  Li  Li31  1  0.83430588  0.34003337  0.74808783  1
  Mg  Mg32  1  0.67038814  0.25152569  0.75652551  1
  Mg  Mg33  1  0.16712878  -0.00085226  0.25352763  1
  Mg  Mg34  1  0.33114095  0.25195008  0.74987635  1
  Mg  Mg35  1  0.49626117  0.49917250  0.24966137  1
  Mg  Mg36  1  0.00277963  0.25039615  0.25203373  1
  Mg  Mg37  1  0.16611074  0.00088520  0.74662967  1
  Mg  Mg38  1  0.00342957  0.74770623  0.25137109  1
  Mg  Mg39  1  0.32715292  0.74505394  0.24613836  1
  Mg  Mg40  1  -0.00118316  0.74816515  0.74496058  1
  Mg  Mg41  1  0.33501176  0.74913913  0.75007847  1
  Mg  Mg42  1  0.66775767  0.74853522  0.74889865  1
  Mg  Mg43  1  0.66529424  0.25212028  0.25222925  1
  Mg  Mg44  1  0.83374109  -0.00020189  0.74668150  1
  Mg  Mg45  1  -0.00306293  0.25187830  0.74519767  1
  Mg  Mg46  1  0.50034804  0.49990824  0.75372376  1
  Mg  Mg47  1  0.83133463  0.00021804  0.25137646  1
  Mg  Mg48  1  0.66649807  0.74997453  0.24894947  1
  Mg  Mg49  1  0.33498591  0.24968344  0.25093644  1
  Mg  Mg50  1  0.17358196  0.50270899  0.24957784  1
  Mg  Mg51  1  0.83581849  0.49918617  0.25015550  1
  Mg  Mg52  1  0.50198927  0.00166384  0.75198593  1
  Mg  Mg53  1  0.33382651  0.08512768  0.75042346  1
  Mg  Mg54  1  0.83496300  0.66459133  0.24737949  1
  Mg  Mg55  1  0.16639781  0.83333244  0.74719930  1
  Mg  Mg56  1  0.00569376  0.41612828  0.25215056  1
  Mg  Mg57  1  0.83201866  0.66177912  0.74719716  1
  Mg  Mg58  1  0.50401632  0.83543292  0.75124938  1
  Mg  Mg59  1  0.66772177  0.08509400  0.25402659  1
  Mg  Mg60  1  0.66374718  0.41558712  0.25114765  1
  Mg  Mg61  1  0.83158207  0.16882004  0.75049471  1
  Mg  Mg62  1  0.17077674  0.16540148  0.25494442  1
  Mg  Mg63  1  -0.00397976  0.08624167  0.74390811  1
  Mg  Mg64  1  0.67002426  0.58320935  0.75115228  1
  Mg  Mg65  1  0.50266837  0.16832483  0.75491922  1
  Mg  Mg66  1  -0.00319021  0.91550628  0.25074593  1
  Mg  Mg67  1  0.49884397  0.83114802  0.24579496  1
  Mg  Mg68  1  0.00652040  0.58426242  0.24712925  1
  Mg  Mg69  1  0.00143148  0.08395781  0.25412343  1
  Mg  Mg70  1  0.49413428  0.66377376  0.24653593  1
  Mg  Mg71  1  0.83040229  0.83374658  0.74541835  1
  Mg  Mg72  1  0.67211826  0.41724361  0.75258296  1
  Mg  Mg73  1  0.33187729  0.58282019  0.75243885  1
  Mg  Mg74  1  -0.00242832  0.91553323  0.74480822  1
  Mg  Mg75  1  0.16486578  0.66362424  0.74686601  1
  Mg  Mg76  1  0.16292973  0.16732706  0.74590976  1
  Mg  Mg77  1  0.33338560  0.91507820  0.24873293  1
  Mg  Mg78  1  0.33623935  0.08322714  0.25172255  1
  Mg  Mg79  1  0.83354520  0.16742787  0.25245972  1
  Mg  Mg80  1  0.50339352  0.66548668  0.75346221  1
  Mg  Mg81  1  0.33264428  0.41765971  0.25125019  1
  Mg  Mg82  1  0.83429067  0.33479506  0.25269275  1
  Mg  Mg83  1  0.17121766  0.33482164  0.25246131  1
  Mg  Mg84  1  0.66853702  0.91593030  0.74976247  1
  Mg  Mg85  1  0.33473275  0.91596076  0.75016881  1
  Mg  Mg86  1  0.66413438  0.58244043  0.24731316  1
  Mg  Mg87  1  0.83146581  0.83334580  0.24961443  1
  Mg  Mg88  1  -0.00240030  0.57973399  0.74576931  1
  Mg  Mg89  1  0.50068019  0.16505022  0.25237524  1
  Mg  Mg90  1  0.32951119  0.41877193  0.75120243  1
  Mg  Mg91  1  -0.00456884  0.41843355  0.74567898  1
  Mg  Mg92  1  0.16262195  0.33733909  0.74599303  1
  Mg  Mg93  1  0.50164981  0.33463232  0.75471379  1
  Mg  Mg94  1  0.16371627  0.83083062  0.24916413  1
  Mg  Mg95  1  0.49917954  0.33569645  0.25140866  1
  Fe  Fe96  1  0.36009637  0.33099524  0.11013623  1
  Fe  Fe97  1  0.64527128  0.16922276  0.89616652  1
  Fe  Fe98  1  0.85510546  0.58336857  0.60717475  1
  Fe  Fe99  1  0.63843823  0.33705289  0.39399448  1
  Fe  Fe100  1  0.18933673  0.59077884  0.10602279  1
  Fe  Fe101  1  0.02458249  0.16696909  0.60584314  1
  Fe  Fe102  1  0.69432303  0.82931656  0.10703635  1
  Fe  Fe103  1  0.80636841  0.91504179  0.39016875  1
  Fe  Fe104  1  0.52870308  0.08495057  0.11112129  1
  Fe  Fe105  1  0.68367568  0.82980699  0.60823518  1
  Fe  Fe106  1  0.14574889  0.58020803  0.39032944  1
  Fe  Fe107  1  0.01866984  0.67552931  0.10746050  1
  Fe  Fe108  1  0.64418228  0.66702959  0.89152570  1
  Fe  Fe109  1  0.52755060  0.41689430  0.10868907  1
  Fe  Fe110  1  0.85648858  0.91389011  0.60684629  1
  Fe  Fe111  1  0.19026277  0.42001086  0.10939922  1
  Fe  Fe112  1  0.31498706  0.16235922  0.39358164  1
  Si  Si113  1  0.36043517  0.16930734  0.61700385  1
  Si  Si114  1  0.97579002  0.33357307  0.88240066  1
  Si  Si115  1  0.19849444  0.08021516  0.61154783  1
  Si  Si116  1  0.19917124  0.58726303  0.61487704  1
  Si  Si117  1  0.64389291  0.34193925  0.89144022  1
  Si  Si118  1  0.85909644  0.57472698  0.11263482  1
  Si  Si119  1  0.81291468  0.58272038  0.88695061  1
  Si  Si120  1  0.46955609  0.08275351  0.88860872  1
  Si  Si121  1  0.30949897  0.33127530  0.39060131  1
  Si  Si122  1  0.14059245  0.91693719  0.88272954  1
  Si  Si123  1  0.47963117  0.07612418  0.38892563  1
  Si  Si124  1  0.97353587  0.66349195  0.38586441  1
  Si  Si125  1  0.47258311  0.90977498  0.38332227  1
  Si  Si126  1  0.47175284  0.91691577  0.88526777  1
  Si  Si127  1  0.64341985  0.84045894  0.88788799  1
  Si  Si128  1  0.97829032  0.16819104  0.88475913  1
  Si  Si129  1  0.68710291  0.33280887  0.61786037  1
  Si  Si130  1  0.81249247  0.41953064  0.38829120  1
  Si  Si131  1  0.81362290  0.91712724  0.88593888  1
  Si  Si132  1  0.97695786  0.66664740  0.88273549  1
  Si  Si133  1  0.18957115  0.07972955  0.11758761  1
  Si  Si134  1  0.97349746  0.16863738  0.38694603  1
  Si  Si135  1  0.86681530  0.41013590  0.11748217  1
  Si  Si136  1  0.68770639  0.17086554  0.61792889  1
  Si  Si137  1  0.81973316  0.08152041  0.88882193  1
  Si  Si138  1  0.52156129  0.08819632  0.61808751  1
  Si  Si139  1  0.35253635  0.83416233  0.11155597  1
  Si  Si140  1  0.80860514  0.58441927  0.38276970  1
  Si  Si141  1  0.81194361  0.41838109  0.88319475  1
  Si  Si142  1  0.52394920  0.92475576  0.61277581  1
  Si  Si143  1  0.03307965  0.83461772  0.61032409  1
  Si  Si144  1  0.18762069  0.91572824  0.11572789  1
  Si  Si145  1  0.30668670  0.83260034  0.88444764  1
  Si  Si146  1  0.36483416  0.66707454  0.61611957  1
  Si  Si147  1  0.97668979  0.83115442  0.88323225  1
  Si  Si148  1  0.30605765  0.83728339  0.38480332  1
  Si  Si149  1  0.64257687  0.16555315  0.39051402  1
  Si  Si150  1  0.47321314  0.58706698  0.38396236  1
  Si  Si151  1  0.35185293  0.16355167  0.11226152  1
  Si  Si152  1  0.13771858  0.08172490  0.39075852  1
  Si  Si153  1  0.02496358  0.33851464  0.60857086  1
  Si  Si154  1  0.31032292  0.67318984  0.38612025  1
  Si  Si155  1  0.30455587  0.33326152  0.88391129  1
  Si  Si156  1  0.97678151  0.33379437  0.38728222  1
  Si  Si157  1  0.02992194  0.66738306  0.60936012  1
  Si  Si158  1  0.35502115  0.33388187  0.61598192  1
  Si  Si159  1  0.84823616  0.08594343  0.60948179  1
  Si  Si160  1  0.36076411  0.67009864  0.11020357  1
  Si  Si161  1  0.69296128  0.65781221  0.11264785  1
  Si  Si162  1  0.14084898  0.08268504  0.88300962  1
  Si  Si163  1  0.13821411  0.41688421  0.88117456  1
  Si  Si164  1  0.69866918  0.17114545  0.11643054  1
  Si  Si165  1  0.47054165  0.41736422  0.88677617  1
  Si  Si166  1  0.85996716  0.92461679  0.11243641  1
  Si  Si167  1  0.19316881  0.42165407  0.61439157  1
  Si  Si168  1  0.51861283  0.90987267  0.10569272  1
  Si  Si169  1  0.68149595  0.66332156  0.60998517  1
  Si  Si170  1  0.13808169  0.58241486  0.88067429  1
  Si  Si171  1  0.97559171  0.82934978  0.38662074  1
  Si  Si172  1  0.81014528  0.08673395  0.38878986  1
  Si  Si173  1  0.02702967  0.16343612  0.11839269  1
  Si  Si174  1  0.13845275  0.91538977  0.38589318  1
  Si  Si175  1  0.20055863  0.91368898  0.61410018  1
  Si  Si176  1  0.30361201  0.16720143  0.88401574  1
  Si  Si177  1  0.01850055  0.84248361  0.11257280  1
  Si  Si178  1  0.86123095  0.08761798  0.11871719  1
  Si  Si179  1  0.52083388  0.58559573  0.11233227  1
  Si  Si180  1  0.52341524  0.57664413  0.61698684  1
  Si  Si181  1  0.63365632  0.82536116  0.38625066  1
  Si  Si182  1  0.85407838  0.41323305  0.61166659  1
  Si  Si183  1  0.30235431  0.66702877  0.88468619  1
  Si  Si184  1  0.36625259  0.83283160  0.61559135  1
  Si  Si185  1  0.46662674  0.42273052  0.39094838  1
  Si  Si186  1  0.52179909  0.41356044  0.61754047  1
  Si  Si187  1  0.70032341  0.33609437  0.11530187  1
  Si  Si188  1  0.14449186  0.41087361  0.39048276  1
  Si  Si189  1  0.46822310  0.58336269  0.88900379  1
  Si  Si190  1  0.02897734  0.32681110  0.11577836  1
  Si  Si191  1  0.64080783  0.66157173  0.38387174  1
  O  O192  1  0.27191651  0.10525819  0.08811385  1
  O  O193  1  0.28351764  0.11423029  0.58771416  1
  O  O194  1  0.28921970  0.61738383  0.07219828  1
  O  O195  1  0.27806997  0.62443139  0.58496522  1
  O  O196  1  0.62424263  0.12116901  0.07839089  1
  O  O197  1  0.60477200  0.11922954  0.59126813  1
  O  O198  1  0.60722785  0.61104131  0.08581513  1
  O  O199  1  0.60583953  0.60122150  0.58721400  1
  O  O200  1  0.94699667  0.11073830  0.08965073  1
  O  O201  1  0.92469023  0.11715357  0.57481217  1
  O  O202  1  0.92859572  0.61016320  0.07527790  1
  O  O203  1  0.94992487  0.62222106  0.57359809  1
  O  O204  1  0.10624227  0.34802926  0.08064326  1
  O  O205  1  0.10118297  0.38692238  0.58355867  1
  O  O206  1  0.10515503  0.86772338  0.08451045  1
  O  O207  1  0.11972370  0.86408301  0.58498587  1
  O  O208  1  0.45532337  0.34542931  0.07199002  1
  O  O209  1  0.43778256  0.36472292  0.58789196  1
  O  O210  1  0.42574986  0.86968497  0.07591393  1
  O  O211  1  0.44080713  0.87282142  0.58522414  1
  O  O212  1  0.79013344  0.35484335  0.08955676  1
  O  O213  1  0.76897533  0.36126932  0.58755568  1
  O  O214  1  0.78651515  0.87344121  0.07479564  1
  O  O215  1  0.77963580  0.84466122  0.57246776  1
  O  O216  1  0.27859170  0.39328524  0.06770589  1
  O  O217  1  0.27018819  0.38016220  0.58472463  1
  O  O218  1  0.26662264  0.88283623  0.08414476  1
  O  O219  1  0.27970772  0.87667174  0.58590172  1
  O  O220  1  0.63198622  0.39338441  0.08074416  1
  O  O221  1  0.60303646  0.38277512  0.58778356  1
  O  O222  1  0.58962856  0.87052518  0.06993004  1
  O  O223  1  0.60028318  0.90105540  0.57708205  1
  O  O224  1  0.94762807  0.37910288  0.08775130  1
  O  O225  1  0.93375728  0.37705361  0.58025539  1
  O  O226  1  0.95121609  0.90888826  0.08794392  1
  O  O227  1  0.95927960  0.88788844  0.57819500  1
  O  O228  1  0.10746078  0.13111067  0.08766086  1
  O  O229  1  0.11676532  0.12204530  0.57467941  1
  O  O230  1  0.10933710  0.65664548  0.06655376  1
  O  O231  1  0.11541789  0.63415821  0.58435138  1
  O  O232  1  0.42811873  0.13540704  0.07623219  1
  O  O233  1  0.44346499  0.14313081  0.58739212  1
  O  O234  1  0.45140479  0.64949154  0.08634506  1
  O  O235  1  0.44201387  0.62835254  0.58656481  1
  O  O236  1  0.78819339  0.14673196  0.09152262  1
  O  O237  1  0.76637710  0.14054641  0.58519485  1
  O  O238  1  0.76724230  0.61192313  0.08539694  1
  O  O239  1  0.75933395  0.64058108  0.57373605  1
  O  O240  1  0.05418841  0.11715563  0.41619263  1
  O  O241  1  0.06651118  0.12392658  0.91353155  1
  O  O242  1  0.04913061  0.61381615  0.42346362  1
  O  O243  1  0.06228817  0.62064411  0.91232493  1
  O  O244  1  0.40754050  0.10347850  0.43002525  1
  O  O245  1  0.39028418  0.12486871  0.91417695  1
  O  O246  1  0.40329186  0.63463621  0.41508449  1
  O  O247  1  0.38874307  0.62446414  0.91513603  1
  O  O248  1  0.73152382  0.12293564  0.41826045  1
  O  O249  1  0.74568413  0.11530240  0.92324211  1
  O  O250  1  0.72576159  0.61341798  0.41179892  1
  O  O251  1  0.74186282  0.61448173  0.92655221  1
  O  O252  1  0.22218438  0.35446866  0.41767776  1
  O  O253  1  0.22770025  0.37470820  0.91147134  1
  O  O254  1  0.22781045  0.87453522  0.41559078  1
  O  O255  1  0.23043400  0.87605373  0.91227403  1
  O  O256  1  0.54873133  0.37995445  0.42910992  1
  O  O257  1  0.56412472  0.38538801  0.91647935  1
  O  O258  1  0.54778755  0.85333759  0.41438813  1
  O  O259  1  0.56500600  0.88452243  0.91415436  1
  O  O260  1  0.89848586  0.37138272  0.41597673  1
  O  O261  1  0.89606566  0.36833128  0.91251450  1
  O  O262  1  0.90319458  0.85965436  0.42414211  1
  O  O263  1  0.89823626  0.86736954  0.91339378  1
  O  O264  1  0.06204574  0.37713458  0.41924767  1
  O  O265  1  0.06297355  0.37795190  0.91407906  1
  O  O266  1  0.06460794  0.87323337  0.41574227  1
  O  O267  1  0.06419096  0.87694298  0.91245919  1
  O  O268  1  0.38177102  0.39248971  0.41756311  1
  O  O269  1  0.39579718  0.37056653  0.91285308  1
  O  O270  1  0.38891909  0.88632879  0.41572384  1
  O  O271  1  0.39795647  0.86968575  0.91306371  1
  O  O272  1  0.73844810  0.39051311  0.42491857  1
  O  O273  1  0.73154393  0.38864877  0.91686750  1
  O  O274  1  0.71078341  0.87588845  0.41924075  1
  O  O275  1  0.73082547  0.88704316  0.91435577  1
  O  O276  1  0.21981543  0.12458030  0.42693285  1
  O  O277  1  0.22866914  0.12451132  0.91331019  1
  O  O278  1  0.24199170  0.63650365  0.42538710  1
  O  O279  1  0.22447640  0.62745345  0.91158795  1
  O  O280  1  0.56820593  0.11908141  0.41782556  1
  O  O281  1  0.55569621  0.11803953  0.92543456  1
  O  O282  1  0.56508896  0.62352104  0.41581802  1
  O  O283  1  0.55370597  0.62173288  0.92414186  1
  O  O284  1  0.89190587  0.14022498  0.41619327  1
  O  O285  1  0.90754855  0.12685310  0.91963730  1
  O  O286  1  0.88574427  0.63879791  0.41205353  1
  O  O287  1  0.90035416  0.62966605  0.91320203  1
  O  O288  1  0.16709103  -0.00171691  0.08710944  1
  O  O289  1  0.19330310  -0.00429317  0.58518021  1
  O  O290  1  0.14946302  0.50410750  0.06807709  1
  O  O291  1  0.19121628  0.50464259  0.58615252  1
  O  O292  1  0.50810293  -0.00837569  0.07631522  1
  O  O293  1  0.49559227  0.00774149  0.58768213  1
  O  O294  1  0.49096571  0.51034887  0.07684725  1
  O  O295  1  0.49932428  0.49514476  0.58834892  1
  O  O296  1  0.83505232  0.00843172  0.08743501  1
  O  O297  1  0.82040171  0.00733155  0.57952553  1
  O  O298  1  0.84506698  0.49018595  0.08682969  1
  O  O299  1  0.83315091  0.48912536  0.57330675  1
  O  O300  1  0.00034111  0.24374617  0.08995545  1
  O  O301  1  0.02500936  0.26134626  0.57225872  1
  O  O302  1  -0.01820858  0.76985161  0.07650342  1
  O  O303  1  0.02261774  0.75153511  0.58225008  1
  O  O304  1  0.31500493  0.23948177  0.08206305  1
  O  O305  1  0.33671832  0.25094968  0.58885039  1
  O  O306  1  0.33603905  0.75296067  0.08099530  1
  O  O307  1  0.35773747  0.74994764  0.58733525  1
  O  O308  1  0.67926268  0.25363022  0.08807445  1
  O  O309  1  0.66416690  0.25184260  0.58655820  1
  O  O310  1  0.68533256  0.73372047  0.07442237  1
  O  O311  1  0.63769556  0.73844619  0.58216107  1
  O  O312  1  0.14394096  -0.00278166  0.41706676  1
  O  O313  1  0.14723878  -0.00043605  0.91206355  1
  O  O314  1  0.16706120  0.48674680  0.42706126  1
  O  O315  1  0.14969325  0.49983215  0.90915190  1
  O  O316  1  0.49938611  -0.00926617  0.41088936  1
  O  O317  1  0.46347186  -0.00171607  0.91356583  1
  O  O318  1  0.47361582  0.50706472  0.41792749  1
  O  O319  1  0.46496038  0.49933611  0.91451819  1
  O  O320  1  0.83032111  0.00956641  0.42325360  1
  O  O321  1  0.83774695  -0.00247490  0.91694767  1
  O  O322  1  0.83439819  0.50372626  0.41238602  1
  O  O323  1  0.83441276  0.49940815  0.91380923  1
  O  O324  1  0.33995376  0.25589197  0.42710426  1
  O  O325  1  0.30713678  0.25002759  0.91198489  1
  O  O326  1  0.32270182  0.75704214  0.41706716  1
  O  O327  1  0.30739329  0.75033177  0.91314594  1
  O  O328  1  0.64986746  0.24259156  0.42843796  1
  O  O329  1  0.65517010  0.26541047  0.92942642  1
  O  O330  1  0.65240414  0.74225594  0.41624674  1
  O  O331  1  0.65272668  0.76291856  0.92346419  1
  O  O332  1  0.99125673  0.25084768  0.41521989  1
  O  O333  1  0.98887752  0.25088124  0.91368276  1
  O  O334  1  0.99509504  0.74611337  0.41266746  1
  O  O335  1  0.99157287  0.74929806  0.91264227  1
  O  O336  1  0.20480452  0.08079594  0.19768809  1
  O  O337  1  0.21200523  0.08215123  0.69288022  1
  O  O338  1  0.21161775  0.58142675  0.19495703  1
  O  O339  1  0.21661037  0.58860378  0.69443647  1
  O  O340  1  0.55168257  0.09254771  0.20084522  1
  O  O341  1  0.53152887  0.08539703  0.69734314  1
  O  O342  1  0.54119228  0.58258834  0.19346424  1
  O  O343  1  0.53830448  0.58046915  0.69714196  1
  O  O344  1  0.88117500  0.08644296  0.19908180  1
  O  O345  1  0.87353966  0.08540849  0.69127918  1
  O  O346  1  0.87837673  0.57906019  0.19364758  1
  O  O347  1  0.87890656  0.58505060  0.69768320  1
  O  O348  1  0.04507242  0.32971518  0.19687250  1
  O  O349  1  0.04319098  0.33447075  0.68947015  1
  O  O350  1  0.04037615  0.83790405  0.19355916  1
  O  O351  1  0.04759796  0.83340447  0.69191111  1
  O  O352  1  0.37824046  0.33299237  0.20336799  1
  O  O353  1  0.37401381  0.33528365  0.69649924  1
  O  O354  1  0.37109773  0.83317099  0.19173393  1
  O  O355  1  0.37931785  0.83328499  0.69616971  1
  O  O356  1  0.71506740  0.33534383  0.19641839  1
  O  O357  1  0.70155669  0.33349864  0.69733462  1
  O  O358  1  0.71596327  0.82362756  0.19685463  1
  O  O359  1  0.70817617  0.83226800  0.70115994  1
  O  O360  1  0.21103289  0.41497107  0.20222181  1
  O  O361  1  0.21253556  0.41623446  0.69397423  1
  O  O362  1  0.20614792  0.91662399  0.19596090  1
  O  O363  1  0.21427865  0.91552928  0.69492335  1
  O  O364  1  0.54436639  0.41800686  0.20109346  1
  O  O365  1  0.53955590  0.41550006  0.69790224  1
  O  O366  1  0.53436180  0.90394804  0.18477794  1
  O  O367  1  0.54044278  0.91914209  0.69386102  1
  O  O368  1  0.88180945  0.41346359  0.19806966  1
  O  O369  1  0.87830112  0.41588204  0.69082278  1
  O  O370  1  0.87768611  0.92000222  0.19312363  1
  O  O371  1  0.87931595  0.91552799  0.69967361  1
  O  O372  1  0.04600436  0.16431418  0.19889959  1
  O  O373  1  0.04490523  0.16690645  0.69797044  1
  O  O374  1  0.04029646  0.66940056  0.19817320  1
  O  O375  1  0.04533895  0.66757860  0.69051833  1
  O  O376  1  0.37539439  0.16367108  0.19359628  1
  O  O377  1  0.37568099  0.16885114  0.69761884  1
  O  O378  1  0.37587409  0.67053563  0.19020825  1
  O  O379  1  0.37949578  0.66691207  0.69664001  1
  O  O380  1  0.71414955  0.17143142  0.19736437  1
  O  O381  1  0.71141702  0.17440677  0.69693642  1
  O  O382  1  0.71098461  0.66195531  0.19357847  1
  O  O383  1  0.70702096  0.66402215  0.69148071  1
  O  O384  1  0.12323105  0.08275155  0.30978775  1
  O  O385  1  0.12504390  0.08201924  0.80284133  1
  O  O386  1  0.12169841  0.57760498  0.30091695  1
  O  O387  1  0.12090768  0.58675691  0.80117071  1
  O  O388  1  0.45257924  0.08760580  0.31009944  1
  O  O389  1  0.45349059  0.08380189  0.80751928  1
  O  O390  1  0.46052126  0.58450541  0.30477671  1
  O  O391  1  0.45410533  0.58436504  0.80771463  1
  O  O392  1  0.79500260  0.08751428  0.30803609  1
  O  O393  1  0.80695029  0.08187746  0.80906472  1
  O  O394  1  0.79026055  0.58242383  0.30240139  1
  O  O395  1  0.78755400  0.58761244  0.80739357  1
  O  O396  1  0.29092249  0.32879090  0.31017959  1
  O  O397  1  0.28755550  0.33368546  0.80343072  1
  O  O398  1  0.28671085  0.83598484  0.30482429  1
  O  O399  1  0.28932552  0.83344294  0.80378337  1
  O  O400  1  0.62375205  0.33421842  0.30288198  1
  O  O401  1  0.62320332  0.33819858  0.81047065  1
  O  O402  1  0.61490391  0.82229111  0.30667825  1
  O  O403  1  0.62257060  0.83494067  0.80717648  1
  O  O404  1  0.95893076  0.33324690  0.30681352  1
  O  O405  1  0.96231584  0.33281735  0.80303252  1
  O  O406  1  0.95741968  0.83287983  0.30571963  1
  O  O407  1  0.96132267  0.83214593  0.80309433  1
  O  O408  1  0.12285175  0.41171803  0.30993968  1
  O  O409  1  0.12009160  0.41338996  0.80183232  1
  O  O410  1  0.12152063  0.91736962  0.30562791  1
  O  O411  1  0.12465614  0.91633538  0.80225652  1
  O  O412  1  0.45639210  0.41895317  0.31092284  1
  O  O413  1  0.45389804  0.41679868  0.80597796  1
  O  O414  1  0.45037617  0.90582642  0.30415838  1
  O  O415  1  0.45375647  0.91577582  0.80458785  1
  O  O416  1  0.79307991  0.41694781  0.30735207  1
  O  O417  1  0.78914455  0.41694985  0.80446805  1
  O  O418  1  0.80050978  0.91676740  0.30103824  1
  O  O419  1  0.79392839  0.91685559  0.80607083  1
  O  O420  1  0.28988571  0.16416686  0.30197189  1
  O  O421  1  0.28632328  0.16669520  0.80328850  1
  O  O422  1  0.29040293  0.67287161  0.30723654  1
  O  O423  1  0.28886355  0.66864077  0.80417262  1
  O  O424  1  0.62669510  0.17098919  0.31016802  1
  O  O425  1  0.61660146  0.17706516  0.80675623  1
  O  O426  1  0.62275332  0.66301690  0.30361555  1
  O  O427  1  0.62239557  0.66659031  0.79961817  1
  O  O428  1  0.95840660  0.16809867  0.30647693  1
  O  O429  1  0.95930995  0.16669568  0.80483162  1
  O  O430  1  0.95565500  0.66282893  0.30527106  1
  O  O431  1  0.95982038  0.66821904  0.80262730  1
  F  F432  1  0.04601986  0.00164441  0.20535775  1
  F  F433  1  0.04813974  -0.00018098  0.69889768  1
  F  F434  1  0.04452161  0.49491573  0.20121713  1
  F  F435  1  0.04375073  0.49947991  0.69692699  1
  F  F436  1  0.36354003  -0.00064412  0.19956779  1
  F  F437  1  0.37756668  0.00008220  0.70385776  1
  F  F438  1  0.37979460  0.49638579  0.20308877  1
  F  F439  1  0.37900319  0.50084258  0.70326971  1
  F  F440  1  0.71900266  0.01486678  0.19804745  1
  F  F441  1  0.71476912  -0.00625263  0.70197721  1
  F  F442  1  0.71435381  0.49803303  0.20370272  1
  F  F443  1  0.70139544  0.49990616  0.70075511  1
  F  F444  1  0.20962592  0.24854783  0.20481671  1
  F  F445  1  0.21193885  0.25082192  0.69989910  1
  F  F446  1  0.21069219  0.75734813  0.19847140  1
  F  F447  1  0.21517140  0.75085632  0.70058339  1
  F  F448  1  0.54540638  0.24983694  0.20438278  1
  F  F449  1  0.54041223  0.25403063  0.70430292  1
  F  F450  1  0.54503843  0.74486223  0.20050538  1
  F  F451  1  0.54060122  0.75145561  0.70302070  1
  F  F452  1  0.88160344  0.25055949  0.20552317  1
  F  F453  1  0.87947590  0.24610760  0.70055211  1
  F  F454  1  0.88076315  0.74909339  0.20420993  1
  F  F455  1  0.87946679  0.74943611  0.70077588  1
  F  F456  1  0.28637490  -0.00215573  0.30116737  1
  F  F457  1  0.28644135  -0.00020409  0.79787032  1
  F  F458  1  0.28895785  0.49545463  0.30475744  1
  F  F459  1  0.29206884  0.50098159  0.80059697  1
  F  F460  1  0.63709104  0.01025285  0.31158740  1
  F  F461  1  0.61535355  -0.01101776  0.80325192  1
  F  F462  1  0.62316096  0.50237489  0.29948310  1
  F  F463  1  0.61927775  0.50004279  0.80079009  1
  F  F464  1  0.95666774  0.00093122  0.29975855  1
  F  F465  1  0.96146963  0.00165127  0.79554276  1
  F  F466  1  0.95556433  0.49851523  0.29798272  1
  F  F467  1  0.96447507  0.49901762  0.80014809  1
  F  F468  1  0.12135702  0.24805393  0.30135218  1
  F  F469  1  0.12272200  0.25188305  0.79568891  1
  F  F470  1  0.11807764  0.76010101  0.30369603  1
  F  F471  1  0.12253753  0.75052900  0.79480019  1
  F  F472  1  0.45676921  0.24802851  0.30072259  1
  F  F473  1  0.44937632  0.25249443  0.80043397  1
  F  F474  1  0.45020729  0.74811723  0.29366716  1
  F  F475  1  0.45373471  0.75135682  0.79988832  1
  F  F476  1  0.79084284  0.25202198  0.30070524  1
  F  F477  1  0.78893005  0.24536447  0.80463685  1
  F  F478  1  0.78893666  0.74380440  0.29918509  1
  F  F479  1  0.79102824  0.74779678  0.79672794  1
