# generated using pymatgen
data_K24Na3Li5Mg64Fe17Si79(O5F)48
_symmetry_space_group_name_H-M   'P 1'
_cell_length_a   16.08622923
_cell_length_b   18.58549300
_cell_length_c   20.55023549
_cell_angle_alpha   89.98544167
_cell_angle_beta   100.02797554
_cell_angle_gamma   90.00706320
_symmetry_Int_Tables_number   1
_chemical_formula_structural   K24Na3Li5Mg64Fe17Si79(O5F)48
_chemical_formula_sum   'K24 Na3 Li5 Mg64 Fe17 Si79 O240 F48'
_cell_volume   6050.05247629
_cell_formula_units_Z   1
loop_
 _symmetry_equiv_pos_site_id
 _symmetry_equiv_pos_as_xyz
  1  'x, y, z'
loop_
 _atom_site_type_symbol
 _atom_site_label
 _atom_site_symmetry_multiplicity
 _atom_site_fract_x
 _atom_site_fract_y
 _atom_site_fract_z
 _atom_site_occupancy
  K  K0  1  -0.00634512  -0.01339148  -0.01460992  1
  K  K1  1  0.00275667  -0.00601965  0.49959589  1
  K  K2  1  -0.00753561  0.50688166  0.00533714  1
  K  K3  1  -0.00040162  0.51126380  0.49868756  1
  K  K4  1  0.32694945  -0.01364488  -0.00516005  1
  K  K5  1  0.33804024  -0.00836307  0.50209524  1
  K  K6  1  0.33264216  0.50656177  0.00191398  1
  K  K7  1  0.32564487  0.50057546  0.49735445  1
  K  K8  1  0.67628941  -0.01616380  -0.00616148  1
  K  K9  1  0.67659031  0.00374780  0.50383824  1
  K  K10  1  0.67357739  0.50350200  0.00199145  1
  K  K11  1  0.67441686  0.50390229  0.50116572  1
  K  K12  1  0.16202293  0.25194845  -0.00114984  1
  K  K13  1  0.17682010  0.25189170  0.49702381  1
  K  K14  1  0.15470819  0.75138495  -0.00728309  1
  K  K15  1  0.16649262  0.75581184  0.50505671  1
  K  K16  1  0.50083810  0.25368385  -0.00241594  1
  K  K17  1  0.49768812  0.26254368  0.50358916  1
  K  K18  1  0.50459308  0.75410610  -0.00090306  1
  K  K19  1  0.50144481  0.74740521  0.50450068  1
  K  K20  1  0.83988215  0.25397931  0.00129775  1
  K  K21  1  0.82563087  0.25131858  0.50452074  1
  K  K22  1  0.83182301  0.75272634  -0.00517447  1
  K  K23  1  0.82878489  0.74502921  0.50300856  1
  Na  Na24  1  -0.00020773  0.25152122  0.24443659  1
  Na  Na25  1  0.66647240  0.91686207  0.74420112  1
  Na  Na26  1  0.83140158  0.83204192  0.74989898  1
  Li  Li27  1  0.66991515  0.74957181  0.24672451  1
  Li  Li28  1  -0.00327046  0.25164092  0.75150359  1
  Li  Li29  1  0.16593667  0.66646420  0.74276061  1
  Li  Li30  1  0.49974211  0.33522485  0.74875837  1
  Li  Li31  1  0.33451958  0.58264446  0.24959620  1
  Mg  Mg32  1  0.50029078  -0.00069422  0.74926101  1
  Mg  Mg33  1  0.33135100  0.74859291  0.74813540  1
  Mg  Mg34  1  0.33206281  0.25106133  0.25543399  1
  Mg  Mg35  1  -0.00046062  0.74869633  0.24666836  1
  Mg  Mg36  1  0.16674858  0.50224113  0.74885698  1
  Mg  Mg37  1  0.33365611  0.74631962  0.24787445  1
  Mg  Mg38  1  0.50078731  -0.00299888  0.24994674  1
  Mg  Mg39  1  0.66757463  0.74765325  0.74897875  1
  Mg  Mg40  1  0.66322411  0.25357358  0.74950833  1
  Mg  Mg41  1  0.83406363  0.00223848  0.75107485  1
  Mg  Mg42  1  0.16748497  0.00132969  0.25114885  1
  Mg  Mg43  1  0.83341776  -0.00066459  0.24985064  1
  Mg  Mg44  1  0.83368436  0.49919819  0.74663245  1
  Mg  Mg45  1  0.83225947  0.49971733  0.24549338  1
  Mg  Mg46  1  0.49870450  0.49714677  0.74977656  1
  Mg  Mg47  1  0.66509677  0.24958691  0.25086238  1
  Mg  Mg48  1  0.16856163  0.50107769  0.24715518  1
  Mg  Mg49  1  0.16606790  0.00003447  0.75335101  1
  Mg  Mg50  1  0.49645750  0.50175165  0.25303559  1
  Mg  Mg51  1  0.33592200  0.25130089  0.75437788  1
  Mg  Mg52  1  0.00492332  0.74914621  0.75208363  1
  Mg  Mg53  1  0.00314881  0.58550696  0.74591765  1
  Mg  Mg54  1  0.16941902  0.33475987  0.25130808  1
  Mg  Mg55  1  0.82934713  0.66563383  0.24530328  1
  Mg  Mg56  1  0.33415392  0.91400481  0.75017906  1
  Mg  Mg57  1  0.66278999  0.41419751  0.74878807  1
  Mg  Mg58  1  -0.00151117  0.91582635  0.24776375  1
  Mg  Mg59  1  0.83293367  0.33413515  0.24769331  1
  Mg  Mg60  1  0.17047209  0.16748629  0.25341315  1
  Mg  Mg61  1  0.16590088  0.83341176  0.24662120  1
  Mg  Mg62  1  0.16486773  0.33298061  0.75255626  1
  Mg  Mg63  1  0.49906496  0.16887216  0.75258881  1
  Mg  Mg64  1  0.66782019  0.58586930  0.24899074  1
  Mg  Mg65  1  0.00026670  0.08820352  0.75517049  1
  Mg  Mg66  1  0.49961808  0.16458921  0.25349722  1
  Mg  Mg67  1  -0.00169223  0.58535690  0.24330959  1
  Mg  Mg68  1  0.33520510  0.08426755  0.25390633  1
  Mg  Mg69  1  0.66526101  0.58263237  0.74727989  1
  Mg  Mg70  1  0.66631588  0.41536595  0.25182006  1
  Mg  Mg71  1  0.16582241  0.83318461  0.75206806  1
  Mg  Mg72  1  0.33486802  0.91414312  0.24940090  1
  Mg  Mg73  1  0.33588792  0.41913755  0.25400048  1
  Mg  Mg74  1  0.83164809  0.66580681  0.74671941  1
  Mg  Mg75  1  -0.00023613  0.41416379  0.75018509  1
  Mg  Mg76  1  0.50445406  0.83071680  0.24702446  1
  Mg  Mg77  1  0.33228286  0.08451627  0.75338717  1
  Mg  Mg78  1  0.66786719  0.08206295  0.25164313  1
  Mg  Mg79  1  0.83371617  0.16743122  0.25019943  1
  Mg  Mg80  1  0.16417086  0.16891212  0.75564926  1
  Mg  Mg81  1  0.00131480  0.08562356  0.25075508  1
  Mg  Mg82  1  0.82972127  0.83266152  0.24907545  1
  Mg  Mg83  1  0.66608825  0.08518814  0.75210470  1
  Mg  Mg84  1  0.50145524  0.66648581  0.24961871  1
  Mg  Mg85  1  0.83286626  0.16979923  0.75251432  1
  Mg  Mg86  1  -0.00022924  0.91587347  0.75474750  1
  Mg  Mg87  1  0.16664018  0.66466180  0.24469743  1
  Mg  Mg88  1  -0.00150129  0.41583330  0.24622589  1
  Mg  Mg89  1  0.49975838  0.83271667  0.74735384  1
  Mg  Mg90  1  0.32831979  0.58419600  0.74788439  1
  Mg  Mg91  1  0.33303760  0.41561773  0.75127572  1
  Mg  Mg92  1  0.66992799  0.91230818  0.24889141  1
  Mg  Mg93  1  0.83209158  0.33334581  0.74913233  1
  Mg  Mg94  1  0.49891564  0.33539131  0.25539516  1
  Mg  Mg95  1  0.49712717  0.66428182  0.74785537  1
  Fe  Fe96  1  0.69119328  0.83365209  0.10654832  1
  Fe  Fe97  1  0.80701690  0.58158375  0.38723600  1
  Fe  Fe98  1  0.69565570  0.83411452  0.60196684  1
  Fe  Fe99  1  0.85772536  0.40977511  0.10612010  1
  Fe  Fe100  1  0.31293027  0.16200855  0.39493357  1
  Fe  Fe101  1  0.81079421  0.91731691  0.39105588  1
  Fe  Fe102  1  0.35738859  0.83021536  0.60903561  1
  Fe  Fe103  1  0.14266982  0.91632315  0.89284681  1
  Fe  Fe104  1  0.02809719  0.67469043  0.60978982  1
  Fe  Fe105  1  0.47980138  0.42660477  0.39467160  1
  Fe  Fe106  1  0.52360206  0.91970655  0.60588807  1
  Fe  Fe107  1  0.30820158  0.33678176  0.39379873  1
  Fe  Fe108  1  0.80812773  0.91786124  0.89202908  1
  Fe  Fe109  1  0.68883791  0.66313400  0.60682446  1
  Fe  Fe110  1  0.68872280  0.33674467  0.60946146  1
  Fe  Fe111  1  0.02478268  0.67024971  0.10473669  1
  Fe  Fe112  1  0.19065029  0.58057118  0.60841023  1
  Si  Si113  1  0.13366316  0.41738718  0.38499092  1
  Si  Si114  1  0.14032023  0.91677562  0.38327408  1
  Si  Si115  1  0.18854872  0.41176425  0.61486078  1
  Si  Si116  1  0.86826792  0.92433350  0.61572327  1
  Si  Si117  1  0.63578030  0.82702283  0.88691555  1
  Si  Si118  1  0.80597582  0.41671795  0.88630790  1
  Si  Si119  1  0.47440464  0.91655094  0.88725620  1
  Si  Si120  1  0.36100996  0.33211526  0.11596557  1
  Si  Si121  1  0.31146416  0.83073545  0.89013297  1
  Si  Si122  1  0.47501071  0.08283358  0.88804297  1
  Si  Si123  1  0.97467105  0.65880452  0.88544549  1
  Si  Si124  1  0.97394567  0.17360325  0.88826214  1
  Si  Si125  1  0.30948719  0.66511794  0.88518038  1
  Si  Si126  1  0.97844756  0.82927621  0.38379584  1
  Si  Si127  1  0.03570633  0.33236873  0.10988494  1
  Si  Si128  1  0.35972579  0.82993740  0.11326855  1
  Si  Si129  1  0.85914235  0.08990099  0.11450998  1
  Si  Si130  1  0.30584616  0.83386553  0.38259282  1
  Si  Si131  1  0.02909403  0.33014218  0.61862543  1
  Si  Si132  1  0.14267934  0.58058524  0.88603191  1
  Si  Si133  1  0.19783763  0.41711075  0.11274779  1
  Si  Si134  1  0.68653033  0.66334172  0.10899090  1
  Si  Si135  1  0.52144178  0.57884651  0.61441491  1
  Si  Si136  1  0.63940398  0.33477835  0.88692463  1
  Si  Si137  1  0.51935817  0.08842337  0.61540745  1
  Si  Si138  1  0.64173554  0.32817007  0.38814957  1
  Si  Si139  1  0.63875097  0.67091314  0.38205564  1
  Si  Si140  1  0.80872488  0.40949377  0.38699241  1
  Si  Si141  1  0.52506103  0.57899362  0.11424372  1
  Si  Si142  1  0.80566737  0.58122931  0.88438843  1
  Si  Si143  1  0.80883029  0.09084239  0.89156090  1
  Si  Si144  1  0.97772833  0.82557065  0.89185835  1
  Si  Si145  1  0.30459186  0.66846503  0.38187670  1
  Si  Si146  1  0.63923658  0.16992423  0.88788698  1
  Si  Si147  1  0.97387265  0.33886764  0.88669929  1
  Si  Si148  1  0.47679889  0.59471986  0.38545152  1
  Si  Si149  1  0.97218823  0.33393756  0.38276281  1
  Si  Si150  1  0.52177867  0.08302708  0.11513824  1
  Si  Si151  1  0.36314113  0.66511242  0.11398579  1
  Si  Si152  1  0.52065323  0.91947083  0.11052889  1
  Si  Si153  1  0.85268181  0.58270151  0.10495610  1
  Si  Si154  1  0.14338126  0.41699046  0.88796069  1
  Si  Si155  1  0.35635797  0.17002383  0.61894075  1
  Si  Si156  1  0.47578930  0.90917056  0.38252118  1
  Si  Si157  1  0.02611159  0.84253490  0.61452115  1
  Si  Si158  1  0.31005692  0.16795168  0.88972700  1
  Si  Si159  1  0.19586977  0.58296485  0.10930948  1
  Si  Si160  1  0.63771499  0.66252694  0.88541154  1
  Si  Si161  1  0.81367460  0.08768950  0.38746921  1
  Si  Si162  1  0.13584053  0.08289619  0.38886539  1
  Si  Si163  1  0.30915571  0.33351167  0.88882823  1
  Si  Si164  1  0.19343005  0.92238530  0.61504599  1
  Si  Si165  1  0.19753897  0.91709155  0.11434981  1
  Si  Si166  1  0.35532168  0.33337518  0.61943050  1
  Si  Si167  1  0.86240398  0.92406215  0.11127926  1
  Si  Si168  1  0.97733857  0.66622076  0.38214540  1
  Si  Si169  1  0.48039026  0.07337271  0.38818823  1
  Si  Si170  1  0.51699533  0.41865523  0.61513010  1
  Si  Si171  1  0.97329020  0.16961058  0.38390861  1
  Si  Si172  1  0.35921303  0.66047372  0.61195979  1
  Si  Si173  1  0.19618729  0.08179937  0.11457436  1
  Si  Si174  1  0.14152888  0.08975087  0.89277023  1
  Si  Si175  1  0.19021082  0.08741276  0.61900115  1
  Si  Si176  1  0.47283768  0.58046190  0.88660378  1
  Si  Si177  1  0.64262825  0.16194276  0.38593145  1
  Si  Si178  1  0.68757257  0.16327723  0.11566714  1
  Si  Si179  1  0.68555568  0.32768366  0.11230828  1
  Si  Si180  1  0.14171437  0.58249900  0.38119038  1
  Si  Si181  1  0.52451886  0.41407954  0.11548059  1
  Si  Si182  1  0.86419010  0.57903482  0.61128550  1
  Si  Si183  1  0.85827475  0.08677685  0.61851248  1
  Si  Si184  1  0.68833306  0.16628343  0.61570834  1
  Si  Si185  1  0.86479006  0.41309838  0.61299481  1
  Si  Si186  1  0.63949486  0.83420072  0.38375825  1
  Si  Si187  1  0.03232199  0.16327359  0.11444808  1
  Si  Si188  1  0.02451289  0.16762441  0.61953568  1
  Si  Si189  1  0.35997198  0.16844958  0.11583436  1
  Si  Si190  1  0.02635300  0.84215751  0.11063618  1
  Si  Si191  1  0.47368526  0.41691934  0.88710886  1
  O  O192  1  0.27262004  0.12437792  0.08588769  1
  O  O193  1  0.27326620  0.11913539  0.59071851  1
  O  O194  1  0.27993536  0.61727191  0.08295561  1
  O  O195  1  0.29613844  0.59581198  0.58273839  1
  O  O196  1  0.60576835  0.11149542  0.08645792  1
  O  O197  1  0.60618573  0.11419163  0.58908178  1
  O  O198  1  0.60450681  0.60870150  0.08223259  1
  O  O199  1  0.60309219  0.59269350  0.58095270  1
  O  O200  1  0.93715546  0.13003926  0.08547580  1
  O  O201  1  0.93973998  0.12066617  0.58904257  1
  O  O202  1  0.92714953  0.61830258  0.07102788  1
  O  O203  1  0.94733982  0.60256764  0.58222061  1
  O  O204  1  0.11545506  0.36895083  0.07930163  1
  O  O205  1  0.11533215  0.34978923  0.58982721  1
  O  O206  1  0.10867694  0.87869417  0.08433234  1
  O  O207  1  0.11094609  0.87219346  0.58676884  1
  O  O208  1  0.43980110  0.36661504  0.08470914  1
  O  O209  1  0.43784014  0.36173785  0.59063707  1
  O  O210  1  0.43426061  0.87150867  0.08277023  1
  O  O211  1  0.44082437  0.85748609  0.56311307  1
  O  O212  1  0.76082384  0.35223605  0.07505759  1
  O  O213  1  0.78877272  0.36167819  0.57831736  1
  O  O214  1  0.78504166  0.87583930  0.07488327  1
  O  O215  1  0.80024984  0.86727714  0.58034858  1
  O  O216  1  0.27752534  0.37916089  0.08425612  1
  O  O217  1  0.27404888  0.38312249  0.58802175  1
  O  O218  1  0.27183438  0.87377007  0.08487034  1
  O  O219  1  0.26873973  0.89718955  0.57813843  1
  O  O220  1  0.60055880  0.37663420  0.08315042  1
  O  O221  1  0.59440578  0.39576948  0.57847957  1
  O  O222  1  0.59523126  0.89301677  0.07370594  1
  O  O223  1  0.62063046  0.90721474  0.57136898  1
  O  O224  1  0.94910304  0.36787741  0.07151159  1
  O  O225  1  0.95243212  0.38505980  0.58799117  1
  O  O226  1  0.95046979  0.90051444  0.08600771  1
  O  O227  1  0.95844783  0.90809762  0.59011161  1
  O  O228  1  0.10525159  0.11893549  0.08219858  1
  O  O229  1  0.10698618  0.13720763  0.58915123  1
  O  O230  1  0.11508940  0.62653966  0.07052549  1
  O  O231  1  0.11590470  0.64820731  0.56701064  1
  O  O232  1  0.44075726  0.13546280  0.08550815  1
  O  O233  1  0.44168328  0.14767824  0.59082239  1
  O  O234  1  0.44114991  0.62725498  0.08330322  1
  O  O235  1  0.45087918  0.64128504  0.58864489  1
  O  O236  1  0.77124237  0.13529163  0.08644712  1
  O  O237  1  0.77267270  0.13302676  0.58901275  1
  O  O238  1  0.76515195  0.62867951  0.07769629  1
  O  O239  1  0.78461868  0.62658700  0.57667069  1
  O  O240  1  0.04914211  0.11285281  0.41403622  1
  O  O241  1  0.06494845  0.13523776  0.91963377  1
  O  O242  1  0.06055024  0.61521498  0.40884713  1
  O  O243  1  0.06301290  0.61515257  0.91660934  1
  O  O244  1  0.40265588  0.09581474  0.42301464  1
  O  O245  1  0.39760736  0.12296119  0.91908904  1
  O  O246  1  0.39050289  0.62436163  0.41180973  1
  O  O247  1  0.39587114  0.61899610  0.91769953  1
  O  O248  1  0.72829917  0.11618286  0.41462134  1
  O  O249  1  0.73082322  0.13479712  0.91930622  1
  O  O250  1  0.70961341  0.61459620  0.41712762  1
  O  O251  1  0.72927246  0.62279726  0.91403267  1
  O  O252  1  0.20563186  0.36436119  0.42154572  1
  O  O253  1  0.23001467  0.37028220  0.91872683  1
  O  O254  1  0.22779447  0.87261884  0.41160699  1
  O  O255  1  0.24301703  0.86682847  0.92905317  1
  O  O256  1  0.56716398  0.35840398  0.42273350  1
  O  O257  1  0.56367594  0.37645096  0.91784536  1
  O  O258  1  0.54894792  0.85124250  0.41027223  1
  O  O259  1  0.55888111  0.87012971  0.91652082  1
  O  O260  1  0.88772996  0.35321194  0.41400002  1
  O  O261  1  0.89682316  0.37798755  0.91767538  1
  O  O262  1  0.90299237  0.85536065  0.42040659  1
  O  O263  1  0.90171746  0.85949604  0.92488508  1
  O  O264  1  0.04578477  0.39256586  0.41156396  1
  O  O265  1  0.06380083  0.38025682  0.91733504  1
  O  O266  1  0.06295773  0.87922102  0.41218640  1
  O  O267  1  0.06360521  0.86478341  0.93061921  1
  O  O268  1  0.38814724  0.40232372  0.43212878  1
  O  O269  1  0.39773388  0.37598296  0.91896609  1
  O  O270  1  0.38943415  0.88334983  0.40921514  1
  O  O271  1  0.39989767  0.87586511  0.91882708  1
  O  O272  1  0.72928493  0.37210972  0.41557758  1
  O  O273  1  0.73072606  0.37400676  0.91694702  1
  O  O274  1  0.70957462  0.89112989  0.41877306  1
  O  O275  1  0.71992810  0.86745638  0.92255096  1
  O  O276  1  0.21413716  0.12875764  0.42609558  1
  O  O277  1  0.23053902  0.13542111  0.92077451  1
  O  O278  1  0.22601321  0.63057018  0.41116625  1
  O  O279  1  0.23001547  0.62684208  0.91468878  1
  O  O280  1  0.56522943  0.12311395  0.41487408  1
  O  O281  1  0.56281580  0.12726773  0.91753345  1
  O  O282  1  0.54824932  0.65779823  0.40842040  1
  O  O283  1  0.56393545  0.61855233  0.91712886  1
  O  O284  1  0.88781831  0.14852626  0.41398459  1
  O  O285  1  0.89619642  0.13827977  0.92030202  1
  O  O286  1  0.90134954  0.64074160  0.41855337  1
  O  O287  1  0.89695134  0.61854625  0.91516150  1
  O  O288  1  0.19723574  -0.00040944  0.08526880  1
  O  O289  1  0.16856918  0.00665191  0.58951192  1
  O  O290  1  0.18996702  0.49839612  0.08103632  1
  O  O291  1  0.15651282  0.48540707  0.57837029  1
  O  O292  1  0.49485301  0.00323065  0.08528910  1
  O  O293  1  0.48595004  0.01497386  0.57958319  1
  O  O294  1  0.50716346  0.49598264  0.08528998  1
  O  O295  1  0.48058245  0.49912091  0.59057107  1
  O  O296  1  0.84661010  0.00862691  0.08458487  1
  O  O297  1  0.84230348  0.00679805  0.58640839  1
  O  O298  1  0.83431049  0.50253174  0.07286342  1
  O  O299  1  0.84466986  0.49458148  0.58550953  1
  O  O300  1  0.03496191  0.24590303  0.08638011  1
  O  O301  1  0.00350205  0.24887247  0.58955309  1
  O  O302  1  0.00730670  0.76618857  0.07379283  1
  O  O303  1  -0.00520226  0.76867557  0.57719570  1
  O  O304  1  0.34639588  0.25008100  0.08479032  1
  O  O305  1  0.33166758  0.25132770  0.59121771  1
  O  O306  1  0.35135015  0.74784590  0.08279378  1
  O  O307  1  0.32496047  0.73652688  0.57895674  1
  O  O308  1  0.65969887  0.24379701  0.08706180  1
  O  O309  1  0.66728198  0.24209272  0.57787730  1
  O  O310  1  0.66295177  0.74017118  0.07348920  1
  O  O311  1  0.66257452  0.74738917  0.56019798  1
  O  O312  1  0.14816638  -0.00186861  0.41420988  1
  O  O313  1  0.15090152  0.01229962  0.92845143  1
  O  O314  1  0.15507657  0.50081009  0.41137434  1
  O  O315  1  0.15924793  0.49844286  0.91925244  1
  O  O316  1  0.50572526  -0.01059530  0.41055930  1
  O  O317  1  0.48375031  0.00015707  0.91817871  1
  O  O318  1  0.50964961  0.52128559  0.42334649  1
  O  O319  1  0.47952599  0.49851928  0.91885783  1
  O  O320  1  0.84325335  0.01205869  0.42190072  1
  O  O321  1  0.81906421  0.01409589  0.92858947  1
  O  O322  1  0.83079485  0.48689507  0.42084958  1
  O  O323  1  0.80901073  0.49900867  0.91633114  1
  O  O324  1  0.34163591  0.24896716  0.43404754  1
  O  O325  1  0.32321020  0.25105666  0.91904871  1
  O  O326  1  0.31588604  0.75181912  0.41197091  1
  O  O327  1  0.32574256  0.74627281  0.91715432  1
  O  O328  1  0.65927880  0.24368138  0.41379235  1
  O  O329  1  0.64066474  0.25263464  0.91841951  1
  O  O330  1  0.66890505  0.75255339  0.40732397  1
  O  O331  1  0.63849923  0.74323030  0.91741296  1
  O  O332  1  1.00165263  0.25162868  0.40952570  1
  O  O333  1  0.98358060  0.25685901  0.91786182  1
  O  O334  1  1.00900461  0.74768546  0.40693150  1
  O  O335  1  0.98552640  0.73932174  0.91693581  1
  O  O336  1  0.21230459  0.08121247  0.19478329  1
  O  O337  1  0.20888898  0.08744190  0.69976896  1
  O  O338  1  0.20622406  0.58358654  0.18906444  1
  O  O339  1  0.21125732  0.57952041  0.69989569  1
  O  O340  1  0.54115968  0.08356070  0.19556214  1
  O  O341  1  0.53925957  0.08761824  0.69673326  1
  O  O342  1  0.54205738  0.58085484  0.19410959  1
  O  O343  1  0.54084956  0.57986820  0.69615997  1
  O  O344  1  0.87714840  0.08682251  0.19483937  1
  O  O345  1  0.87845821  0.08901431  0.69893491  1
  O  O346  1  0.87505241  0.58320727  0.18631900  1
  O  O347  1  0.87762982  0.57957761  0.69313487  1
  O  O348  1  0.05183843  0.34088975  0.18926532  1
  O  O349  1  0.04624341  0.33318085  0.69864001  1
  O  O350  1  0.04473630  0.83691967  0.19182082  1
  O  O351  1  0.04398477  0.83677848  0.69533882  1
  O  O352  1  0.37916662  0.33005855  0.19552202  1
  O  O353  1  0.37128860  0.33261796  0.69944389  1
  O  O354  1  0.37624311  0.83221414  0.19345699  1
  O  O355  1  0.37632515  0.83222046  0.70182746  1
  O  O356  1  0.70453251  0.33090451  0.19316377  1
  O  O357  1  0.71026133  0.33417544  0.70135826  1
  O  O358  1  0.71172540  0.83487975  0.19651470  1
  O  O359  1  0.70183395  0.82073513  0.68926671  1
  O  O360  1  0.21221552  0.41773624  0.19260564  1
  O  O361  1  0.20855862  0.41362942  0.69642991  1
  O  O362  1  0.21297816  0.91759939  0.19481478  1
  O  O363  1  0.21279065  0.92100200  0.69602019  1
  O  O364  1  0.54396742  0.41333842  0.19528842  1
  O  O365  1  0.54184036  0.41787658  0.69559651  1
  O  O366  1  0.54033515  0.91778920  0.19130972  1
  O  O367  1  0.53001483  0.91797885  0.69691858  1
  O  O368  1  0.87624039  0.41474348  0.19744246  1
  O  O369  1  0.87826139  0.41340323  0.69431045  1
  O  O370  1  0.87870371  0.92099525  0.19212173  1
  O  O371  1  0.88530906  0.92823513  0.69566255  1
  O  O372  1  0.05229963  0.15724945  0.19360905  1
  O  O373  1  0.04585758  0.16607163  0.69930457  1
  O  O374  1  0.04534845  0.66845853  0.19653885  1
  O  O375  1  0.04666436  0.66827729  0.70100062  1
  O  O376  1  0.37910693  0.16562112  0.19581254  1
  O  O377  1  0.37390128  0.16759876  0.69961251  1
  O  O378  1  0.37957258  0.66844496  0.19324444  1
  O  O379  1  0.37594332  0.66357296  0.69401376  1
  O  O380  1  0.70663346  0.16397028  0.19603852  1
  O  O381  1  0.70778082  0.17005191  0.69685844  1
  O  O382  1  0.70787463  0.66286355  0.18888149  1
  O  O383  1  0.70961526  0.66211648  0.69948137  1
  O  O384  1  0.12359280  0.08308995  0.30759241  1
  O  O385  1  0.12525937  0.08782860  0.81211838  1
  O  O386  1  0.12488111  0.58283719  0.30075269  1
  O  O387  1  0.12102183  0.57525230  0.80749850  1
  O  O388  1  0.45982855  0.07934900  0.30656814  1
  O  O389  1  0.45453244  0.08497406  0.80816935  1
  O  O390  1  0.45904294  0.58679960  0.30507640  1
  O  O391  1  0.45517024  0.58022751  0.80663686  1
  O  O392  1  0.79172998  0.08519859  0.30610395  1
  O  O393  1  0.79051190  0.09096614  0.81092582  1
  O  O394  1  0.78908217  0.58110347  0.29511282  1
  O  O395  1  0.78954170  0.57792379  0.80469580  1
  O  O396  1  0.28987814  0.33513473  0.30014173  1
  O  O397  1  0.29026574  0.33368669  0.80900362  1
  O  O398  1  0.28819796  0.83330430  0.30187439  1
  O  O399  1  0.29075662  0.83416664  0.80992153  1
  O  O400  1  0.62316719  0.33026000  0.30656533  1
  O  O401  1  0.62351884  0.33452886  0.80783853  1
  O  O402  1  0.61925311  0.83934004  0.30347744  1
  O  O403  1  0.61614205  0.82306243  0.80766561  1
  O  O404  1  0.95202695  0.33778110  0.30334862  1
  O  O405  1  0.95418221  0.33864790  0.80740755  1
  O  O406  1  0.95871167  0.83422313  0.30244713  1
  O  O407  1  0.96862894  0.83102758  0.81201529  1
  O  O408  1  0.12046059  0.41719421  0.30377262  1
  O  O409  1  0.12537995  0.41530332  0.80806062  1
  O  O410  1  0.12411963  0.91711397  0.30251510  1
  O  O411  1  0.12378447  0.91897218  0.80158644  1
  O  O412  1  0.45717701  0.41798165  0.30177739  1
  O  O413  1  0.45393195  0.41784030  0.80797326  1
  O  O414  1  0.45559321  0.91349868  0.30154067  1
  O  O415  1  0.45454281  0.91990886  0.80779004  1
  O  O416  1  0.78749522  0.41241819  0.30572080  1
  O  O417  1  0.79017992  0.41658328  0.80648333  1
  O  O418  1  0.79140959  0.91908353  0.29917326  1
  O  O419  1  0.79463303  0.92794484  0.80525565  1
  O  O420  1  0.29130918  0.16448666  0.30139393  1
  O  O421  1  0.29081833  0.16716324  0.80969776  1
  O  O422  1  0.28526456  0.67102824  0.30197532  1
  O  O423  1  0.29628739  0.66566669  0.80618123  1
  O  O424  1  0.62334170  0.16335315  0.30499495  1
  O  O425  1  0.62178246  0.16995190  0.80788718  1
  O  O426  1  0.62134040  0.66497085  0.30161413  1
  O  O427  1  0.61799751  0.66027160  0.80574692  1
  O  O428  1  0.95289535  0.16196639  0.30450080  1
  O  O429  1  0.95525559  0.16870820  0.80895351  1
  O  O430  1  0.95572749  0.66524244  0.30100809  1
  O  O431  1  0.95610873  0.65955002  0.80591896  1
  F  F432  1  0.04755864  0.00098048  0.20207330  1
  F  F433  1  0.04691817  0.00807855  0.70629079  1
  F  F434  1  0.04615340  0.50023720  0.19802672  1
  F  F435  1  0.04549320  0.49562328  0.70334360  1
  F  F436  1  0.37805640  0.00030581  0.20205698  1
  F  F437  1  0.37499251  0.00374569  0.70581130  1
  F  F438  1  0.38000894  0.49656492  0.19822647  1
  F  F439  1  0.37716047  0.49761541  0.70548957  1
  F  F440  1  0.71154098  0.00426862  0.19972676  1
  F  F441  1  0.71810061  0.01694387  0.70007851  1
  F  F442  1  0.70787075  0.49473183  0.19873481  1
  F  F443  1  0.71152812  0.49666411  0.70293665  1
  F  F444  1  0.21322648  0.24819855  0.19814656  1
  F  F445  1  0.21342622  0.24921216  0.70717994  1
  F  F446  1  0.21265705  0.75220712  0.19704268  1
  F  F447  1  0.21338685  0.75603711  0.70307998  1
  F  F448  1  0.54351358  0.24812537  0.20397568  1
  F  F449  1  0.54280427  0.24861789  0.70472165  1
  F  F450  1  0.53662523  0.74906600  0.19647338  1
  F  F451  1  0.54228196  0.74570843  0.70257765  1
  F  F452  1  0.86297527  0.24847110  0.19559018  1
  F  F453  1  0.87514157  0.25042668  0.70387259  1
  F  F454  1  0.87970056  0.75135448  0.19873642  1
  F  F455  1  0.88725677  0.74069988  0.70287099  1
  F  F456  1  0.28881870  -0.00228752  0.29818845  1
  F  F457  1  0.28813132  0.00213596  0.80222744  1
  F  F458  1  0.28481914  0.50024977  0.29677101  1
  F  F459  1  0.28854358  0.49617486  0.80225602  1
  F  F460  1  0.62122416  -0.00036687  0.29530684  1
  F  F461  1  0.61492522  0.01278345  0.80383930  1
  F  F462  1  0.62104306  0.49896830  0.29590645  1
  F  F463  1  0.62092319  0.49824808  0.79951249  1
  F  F464  1  0.95666739  0.00046694  0.29603493  1
  F  F465  1  0.95799724  0.00522385  0.80327297  1
  F  F466  1  0.95534374  0.50278574  0.29256114  1
  F  F467  1  0.95407540  0.49781317  0.79720758  1
  F  F468  1  0.13233664  0.25040219  0.29931118  1
  F  F469  1  0.12971909  0.25187126  0.80650612  1
  F  F470  1  0.12327802  0.75261976  0.29485091  1
  F  F471  1  0.12348115  0.75554187  0.80424626  1
  F  F472  1  0.45629165  0.24738382  0.30007954  1
  F  F473  1  0.45135610  0.24447436  0.80679352  1
  F  F474  1  0.45249815  0.75172762  0.29603102  1
  F  F475  1  0.45369973  0.74534676  0.79933523  1
  F  F476  1  0.78530738  0.24922367  0.29725856  1
  F  F477  1  0.78703340  0.25140297  0.80242926  1
  F  F478  1  0.79472142  0.74753327  0.29624423  1
  F  F479  1  0.78376321  0.73629099  0.80538827  1
