# generated using pymatgen
data_K24Na3Li5Mg64Fe17Si79(O5F)48
_symmetry_space_group_name_H-M   'P 1'
_cell_length_a   16.08256785
_cell_length_b   18.58362419
_cell_length_c   20.54831015
_cell_angle_alpha   90.00084969
_cell_angle_beta   100.02288430
_cell_angle_gamma   90.00564833
_symmetry_Int_Tables_number   1
_chemical_formula_structural   K24Na3Li5Mg64Fe17Si79(O5F)48
_chemical_formula_sum   'K24 Na3 Li5 Mg64 Fe17 Si79 O240 F48'
_cell_volume   6047.59576079
_cell_formula_units_Z   1
loop_
 _symmetry_equiv_pos_site_id
 _symmetry_equiv_pos_as_xyz
  1  'x, y, z'
loop_
 _atom_site_type_symbol
 _atom_site_label
 _atom_site_symmetry_multiplicity
 _atom_site_fract_x
 _atom_site_fract_y
 _atom_site_fract_z
 _atom_site_occupancy
  K  K0  1  0.00516813  0.00077786  0.00519121  1
  K  K1  1  0.00472197  0.00085400  0.49396585  1
  K  K2  1  -0.00032107  0.50223047  0.00257084  1
  K  K3  1  0.00591392  0.50458611  0.49962524  1
  K  K4  1  0.33208213  -0.01233306  0.00287928  1
  K  K5  1  0.32866041  -0.01247336  0.49787297  1
  K  K6  1  0.33151518  0.50430992  0.00337444  1
  K  K7  1  0.33873605  0.49631350  0.50291447  1
  K  K8  1  0.66582844  0.00300504  0.00264940  1
  K  K9  1  0.66131064  -0.01353212  0.49794192  1
  K  K10  1  0.66201442  0.49917750  0.00136046  1
  K  K11  1  0.65979120  0.50985835  0.50046665  1
  K  K12  1  0.16129896  0.24946701  0.00351428  1
  K  K13  1  0.17472751  0.25239334  0.50311475  1
  K  K14  1  0.16566579  0.75309707  0.00328599  1
  K  K15  1  0.17429013  0.74796870  0.49727711  1
  K  K16  1  0.50207882  0.25206900  -0.00428486  1
  K  K17  1  0.48749853  0.25164028  0.50076199  1
  K  K18  1  0.49461354  0.75080094  0.00765368  1
  K  K19  1  0.50163397  0.75846754  0.49246893  1
  K  K20  1  0.84252881  0.24331141  0.00678020  1
  K  K21  1  0.84142689  0.24946599  0.49671838  1
  K  K22  1  0.82893498  0.74725272  0.00103460  1
  K  K23  1  0.82597924  0.74497714  0.50066124  1
  Na  Na24  1  0.33694365  0.25045602  0.74420058  1
  Na  Na25  1  0.00019808  0.92015308  0.24884182  1
  Na  Na26  1  0.49902328  0.33091669  0.25184960  1
  Li  Li27  1  0.33487872  0.74637479  0.25843804  1
  Li  Li28  1  0.00052222  0.25223054  0.24308075  1
  Li  Li29  1  0.33376697  0.58903344  0.25621508  1
  Li  Li30  1  0.49626845  0.33259884  0.75221018  1
  Li  Li31  1  0.00059286  0.41148998  0.24706069  1
  Mg  Mg32  1  0.66711122  0.74966622  0.75076312  1
  Mg  Mg33  1  0.66842505  0.25229398  0.24790344  1
  Mg  Mg34  1  0.49891664  0.49686354  0.75148768  1
  Mg  Mg35  1  0.16656194  0.00001243  0.74819050  1
  Mg  Mg36  1  0.49633119  0.50057476  0.25229612  1
  Mg  Mg37  1  0.83158186  0.49929299  0.75278882  1
  Mg  Mg38  1  0.16590493  0.49971153  0.25081045  1
  Mg  Mg39  1  0.00109437  0.75062985  0.25082573  1
  Mg  Mg40  1  0.33367499  0.74829691  0.75315364  1
  Mg  Mg41  1  0.83363946  0.00097714  0.74892630  1
  Mg  Mg42  1  -0.00120571  0.74854996  0.75137515  1
  Mg  Mg43  1  0.83721961  0.50015429  0.25101721  1
  Mg  Mg44  1  0.16692958  -0.00050481  0.25000262  1
  Mg  Mg45  1  0.66307698  0.24856099  0.75074283  1
  Mg  Mg46  1  0.33192573  0.25098060  0.25181348  1
  Mg  Mg47  1  0.49921231  0.00087610  0.74752416  1
  Mg  Mg48  1  0.16631824  0.50199212  0.74910113  1
  Mg  Mg49  1  0.00173381  0.25063070  0.74842901  1
  Mg  Mg50  1  0.83564732  0.00180054  0.24571040  1
  Mg  Mg51  1  0.50037972  -0.00102703  0.25172725  1
  Mg  Mg52  1  0.66431669  0.74820222  0.25053887  1
  Mg  Mg53  1  0.83263793  0.83381918  0.74917651  1
  Mg  Mg54  1  0.33024943  0.08429985  0.74423791  1
  Mg  Mg55  1  0.00099997  0.58143440  0.24993954  1
  Mg  Mg56  1  0.66841563  0.91509805  0.74933385  1
  Mg  Mg57  1  0.00121354  0.91621599  0.74894185  1
  Mg  Mg58  1  0.83145296  0.66580572  0.25005074  1
  Mg  Mg59  1  0.00244278  0.08542594  0.74895019  1
  Mg  Mg60  1  0.66680823  0.58404274  0.75393900  1
  Mg  Mg61  1  0.17302268  0.66626470  0.25419536  1
  Mg  Mg62  1  0.00171365  0.41702539  0.75177557  1
  Mg  Mg63  1  -0.00167207  0.08725577  0.24528540  1
  Mg  Mg64  1  0.83761050  0.16819027  0.24332246  1
  Mg  Mg65  1  0.66665007  0.41762181  0.25100801  1
  Mg  Mg66  1  0.17123624  0.83125697  0.25358131  1
  Mg  Mg67  1  0.50075153  0.16780275  0.25130544  1
  Mg  Mg68  1  0.49791541  0.83488508  0.25313039  1
  Mg  Mg69  1  0.16202360  0.16782803  0.24772003  1
  Mg  Mg70  1  -0.00001243  0.58503443  0.75098145  1
  Mg  Mg71  1  0.33427354  0.08412492  0.25129992  1
  Mg  Mg72  1  0.49612040  0.66662748  0.25536944  1
  Mg  Mg73  1  0.83904961  0.33420171  0.24787785  1
  Mg  Mg74  1  0.83155932  0.83375018  0.24638458  1
  Mg  Mg75  1  0.66517855  0.91631014  0.24886521  1
  Mg  Mg76  1  0.66445347  0.58529993  0.25110213  1
  Mg  Mg77  1  0.66382309  0.41352784  0.75114165  1
  Mg  Mg78  1  0.50200543  0.83370004  0.75060344  1
  Mg  Mg79  1  0.83306885  0.33260110  0.75229318  1
  Mg  Mg80  1  0.50275942  0.66392866  0.75441790  1
  Mg  Mg81  1  0.66875654  0.08332527  0.75076635  1
  Mg  Mg82  1  0.83427861  0.16517108  0.75165751  1
  Mg  Mg83  1  0.15970829  0.33332713  0.24768736  1
  Mg  Mg84  1  0.33539507  0.91174860  0.25272666  1
  Mg  Mg85  1  0.33200479  0.41905403  0.25121245  1
  Mg  Mg86  1  0.16502693  0.83445200  0.74941879  1
  Mg  Mg87  1  0.83163824  0.66335111  0.75214204  1
  Mg  Mg88  1  0.16370677  0.66556239  0.75097520  1
  Mg  Mg89  1  0.16845049  0.16643119  0.74507901  1
  Mg  Mg90  1  0.33736615  0.41615063  0.75050622  1
  Mg  Mg91  1  0.33203811  0.91481420  0.74885414  1
  Mg  Mg92  1  0.66716021  0.08669006  0.24678639  1
  Mg  Mg93  1  0.17008107  0.33488607  0.74776243  1
  Mg  Mg94  1  0.49810574  0.16881519  0.74634144  1
  Mg  Mg95  1  0.33523347  0.58418423  0.75267944  1
  Fe  Fe96  1  0.80317096  0.57825572  0.89299535  1
  Fe  Fe97  1  0.30703497  0.82735996  0.39488378  1
  Fe  Fe98  1  0.81122496  0.08355474  0.89011693  1
  Fe  Fe99  1  0.14196824  0.91626877  0.88933012  1
  Fe  Fe100  1  0.35953387  0.33417132  0.60815559  1
  Fe  Fe101  1  0.63575884  0.67215427  0.89356644  1
  Fe  Fe102  1  0.52306584  0.92253313  0.10982768  1
  Fe  Fe103  1  0.69588807  0.83440572  0.60900782  1
  Fe  Fe104  1  0.68679941  0.66402116  0.11021882  1
  Fe  Fe105  1  0.64206463  0.66369489  0.39265510  1
  Fe  Fe106  1  0.46790387  0.58220821  0.89325482  1
  Fe  Fe107  1  0.19052930  0.07820966  0.60493759  1
  Fe  Fe108  1  0.85453976  0.07773857  0.10319680  1
  Fe  Fe109  1  0.47671287  0.92113501  0.39445555  1
  Fe  Fe110  1  0.01958575  0.66704531  0.60864588  1
  Fe  Fe111  1  0.02936260  0.16758950  0.10607048  1
  Fe  Fe112  1  0.13805906  0.58564978  0.89097100  1
  Si  Si113  1  0.51840867  0.57740092  0.11476785  1
  Si  Si114  1  0.85619333  0.41967580  0.11446408  1
  Si  Si115  1  0.20102898  0.08047103  0.11286987  1
  Si  Si116  1  0.68812852  0.33980541  0.11394317  1
  Si  Si117  1  0.02355634  0.33834783  0.11019554  1
  Si  Si118  1  0.81169412  0.40771622  0.88914028  1
  Si  Si119  1  0.31377045  0.83134133  0.88658214  1
  Si  Si120  1  0.02773566  0.83006857  0.11656033  1
  Si  Si121  1  0.97604157  0.32990046  0.38278133  1
  Si  Si122  1  0.47572314  0.41395842  0.38734415  1
  Si  Si123  1  0.02447442  0.17236243  0.61009901  1
  Si  Si124  1  0.14331355  0.08668581  0.88612267  1
  Si  Si125  1  0.97078655  0.83188645  0.88551604  1
  Si  Si126  1  0.30596825  0.33474635  0.38511840  1
  Si  Si127  1  0.63560663  0.16324161  0.88585740  1
  Si  Si128  1  0.03100307  0.66570460  0.11697748  1
  Si  Si129  1  0.86317125  0.58548821  0.11373571  1
  Si  Si130  1  0.19243882  0.91375869  0.11601809  1
  Si  Si131  1  0.96739101  0.66769297  0.88936444  1
  Si  Si132  1  0.81255452  0.91667596  0.88508113  1
  Si  Si133  1  0.13924777  0.41501367  0.38400075  1
  Si  Si134  1  0.47555726  0.91960830  0.88390367  1
  Si  Si135  1  0.52803691  0.08317704  0.61365367  1
  Si  Si136  1  0.02359505  0.33862931  0.61449392  1
  Si  Si137  1  0.18999753  0.42039725  0.11377682  1
  Si  Si138  1  0.30187977  0.66910945  0.88778816  1
  Si  Si139  1  0.35942629  0.83002837  0.61599217  1
  Si  Si140  1  0.36409317  0.66452948  0.61640616  1
  Si  Si141  1  0.13751188  0.58019134  0.38722975  1
  Si  Si142  1  0.85490460  0.41241249  0.61645810  1
  Si  Si143  1  0.52295922  0.09279889  0.11309408  1
  Si  Si144  1  0.64178336  0.32868774  0.88490832  1
  Si  Si145  1  0.14075624  0.08349738  0.38457858  1
  Si  Si146  1  0.80984681  0.92073691  0.38299514  1
  Si  Si147  1  0.85424277  0.90738719  0.11101823  1
  Si  Si148  1  0.52861043  0.58130372  0.61594105  1
  Si  Si149  1  0.64850776  0.33597330  0.38650034  1
  Si  Si150  1  0.46770509  0.08490333  0.88198815  1
  Si  Si151  1  0.64611056  0.17155568  0.38568899  1
  Si  Si152  1  0.97030437  0.83303912  0.38385729  1
  Si  Si153  1  0.35799036  0.83106406  0.11366399  1
  Si  Si154  1  0.18897435  0.42136399  0.61113640  1
  Si  Si155  1  0.47813870  0.09261431  0.38858517  1
  Si  Si156  1  0.85551481  0.57552046  0.61305549  1
  Si  Si157  1  0.69027419  0.17349506  0.11095393  1
  Si  Si158  1  0.02100691  0.83379955  0.61224848  1
  Si  Si159  1  0.69119842  0.16613913  0.61420968  1
  Si  Si160  1  0.69237310  0.33031718  0.61539618  1
  Si  Si161  1  0.69270815  0.66387008  0.61272899  1
  Si  Si162  1  0.68899189  0.83331306  0.11220069  1
  Si  Si163  1  0.85962706  0.08971363  0.61273178  1
  Si  Si164  1  0.30444795  0.16720186  0.88198478  1
  Si  Si165  1  0.80943249  0.08616822  0.38306302  1
  Si  Si166  1  0.47263355  0.57782415  0.39190702  1
  Si  Si167  1  0.64515908  0.84177140  0.88736358  1
  Si  Si168  1  0.19511115  0.58768397  0.61262723  1
  Si  Si169  1  0.97929272  0.17037264  0.88451136  1
  Si  Si170  1  0.64915449  0.83488479  0.38896035  1
  Si  Si171  1  0.36232332  0.15966252  0.60643943  1
  Si  Si172  1  0.18914332  0.90760512  0.61106005  1
  Si  Si173  1  0.36033034  0.66626204  0.12076743  1
  Si  Si174  1  0.97497332  0.66828827  0.38582020  1
  Si  Si175  1  0.35087029  0.33290250  0.11618327  1
  Si  Si176  1  0.35937687  0.16969708  0.11624549  1
  Si  Si177  1  0.97992019  0.33243356  0.88422451  1
  Si  Si178  1  0.30825815  0.33244817  0.88438872  1
  Si  Si179  1  0.13913197  0.91689396  0.38799365  1
  Si  Si180  1  0.19563405  0.58490397  0.11893161  1
  Si  Si181  1  0.81474863  0.41519342  0.38646942  1
  Si  Si182  1  0.97472740  0.16718891  0.38248819  1
  Si  Si183  1  0.30586473  0.65689471  0.39226731  1
  Si  Si184  1  0.51886023  0.41568498  0.11712550  1
  Si  Si185  1  0.52235820  0.91804183  0.61330420  1
  Si  Si186  1  0.47699193  0.41408475  0.88962190  1
  Si  Si187  1  0.81390206  0.57925998  0.38899991  1
  Si  Si188  1  0.30510252  0.16858553  0.38474057  1
  Si  Si189  1  0.53044022  0.41698833  0.61256922  1
  Si  Si190  1  0.14610130  0.41536225  0.88756652  1
  Si  Si191  1  0.86560560  0.92400048  0.61107382  1
  O  O192  1  0.28818633  0.10959884  0.08712029  1
  O  O193  1  0.28934198  0.10325418  0.57320886  1
  O  O194  1  0.27387058  0.62104769  0.08922194  1
  O  O195  1  0.28195946  0.61489382  0.58600111  1
  O  O196  1  0.60217521  0.12928753  0.08375992  1
  O  O197  1  0.61234048  0.11245407  0.58505256  1
  O  O198  1  0.59790652  0.59928302  0.08065355  1
  O  O199  1  0.60801056  0.61473474  0.58602771  1
  O  O200  1  0.94127558  0.11122637  0.06380401  1
  O  O201  1  0.93402104  0.13069111  0.58135265  1
  O  O202  1  0.94898982  0.61550543  0.08764243  1
  O  O203  1  0.93262004  0.59981362  0.57690095  1
  O  O204  1  0.09982734  0.38366945  0.08075754  1
  O  O205  1  0.09846334  0.37805825  0.58337332  1
  O  O206  1  0.10314725  0.87207119  0.08591183  1
  O  O207  1  0.11053012  0.85139319  0.58626280  1
  O  O208  1  0.43687361  0.36218774  0.09038090  1
  O  O209  1  0.45275637  0.37089071  0.57268090  1
  O  O210  1  0.42691603  0.86692467  0.07400433  1
  O  O211  1  0.43584549  0.87072533  0.58760689  1
  O  O212  1  0.76592061  0.37793909  0.08364187  1
  O  O213  1  0.77781769  0.35635347  0.58725933  1
  O  O214  1  0.78013989  0.84699879  0.08627730  1
  O  O215  1  0.78758026  0.87585327  0.57484163  1
  O  O216  1  0.26789933  0.38136266  0.08301251  1
  O  O217  1  0.25923774  0.38712915  0.57336878  1
  O  O218  1  0.26557928  0.87093618  0.08515566  1
  O  O219  1  0.27165480  0.87145568  0.58503101  1
  O  O220  1  0.59973666  0.38390788  0.08506551  1
  O  O221  1  0.61640347  0.38554394  0.58536471  1
  O  O222  1  0.62369335  0.89655439  0.08106866  1
  O  O223  1  0.59721637  0.88801439  0.57816362  1
  O  O224  1  0.93357768  0.38295026  0.08357065  1
  O  O225  1  0.93683046  0.38394828  0.58566814  1
  O  O226  1  0.94049974  0.87347944  0.08759887  1
  O  O227  1  0.95438669  0.90030294  0.58648762  1
  O  O228  1  0.12587549  0.12955991  0.07478066  1
  O  O229  1  0.09696910  0.13991641  0.57355571  1
  O  O230  1  0.11032991  0.63084418  0.08695065  1
  O  O231  1  0.11941877  0.63940998  0.57753813  1
  O  O232  1  0.44558043  0.15097754  0.08793279  1
  O  O233  1  0.45195614  0.13628460  0.58046629  1
  O  O234  1  0.43579989  0.62851165  0.08689044  1
  O  O235  1  0.44387078  0.62937451  0.58723104  1
  O  O236  1  0.76234075  0.14120110  0.07442409  1
  O  O237  1  0.77320053  0.13599744  0.58412117  1
  O  O238  1  0.78611341  0.63531369  0.07958545  1
  O  O239  1  0.77065645  0.62296232  0.58476299  1
  O  O240  1  0.06255818  0.12358700  0.41310851  1
  O  O241  1  0.05917015  0.11750295  0.91314470  1
  O  O242  1  0.06167733  0.62343926  0.41607138  1
  O  O243  1  0.03963374  0.61097790  0.92268952  1
  O  O244  1  0.39769107  0.13353966  0.41467193  1
  O  O245  1  0.38636400  0.11602126  0.91223387  1
  O  O246  1  0.38609001  0.60227031  0.41887828  1
  O  O247  1  0.36430803  0.60554382  0.91993086  1
  O  O248  1  0.73092731  0.12296909  0.41494385  1
  O  O249  1  0.71112715  0.11120689  0.92001074  1
  O  O250  1  0.73791244  0.60524045  0.42499268  1
  O  O251  1  0.70807337  0.59866212  0.92756775  1
  O  O252  1  0.23163129  0.37790483  0.41568799  1
  O  O253  1  0.22513929  0.35927014  0.91581792  1
  O  O254  1  0.21517054  0.87075136  0.42937654  1
  O  O255  1  0.23704198  0.85803325  0.92215731  1
  O  O256  1  0.56480062  0.36826659  0.41353845  1
  O  O257  1  0.56121306  0.36182843  0.91460521  1
  O  O258  1  0.57510390  0.86736026  0.42441953  1
  O  O259  1  0.56263009  0.87743004  0.91445506  1
  O  O260  1  0.89788256  0.36553928  0.41633128  1
  O  O261  1  0.89371728  0.35255202  0.91283594  1
  O  O262  1  0.89271380  0.87174134  0.41425052  1
  O  O263  1  0.88026073  0.85112362  0.90975841  1
  O  O264  1  0.06521202  0.37134202  0.41470477  1
  O  O265  1  0.05913880  0.38579312  0.91328453  1
  O  O266  1  0.05171059  0.88458452  0.41090065  1
  O  O267  1  0.04340667  0.88691513  0.92028363  1
  O  O268  1  0.39868107  0.37093370  0.41610179  1
  O  O269  1  0.39514431  0.37551614  0.91697361  1
  O  O270  1  0.39724495  0.88129566  0.43794553  1
  O  O271  1  0.39678397  0.88343572  0.91290410  1
  O  O272  1  0.73350869  0.38343653  0.41826413  1
  O  O273  1  0.72977923  0.37177945  0.91670214  1
  O  O274  1  0.73074721  0.89012356  0.41400108  1
  O  O275  1  0.72278341  0.89974496  0.91052053  1
  O  O276  1  0.22965030  0.12640831  0.41475252  1
  O  O277  1  0.22170872  0.14303523  0.91382202  1
  O  O278  1  0.22619829  0.61684594  0.42165246  1
  O  O279  1  0.21407530  0.66171683  0.91650611  1
  O  O280  1  0.56267764  0.14435397  0.41449056  1
  O  O281  1  0.54849446  0.13590103  0.91197699  1
  O  O282  1  0.55084914  0.62589836  0.42968522  1
  O  O283  1  0.53768413  0.65680534  0.92634470  1
  O  O284  1  0.89616066  0.13067215  0.41465437  1
  O  O285  1  0.89681811  0.15231285  0.91571019  1
  O  O286  1  0.89888053  0.62887309  0.41641524  1
  O  O287  1  0.88293415  0.65161363  0.91997110  1
  O  O288  1  0.18813811  -0.00388744  0.08590208  1
  O  O289  1  0.16471944  -0.01668422  0.57406718  1
  O  O290  1  0.18513205  0.50349855  0.08619960  1
  O  O291  1  0.17287844  0.50518342  0.58449661  1
  O  O292  1  0.49741938  0.01725727  0.07656073  1
  O  O293  1  0.50344607  0.00157557  0.58655783  1
  O  O294  1  0.49083170  0.49499112  0.08631503  1
  O  O295  1  0.51608654  0.50054862  0.58335065  1
  O  O296  1  0.82956690  -0.01772192  0.07254197  1
  O  O297  1  0.84860615  0.00798265  0.58316196  1
  O  O298  1  0.84770066  0.50224901  0.08535468  1
  O  O299  1  0.82851242  0.49217432  0.58705304  1
  O  O300  1  0.01457591  0.26279168  0.07050877  1
  O  O301  1  0.00723055  0.25694670  0.58451057  1
  O  O302  1  0.01783076  0.74750089  0.08514555  1
  O  O303  1  -0.01652246  0.75982016  0.57751113  1
  O  O304  1  0.33102345  0.25054128  0.08649994  1
  O  O305  1  0.33899391  0.23914282  0.57564352  1
  O  O306  1  0.34494153  0.74685928  0.08744554  1
  O  O307  1  0.35065401  0.74713533  0.58731999  1
  O  O308  1  0.67250435  0.25793623  0.08463774  1
  O  O309  1  0.67098402  0.24844779  0.58495563  1
  O  O310  1  0.65247556  0.75664494  0.08181526  1
  O  O311  1  0.67857919  0.74056868  0.57572524  1
  O  O312  1  0.14611044  0.00202051  0.41570657  1
  O  O313  1  0.16946567  0.01022073  0.92095456  1
  O  O314  1  0.13813797  0.49682147  0.41549834  1
  O  O315  1  0.17115351  0.49178945  0.92271854  1
  O  O316  1  0.49688894  0.01757873  0.42673032  1
  O  O317  1  0.48533808  0.00292816  0.91164620  1
  O  O318  1  0.48853717  0.49352797  0.42202143  1
  O  O319  1  0.49707585  0.48895180  0.92903984  1
  O  O320  1  0.82522478  0.00380114  0.41218656  1
  O  O321  1  0.85046222  -0.00862984  0.91796714  1
  O  O322  1  0.83823780  0.49597437  0.41617087  1
  O  O323  1  0.83803728  0.48366070  0.92406704  1
  O  O324  1  0.30792763  0.25167527  0.41403807  1
  O  O325  1  0.32754896  0.24894008  0.91022232  1
  O  O326  1  0.32135655  0.73264046  0.43141093  1
  O  O327  1  0.34302517  0.74950261  0.91068167  1
  O  O328  1  0.66628919  0.25343342  0.41640839  1
  O  O329  1  0.65253715  0.24606865  0.91442377  1
  O  O330  1  0.67683402  0.75662626  0.42066962  1
  O  O331  1  0.67259070  0.76646305  0.92256802  1
  O  O332  1  0.98594960  0.24827693  0.41567750  1
  O  O333  1  1.01145647  0.25201144  0.90959124  1
  O  O334  1  0.98588119  0.75095981  0.41601724  1
  O  O335  1  0.99896818  0.75067389  0.91239626  1
  O  O336  1  0.21429632  0.08362953  0.19369187  1
  O  O337  1  0.20861886  0.08165508  0.69669153  1
  O  O338  1  0.20712019  0.58273882  0.19810422  1
  O  O339  1  0.21181468  0.58620311  0.69339378  1
  O  O340  1  0.54272475  0.08713278  0.19429045  1
  O  O341  1  0.54625587  0.08287335  0.69424040  1
  O  O342  1  0.53946354  0.57993573  0.19546688  1
  O  O343  1  0.54499841  0.58078732  0.69588813  1
  O  O344  1  0.87624087  0.08377542  0.19538752  1
  O  O345  1  0.87908631  0.08774398  0.69294858  1
  O  O346  1  0.87838584  0.58422591  0.19483316  1
  O  O347  1  0.87687306  0.57896958  0.69380998  1
  O  O348  1  0.04537885  0.33515948  0.18943465  1
  O  O349  1  0.04210791  0.33636746  0.69482503  1
  O  O350  1  0.04949711  0.82594295  0.19575104  1
  O  O351  1  0.03928304  0.83224693  0.69326209  1
  O  O352  1  0.36376389  0.33305622  0.19529801  1
  O  O353  1  0.38247080  0.34428406  0.69572524  1
  O  O354  1  0.37990082  0.83792812  0.19289821  1
  O  O355  1  0.37665617  0.83160228  0.69650278  1
  O  O356  1  0.70888710  0.33779542  0.19421799  1
  O  O357  1  0.71106529  0.33038443  0.69565240  1
  O  O358  1  0.70751845  0.83332676  0.19416631  1
  O  O359  1  0.71198435  0.83371303  0.70062207  1
  O  O360  1  0.20776118  0.41658980  0.19379444  1
  O  O361  1  0.20730663  0.41864143  0.69198311  1
  O  O362  1  0.20987611  0.91612528  0.19599535  1
  O  O363  1  0.21035127  0.91359260  0.69190779  1
  O  O364  1  0.54640863  0.42090218  0.19594699  1
  O  O365  1  0.54707150  0.41856287  0.69256197  1
  O  O366  1  0.54551512  0.91892228  0.20125334  1
  O  O367  1  0.54231425  0.91696175  0.69434193  1
  O  O368  1  0.87126514  0.41837534  0.19405963  1
  O  O369  1  0.87543383  0.41326864  0.69682242  1
  O  O370  1  0.86644253  0.91543832  0.19084221  1
  O  O371  1  0.87800524  0.92046211  0.69210847  1
  O  O372  1  0.04605149  0.16727656  0.19701837  1
  O  O373  1  0.04169043  0.16855216  0.69104611  1
  O  O374  1  0.04558164  0.66606432  0.19728618  1
  O  O375  1  0.04134511  0.66751010  0.70010322  1
  O  O376  1  0.37656392  0.16898054  0.19675102  1
  O  O377  1  0.38122787  0.15566476  0.68691626  1
  O  O378  1  0.37992874  0.66539934  0.19963437  1
  O  O379  1  0.37825687  0.66718644  0.69659762  1
  O  O380  1  0.71005413  0.17009265  0.19202473  1
  O  O381  1  0.71078475  0.16705094  0.69426101  1
  O  O382  1  0.71217003  0.66479885  0.20189448  1
  O  O383  1  0.71063604  0.66639104  0.69326697  1
  O  O384  1  0.12560357  0.08370771  0.30478880  1
  O  O385  1  0.12304401  0.08539116  0.80489841  1
  O  O386  1  0.12165461  0.58240021  0.30729159  1
  O  O387  1  0.12129973  0.58119091  0.79918694  1
  O  O388  1  0.45919301  0.08687129  0.30760031  1
  O  O389  1  0.45328756  0.08278216  0.80160710  1
  O  O390  1  0.46207933  0.58008938  0.31205930  1
  O  O391  1  0.45550885  0.58190625  0.80067474  1
  O  O392  1  0.78822213  0.08793402  0.30329674  1
  O  O393  1  0.78969532  0.08307766  0.79772402  1
  O  O394  1  0.79382434  0.58109818  0.30838100  1
  O  O395  1  0.78782162  0.58030059  0.79995399  1
  O  O396  1  0.28861134  0.33436051  0.30529670  1
  O  O397  1  0.28598578  0.34036260  0.80528437  1
  O  O398  1  0.28964154  0.83352452  0.30404180  1
  O  O399  1  0.29139841  0.83420676  0.80530142  1
  O  O400  1  0.63620420  0.33408538  0.30739127  1
  O  O401  1  0.62850840  0.33093806  0.80515885  1
  O  O402  1  0.62811853  0.83463164  0.30774741  1
  O  O403  1  0.62244046  0.83702069  0.80617274  1
  O  O404  1  0.95486011  0.33271442  0.30430353  1
  O  O405  1  0.95878550  0.33357967  0.80341120  1
  O  O406  1  0.94978741  0.82669791  0.30483745  1
  O  O407  1  0.95579692  0.83450500  0.80393286  1
  O  O408  1  0.12519440  0.41556506  0.30485818  1
  O  O409  1  0.12515217  0.41585718  0.80621860  1
  O  O410  1  0.13365182  0.91722641  0.30871830  1
  O  O411  1  0.12202581  0.91760218  0.79722793  1
  O  O412  1  0.45276764  0.42052147  0.30863708  1
  O  O413  1  0.45637570  0.42021354  0.80980590  1
  O  O414  1  0.45479276  0.91965728  0.30270904  1
  O  O415  1  0.45709624  0.91777297  0.80319383  1
  O  O416  1  0.79313690  0.41546102  0.30641240  1
  O  O417  1  0.79122513  0.41176807  0.80777466  1
  O  O418  1  0.79174146  0.91955022  0.30278475  1
  O  O419  1  0.79336969  0.91863667  0.80368125  1
  O  O420  1  0.28779366  0.16664700  0.30452463  1
  O  O421  1  0.28568558  0.16126382  0.80277794  1
  O  O422  1  0.28567473  0.66267471  0.31316718  1
  O  O423  1  0.28770183  0.66716347  0.80571285  1
  O  O424  1  0.62742441  0.16981573  0.30544131  1
  O  O425  1  0.62299336  0.16342550  0.80493356  1
  O  O426  1  0.61982443  0.66477927  0.30154658  1
  O  O427  1  0.62298183  0.66840081  0.80021142  1
  O  O428  1  0.95407755  0.16733697  0.30364214  1
  O  O429  1  0.95992543  0.16832884  0.80305663  1
  O  O430  1  0.95703921  0.66649471  0.30554517  1
  O  O431  1  0.95316814  0.66532234  0.80746034  1
  F  F432  1  0.05224112  0.00917040  0.19771920  1
  F  F433  1  0.04375912  0.00333916  0.69909292  1
  F  F434  1  0.04760137  0.50409439  0.20070579  1
  F  F435  1  0.04307983  0.49688757  0.70033889  1
  F  F436  1  0.37871020  0.00391859  0.20279793  1
  F  F437  1  0.37822406  -0.00366826  0.69993868  1
  F  F438  1  0.37938406  0.49443628  0.20124670  1
  F  F439  1  0.37742701  0.50120380  0.70063000  1
  F  F440  1  0.71105792  0.00292572  0.20209812  1
  F  F441  1  0.71097300  -0.00084735  0.69901385  1
  F  F442  1  0.71411723  0.50037550  0.20531747  1
  F  F443  1  0.71171464  0.49446098  0.70254821  1
  F  F444  1  0.21227079  0.25049022  0.20135838  1
  F  F445  1  0.19795439  0.25199387  0.69442298  1
  F  F446  1  0.20621103  0.74724897  0.20266394  1
  F  F447  1  0.21292387  0.75030883  0.70343668  1
  F  F448  1  0.55045674  0.24292467  0.20035797  1
  F  F449  1  0.55133478  0.24222021  0.69558704  1
  F  F450  1  0.54281640  0.75163236  0.20411924  1
  F  F451  1  0.54336655  0.75163759  0.70119030  1
  F  F452  1  0.87036592  0.25316328  0.19453493  1
  F  F453  1  0.87862140  0.25030816  0.70198015  1
  F  F454  1  0.87969089  0.74763805  0.20141319  1
  F  F455  1  0.87727333  0.74857227  0.70308861  1
  F  F456  1  0.28873992  0.00232481  0.29821913  1
  F  F457  1  0.28953167  -0.00209877  0.79601538  1
  F  F458  1  0.28264474  0.49351875  0.30172677  1
  F  F459  1  0.28661151  0.49986014  0.79530198  1
  F  F460  1  0.62438758  0.00608552  0.29894016  1
  F  F461  1  0.62037772  -0.00036328  0.79580924  1
  F  F462  1  0.62233799  0.49890265  0.30038483  1
  F  F463  1  0.62168343  0.49679003  0.79854039  1
  F  F464  1  0.95106551  0.01061628  0.30134977  1
  F  F465  1  0.95592513  0.00210875  0.79458745  1
  F  F466  1  0.95389064  0.50463698  0.30068153  1
  F  F467  1  0.95453303  0.49795074  0.79760352  1
  F  F468  1  0.13030716  0.25136924  0.30145287  1
  F  F469  1  0.12157528  0.25071386  0.79526285  1
  F  F470  1  0.12015965  0.74819729  0.30286795  1
  F  F471  1  0.12094539  0.75300506  0.79775384  1
  F  F472  1  0.44942914  0.24156759  0.30382745  1
  F  F473  1  0.46788050  0.24473192  0.80164342  1
  F  F474  1  0.46072944  0.75176752  0.30382527  1
  F  F475  1  0.45536387  0.75189997  0.79788390  1
  F  F476  1  0.78965572  0.25086119  0.29536925  1
  F  F477  1  0.78791174  0.24853391  0.79757508  1
  F  F478  1  0.78951290  0.75164568  0.29808405  1
  F  F479  1  0.78904775  0.74925564  0.79774955  1
