# generated using pymatgen
data_K24Na3Li5Mg64Fe17Si79(O5F)48
_symmetry_space_group_name_H-M   'P 1'
_cell_length_a   16.08643211
_cell_length_b   18.58038643
_cell_length_c   20.54265240
_cell_angle_alpha   90.01476791
_cell_angle_beta   100.01106566
_cell_angle_gamma   89.97821997
_symmetry_Int_Tables_number   1
_chemical_formula_structural   K24Na3Li5Mg64Fe17Si79(O5F)48
_chemical_formula_sum   'K24 Na3 Li5 Mg64 Fe17 Si79 O240 F48'
_cell_volume   6046.54948272
_cell_formula_units_Z   1
loop_
 _symmetry_equiv_pos_site_id
 _symmetry_equiv_pos_as_xyz
  1  'x, y, z'
loop_
 _atom_site_type_symbol
 _atom_site_label
 _atom_site_symmetry_multiplicity
 _atom_site_fract_x
 _atom_site_fract_y
 _atom_site_fract_z
 _atom_site_occupancy
  K  K0  1  0.00691141  -0.00758567  -0.00623487  1
  K  K1  1  -0.00879418  -0.00372275  0.50384294  1
  K  K2  1  0.00731852  0.49457253  -0.01012788  1
  K  K3  1  0.00532125  0.49381122  0.51333108  1
  K  K4  1  0.33329091  0.00078820  -0.00412314  1
  K  K5  1  0.33739881  -0.00162550  0.50027471  1
  K  K6  1  0.31821265  0.49635674  -0.01148627  1
  K  K7  1  0.33577677  0.49684673  0.50016705  1
  K  K8  1  0.65967551  -0.00169045  0.00215467  1
  K  K9  1  0.67012406  0.00133354  0.49617974  1
  K  K10  1  0.66389984  0.49539200  -0.00032938  1
  K  K11  1  0.67156820  0.48972439  0.49974881  1
  K  K12  1  0.17139560  0.24222688  -0.01141000  1
  K  K13  1  0.16065272  0.24983927  0.50587543  1
  K  K14  1  0.16077423  0.74670022  -0.00477006  1
  K  K15  1  0.16389599  0.75869473  0.49918643  1
  K  K16  1  0.50035682  0.25208944  -0.00114608  1
  K  K17  1  0.49791351  0.25003398  0.49616924  1
  K  K18  1  0.50088570  0.74835093  0.00228363  1
  K  K19  1  0.49675906  0.75636708  0.49647658  1
  K  K20  1  0.82392796  0.25307377  -0.00182542  1
  K  K21  1  0.84485494  0.25695974  0.50741546  1
  K  K22  1  0.84238447  0.75446996  -0.00022274  1
  K  K23  1  0.84286517  0.75666275  0.50183841  1
  Na  Na24  1  0.15924996  0.49653080  0.74976010  1
  Na  Na25  1  0.66360130  0.41842018  0.24572816  1
  Na  Na26  1  0.49580409  0.83434121  0.24500777  1
  Li  Li27  1  0.83138042  -0.00109874  0.25039713  1
  Li  Li28  1  0.17658871  0.00342929  0.75406668  1
  Li  Li29  1  0.32839092  0.07972546  0.75604436  1
  Li  Li30  1  0.33983735  0.91682453  0.24660417  1
  Li  Li31  1  0.00154647  0.41651152  0.74282151  1
  Mg  Mg32  1  0.33358377  0.75298063  0.24978725  1
  Mg  Mg33  1  0.66419494  0.75072209  0.75154647  1
  Mg  Mg34  1  0.33075244  0.24696572  0.75206396  1
  Mg  Mg35  1  0.00222492  0.75296830  0.25432758  1
  Mg  Mg36  1  0.66680255  0.75225849  0.24748084  1
  Mg  Mg37  1  0.00306257  0.25141743  0.74794244  1
  Mg  Mg38  1  0.33345291  0.75027147  0.75203667  1
  Mg  Mg39  1  0.16617403  0.49822407  0.25622166  1
  Mg  Mg40  1  0.16945780  0.00057119  0.25025597  1
  Mg  Mg41  1  0.49924429  0.49909806  0.25208548  1
  Mg  Mg42  1  0.83192205  0.50053988  0.24720263  1
  Mg  Mg43  1  0.83644931  0.49784850  0.74911274  1
  Mg  Mg44  1  0.66605949  0.25199051  0.74798794  1
  Mg  Mg45  1  0.83302486  0.00069274  0.74660190  1
  Mg  Mg46  1  0.49950691  0.50034633  0.75205151  1
  Mg  Mg47  1  0.33322568  0.24999399  0.25408583  1
  Mg  Mg48  1  0.49731207  -0.00123337  0.24894298  1
  Mg  Mg49  1  -0.00062509  0.75056019  0.74951776  1
  Mg  Mg50  1  0.66604096  0.25103220  0.24824816  1
  Mg  Mg51  1  0.49549979  -0.00034659  0.75207315  1
  Mg  Mg52  1  -0.00258117  0.24931662  0.25157400  1
  Mg  Mg53  1  -0.00045905  0.41598246  0.25253709  1
  Mg  Mg54  1  0.66632501  0.08203906  0.24718962  1
  Mg  Mg55  1  0.00411994  0.08170559  0.74577849  1
  Mg  Mg56  1  0.33369639  0.58484636  0.25396714  1
  Mg  Mg57  1  0.83828839  0.33597226  0.74793217  1
  Mg  Mg58  1  0.66456348  0.08489975  0.74805527  1
  Mg  Mg59  1  0.16610943  0.33428415  0.25668838  1
  Mg  Mg60  1  0.33616873  0.08160947  0.25197969  1
  Mg  Mg61  1  0.66527388  0.91597839  0.75097222  1
  Mg  Mg62  1  0.33247569  0.58292541  0.75241146  1
  Mg  Mg63  1  0.00200495  0.58506089  0.25441441  1
  Mg  Mg64  1  0.33039945  0.41492411  0.75057815  1
  Mg  Mg65  1  0.50075171  0.16559122  0.25127005  1
  Mg  Mg66  1  0.00077441  0.91740962  0.25448250  1
  Mg  Mg67  1  0.66993812  0.41639149  0.74860520  1
  Mg  Mg68  1  0.83510715  0.66717216  0.25245057  1
  Mg  Mg69  1  0.33430660  0.92007556  0.75322385  1
  Mg  Mg70  1  0.83220533  0.66619742  0.75072831  1
  Mg  Mg71  1  0.66568218  0.58457319  0.24934491  1
  Mg  Mg72  1  0.16601280  0.66548110  0.75118106  1
  Mg  Mg73  1  0.50211912  0.83487495  0.75403899  1
  Mg  Mg74  1  0.50284864  0.66664661  0.75241814  1
  Mg  Mg75  1  0.66828564  0.58431660  0.75262262  1
  Mg  Mg76  1  0.83030585  0.16322357  0.24640194  1
  Mg  Mg77  1  -0.00121997  0.58165529  0.74618965  1
  Mg  Mg78  1  0.50004578  0.33592879  0.25039477  1
  Mg  Mg79  1  0.83505750  0.16711630  0.74704198  1
  Mg  Mg80  1  0.66785127  0.91829073  0.24873782  1
  Mg  Mg81  1  0.49888329  0.33414621  0.75108162  1
  Mg  Mg82  1  0.33501123  0.41550018  0.25567727  1
  Mg  Mg83  1  0.49585531  0.16528972  0.75001556  1
  Mg  Mg84  1  0.16767618  0.66702613  0.25447410  1
  Mg  Mg85  1  0.00031125  0.91847987  0.74692887  1
  Mg  Mg86  1  0.16778857  0.83653793  0.75045367  1
  Mg  Mg87  1  0.83129032  0.83644993  0.74805962  1
  Mg  Mg88  1  0.82980050  0.33381157  0.24722857  1
  Mg  Mg89  1  -0.00313650  0.08154678  0.25084126  1
  Mg  Mg90  1  0.16649366  0.16619004  0.25179191  1
  Mg  Mg91  1  0.83614671  0.83719787  0.25203606  1
  Mg  Mg92  1  0.17094785  0.16079339  0.75093632  1
  Mg  Mg93  1  0.16503086  0.33391660  0.75031042  1
  Mg  Mg94  1  0.49865722  0.66718573  0.24940621  1
  Mg  Mg95  1  0.17309388  0.83823146  0.24995205  1
  Fe  Fe96  1  0.47944512  0.07970744  0.39178488  1
  Fe  Fe97  1  0.85492211  0.91505912  0.60726935  1
  Fe  Fe98  1  0.81393912  0.41259948  0.88918686  1
  Fe  Fe99  1  0.14410930  0.07476804  0.88804345  1
  Fe  Fe100  1  0.47567814  0.41789053  0.39393147  1
  Fe  Fe101  1  0.13409959  0.58487800  0.89053990  1
  Fe  Fe102  1  0.03138231  0.33265500  0.60641168  1
  Fe  Fe103  1  0.13856687  0.41333898  0.39434907  1
  Fe  Fe104  1  0.35002886  0.82944980  0.10598617  1
  Fe  Fe105  1  0.52694106  0.91732570  0.10748004  1
  Fe  Fe106  1  0.69129545  0.33261757  0.10580634  1
  Fe  Fe107  1  0.64876031  0.66264148  0.89239133  1
  Fe  Fe108  1  0.47230050  0.91439573  0.89291499  1
  Fe  Fe109  1  0.85824453  0.42083645  0.60599838  1
  Fe  Fe110  1  0.64905009  0.83207685  0.89366633  1
  Fe  Fe111  1  0.30697520  0.33202257  0.89036485  1
  Fe  Fe112  1  0.97779983  0.83519352  0.39360025  1
  Si  Si113  1  0.85512656  0.59327164  0.61015785  1
  Si  Si114  1  0.69169584  0.16145257  0.10928969  1
  Si  Si115  1  0.18907605  0.41375541  0.11933660  1
  Si  Si116  1  0.30924285  0.66514254  0.88765913  1
  Si  Si117  1  0.47374754  0.41883079  0.88575664  1
  Si  Si118  1  0.02504989  0.33174434  0.11667634  1
  Si  Si119  1  0.64033703  0.16990269  0.88300705  1
  Si  Si120  1  0.70017786  0.83275132  0.11268384  1
  Si  Si121  1  0.31067123  0.83659282  0.38643994  1
  Si  Si122  1  0.19624417  0.08016175  0.61575636  1
  Si  Si123  1  0.51966506  0.08726554  0.11162846  1
  Si  Si124  1  0.64710228  0.17009256  0.38660229  1
  Si  Si125  1  0.13551175  0.40951232  0.89108371  1
  Si  Si126  1  0.80848305  0.58092802  0.38597995  1
  Si  Si127  1  0.96472100  0.67159403  0.88676497  1
  Si  Si128  1  0.30790040  0.67229655  0.38773274  1
  Si  Si129  1  0.52458993  0.58109424  0.61478695  1
  Si  Si130  1  0.03266296  0.83502430  0.11641994  1
  Si  Si131  1  0.52565245  0.41605416  0.61497252  1
  Si  Si132  1  0.36183438  0.83224886  0.61536312  1
  Si  Si133  1  0.96946571  0.83664774  0.88386389  1
  Si  Si134  1  0.80851775  0.92710236  0.88630151  1
  Si  Si135  1  0.36111227  0.66761954  0.61441117  1
  Si  Si136  1  0.86631954  0.91302036  0.11618001  1
  Si  Si137  1  0.47706562  0.59025701  0.38926636  1
  Si  Si138  1  0.47510440  0.58413917  0.88710394  1
  Si  Si139  1  0.85392094  0.08683298  0.60956103  1
  Si  Si140  1  0.36280729  0.33253642  0.61366167  1
  Si  Si141  1  0.02936973  0.66920002  0.11844426  1
  Si  Si142  1  0.03196756  0.83367047  0.61176995  1
  Si  Si143  1  0.30613879  0.32782239  0.39187614  1
  Si  Si144  1  0.97399537  0.32256537  0.88721939  1
  Si  Si145  1  0.14060152  0.90622834  0.88543761  1
  Si  Si146  1  0.86227568  0.58775854  0.11626656  1
  Si  Si147  1  0.48119104  0.08366909  0.88649525  1
  Si  Si148  1  0.64408358  0.83173846  0.38367246  1
  Si  Si149  1  0.19949567  0.91544978  0.61594275  1
  Si  Si150  1  0.97116559  0.16493625  0.38465423  1
  Si  Si151  1  0.52255545  0.08396579  0.61384643  1
  Si  Si152  1  0.80615189  0.08323095  0.38295128  1
  Si  Si153  1  0.19652920  0.58667871  0.61440806  1
  Si  Si154  1  0.35539788  0.17137680  0.11580529  1
  Si  Si155  1  0.31474122  0.16401509  0.89039186  1
  Si  Si156  1  0.68709448  0.16801166  0.61227529  1
  Si  Si157  1  0.68823747  0.33228212  0.60992605  1
  Si  Si158  1  0.13985663  0.08815098  0.38507455  1
  Si  Si159  1  0.14643920  0.58378045  0.39104568  1
  Si  Si160  1  0.51660123  0.41925127  0.11046627  1
  Si  Si161  1  0.68425312  0.83166077  0.61082365  1
  Si  Si162  1  0.35382134  0.33625269  0.11560852  1
  Si  Si163  1  0.64169696  0.33077649  0.38607679  1
  Si  Si164  1  0.63847384  0.33578280  0.88485846  1
  Si  Si165  1  0.19063198  0.92402004  0.11204957  1
  Si  Si166  1  0.35720930  0.16801657  0.61463048  1
  Si  Si167  1  0.97536191  0.16183069  0.88364829  1
  Si  Si168  1  0.18941013  0.57726283  0.11973630  1
  Si  Si169  1  0.96463045  0.33157125  0.38634504  1
  Si  Si170  1  0.30471243  0.82917473  0.88623113  1
  Si  Si171  1  0.02126288  0.16744971  0.11488670  1
  Si  Si172  1  0.52213409  0.58495199  0.11497002  1
  Si  Si173  1  0.47977920  0.91407218  0.38817972  1
  Si  Si174  1  0.18905654  0.08879133  0.11519225  1
  Si  Si175  1  0.14825728  0.92296082  0.38918835  1
  Si  Si176  1  0.02760609  0.16055838  0.60959993  1
  Si  Si177  1  0.30753142  0.16381524  0.38773090  1
  Si  Si178  1  0.97720521  0.66265058  0.39083052  1
  Si  Si179  1  0.86005505  0.07828094  0.11417038  1
  Si  Si180  1  0.80329728  0.91755259  0.38669539  1
  Si  Si181  1  0.80434973  0.41644061  0.38168599  1
  Si  Si182  1  0.52337778  0.91903190  0.61428330  1
  Si  Si183  1  0.64532896  0.66845260  0.38525806  1
  Si  Si184  1  0.68686888  0.66814090  0.61426678  1
  Si  Si185  1  0.86474926  0.42153098  0.11183008  1
  Si  Si186  1  0.35070712  0.66020818  0.11339204  1
  Si  Si187  1  0.80697660  0.09054901  0.88159355  1
  Si  Si188  1  0.81161899  0.57791742  0.88639867  1
  Si  Si189  1  0.20179784  0.41871405  0.61046487  1
  Si  Si190  1  0.02815864  0.66791607  0.61316188  1
  Si  Si191  1  0.69246955  0.66585619  0.11593523  1
  O  O192  1  0.26953096  0.12415228  0.08644892  1
  O  O193  1  0.26961379  0.12490217  0.58326027  1
  O  O194  1  0.27395405  0.59958357  0.09050302  1
  O  O195  1  0.27015408  0.63064297  0.58186883  1
  O  O196  1  0.60181246  0.11982305  0.08211228  1
  O  O197  1  0.60336355  0.11780403  0.58415317  1
  O  O198  1  0.60421173  0.62155262  0.08829138  1
  O  O199  1  0.60539230  0.61505626  0.58539845  1
  O  O200  1  0.93734416  0.11954309  0.08397519  1
  O  O201  1  0.93547479  0.12054886  0.58125888  1
  O  O202  1  0.93793072  0.63208943  0.08827194  1
  O  O203  1  0.93498491  0.63403899  0.58231635  1
  O  O204  1  0.10940850  0.36107309  0.09002672  1
  O  O205  1  0.12019072  0.37822257  0.57087911  1
  O  O206  1  0.10483781  0.87514653  0.08301909  1
  O  O207  1  0.11139829  0.87372242  0.58461460  1
  O  O208  1  0.42808563  0.37411682  0.08247533  1
  O  O209  1  0.44407236  0.36619728  0.58460497  1
  O  O210  1  0.44749961  0.84956062  0.07408585  1
  O  O211  1  0.43646502  0.87426477  0.58438600  1
  O  O212  1  0.78128440  0.38154128  0.07504377  1
  O  O213  1  0.76075782  0.36233532  0.57276723  1
  O  O214  1  0.78669078  0.86100862  0.08640815  1
  O  O215  1  0.75940549  0.85756081  0.57360155  1
  O  O216  1  0.26908314  0.38445298  0.08779023  1
  O  O217  1  0.28460015  0.38478014  0.58168539  1
  O  O218  1  0.26361787  0.89740370  0.07375119  1
  O  O219  1  0.27293000  0.87205262  0.58327767  1
  O  O220  1  0.58962202  0.38366820  0.07589740  1
  O  O221  1  0.60357934  0.38247358  0.58367494  1
  O  O222  1  0.62633890  0.88449990  0.07773902  1
  O  O223  1  0.59914902  0.88086286  0.58249283  1
  O  O224  1  0.94795959  0.38567183  0.08620633  1
  O  O225  1  0.93685489  0.38048924  0.56193436  1
  O  O226  1  0.94481299  0.87664350  0.08523382  1
  O  O227  1  0.94688972  0.87278174  0.57520818  1
  O  O228  1  0.10460068  0.13796710  0.08641056  1
  O  O229  1  0.10202250  0.11157159  0.58271450  1
  O  O230  1  0.10670486  0.62787673  0.09046803  1
  O  O231  1  0.10305506  0.62246708  0.58454803  1
  O  O232  1  0.43767549  0.14236365  0.08669854  1
  O  O233  1  0.43617472  0.12940703  0.58430095  1
  O  O234  1  0.43641264  0.63104910  0.08626084  1
  O  O235  1  0.43774031  0.62625148  0.58440177  1
  O  O236  1  0.76883715  0.11490005  0.08329950  1
  O  O237  1  0.76978968  0.13897074  0.58304194  1
  O  O238  1  0.77114055  0.62611745  0.08738031  1
  O  O239  1  0.77031062  0.64487960  0.58318683  1
  O  O240  1  0.05733866  0.11911014  0.41404468  1
  O  O241  1  0.04314387  0.10350990  0.91896274  1
  O  O242  1  0.06113944  0.61245009  0.41766681  1
  O  O243  1  0.04388896  0.62709404  0.92653222  1
  O  O244  1  0.37879532  0.10813424  0.42206171  1
  O  O245  1  0.39781140  0.11104671  0.91519320  1
  O  O246  1  0.39647254  0.62983555  0.41707776  1
  O  O247  1  0.38718920  0.60777758  0.91296731  1
  O  O248  1  0.72957016  0.11876377  0.41544365  1
  O  O249  1  0.72362257  0.11934592  0.91117235  1
  O  O250  1  0.72761393  0.61681908  0.41444640  1
  O  O251  1  0.72671236  0.58752970  0.91823657  1
  O  O252  1  0.22009881  0.34245317  0.42099823  1
  O  O253  1  0.21468201  0.36067703  0.92888896  1
  O  O254  1  0.23758777  0.88015405  0.41809395  1
  O  O255  1  0.21191768  0.84256064  0.90875073  1
  O  O256  1  0.56712739  0.35596521  0.42524287  1
  O  O257  1  0.55190877  0.36171314  0.91128235  1
  O  O258  1  0.55822476  0.85517034  0.41139619  1
  O  O259  1  0.55166312  0.84706144  0.92746204  1
  O  O260  1  0.87768362  0.35810524  0.41159135  1
  O  O261  1  0.89399451  0.34205146  0.92298579  1
  O  O262  1  0.88361046  0.87239684  0.42456351  1
  O  O263  1  0.89422494  0.87873575  0.91363999  1
  O  O264  1  0.03857984  0.38380498  0.42157871  1
  O  O265  1  0.05073082  0.37745071  0.91832615  1
  O  O266  1  0.07609468  0.88949476  0.42596851  1
  O  O267  1  0.05678447  0.87766590  0.91592905  1
  O  O268  1  0.38005335  0.38257890  0.42536375  1
  O  O269  1  0.39592924  0.39734686  0.92133864  1
  O  O270  1  0.40004433  0.87537178  0.41788787  1
  O  O271  1  0.36966809  0.88919391  0.92070076  1
  O  O272  1  0.71904586  0.38972744  0.40760617  1
  O  O273  1  0.71332869  0.38726251  0.92006003  1
  O  O274  1  0.71966160  0.88733469  0.41612717  1
  O  O275  1  0.73249164  0.90453961  0.92310749  1
  O  O276  1  0.21750316  0.14314687  0.41309820  1
  O  O277  1  0.23734579  0.13240922  0.92417635  1
  O  O278  1  0.22681418  0.63900470  0.41690708  1
  O  O279  1  0.23200355  0.64066063  0.92334860  1
  O  O280  1  0.56934915  0.14465425  0.42201082  1
  O  O281  1  0.55953904  0.14178794  0.91400356  1
  O  O282  1  0.56159859  0.64148012  0.41470583  1
  O  O283  1  0.54774335  0.63735752  0.92305491  1
  O  O284  1  0.89410338  0.12662247  0.41431291  1
  O  O285  1  0.88352136  0.14632820  0.90919717  1
  O  O286  1  0.89492178  0.62507683  0.41638485  1
  O  O287  1  0.87746171  0.64525071  0.91137128  1
  O  O288  1  0.16682346  0.00812687  0.08589887  1
  O  O289  1  0.19799240  -0.00268741  0.58535690  1
  O  O290  1  0.16426250  0.49555504  0.09195229  1
  O  O291  1  0.19761236  0.50460601  0.58557586  1
  O  O292  1  0.49500368  0.01161243  0.07553534  1
  O  O293  1  0.50934258  0.00146950  0.58462794  1
  O  O294  1  0.50579180  0.50393986  0.08344256  1
  O  O295  1  0.50917953  0.49865042  0.58564050  1
  O  O296  1  0.85583154  -0.00469767  0.08527381  1
  O  O297  1  0.83295762  0.00951833  0.57400833  1
  O  O298  1  0.86248044  0.50634477  0.08659857  1
  O  O299  1  0.83666287  0.51720646  0.57303370  1
  O  O300  1  0.00359762  0.25023291  0.08695481  1
  O  O301  1  0.02534108  0.23667649  0.57175502  1
  O  O302  1  0.02541572  0.75126573  0.08838114  1
  O  O303  1  0.03220112  0.74985791  0.58331240  1
  O  O304  1  0.33658148  0.25387370  0.08677230  1
  O  O305  1  0.34775157  0.25043498  0.58279296  1
  O  O306  1  0.31690066  0.73322353  0.07672884  1
  O  O307  1  0.35847556  0.75000221  0.58406346  1
  O  O308  1  0.68736976  0.23777922  0.07102401  1
  O  O309  1  0.66296230  0.24895836  0.58330263  1
  O  O310  1  0.68496829  0.74788764  0.08670413  1
  O  O311  1  0.65653570  0.74846558  0.58589339  1
  O  O312  1  0.16410206  0.00756868  0.41492480  1
  O  O313  1  0.16854484  -0.01906883  0.92287143  1
  O  O314  1  0.17337359  0.50690891  0.42428801  1
  O  O315  1  0.14901196  0.49045423  0.92372166  1
  O  O316  1  0.50508400  -0.01244474  0.43035834  1
  O  O317  1  0.51121950  0.00759865  0.92039312  1
  O  O318  1  0.49439270  0.51380013  0.42652147  1
  O  O319  1  0.50269283  0.50107019  0.91137051  1
  O  O320  1  0.81728671  0.00155610  0.41318581  1
  O  O321  1  0.83510475  0.01063103  0.91102228  1
  O  O322  1  0.82213735  0.49806371  0.41365281  1
  O  O323  1  0.85740793  0.50382986  0.91583344  1
  O  O324  1  0.33628812  0.24481871  0.41504501  1
  O  O325  1  0.34287032  0.24157191  0.92519220  1
  O  O326  1  0.31798195  0.75416582  0.41851919  1
  O  O327  1  0.33777060  0.74775369  0.91236630  1
  O  O328  1  0.67785840  0.25128395  0.41416923  1
  O  O329  1  0.66005980  0.25200276  0.91093977  1
  O  O330  1  0.66826823  0.74989421  0.41469716  1
  O  O331  1  0.69683473  0.74662972  0.92832668  1
  O  O332  1  0.98180096  0.24751687  0.41296437  1
  O  O333  1  1.00673340  0.24107126  0.91418793  1
  O  O334  1  0.99409169  0.73982443  0.42647791  1
  O  O335  1  0.97536102  0.75561833  0.91531830  1
  O  O336  1  0.20773898  0.08773136  0.19557450  1
  O  O337  1  0.21375915  0.08407844  0.69422614  1
  O  O338  1  0.20740213  0.58151089  0.20029869  1
  O  O339  1  0.21705542  0.59244548  0.69333884  1
  O  O340  1  0.54257171  0.08760163  0.19246676  1
  O  O341  1  0.54209526  0.08480944  0.69392496  1
  O  O342  1  0.54070319  0.58311210  0.19557309  1
  O  O343  1  0.54144939  0.58206667  0.69471285  1
  O  O344  1  0.87975420  0.08409476  0.19371311  1
  O  O345  1  0.87196101  0.08472995  0.69045301  1
  O  O346  1  0.88056247  0.58694130  0.19695207  1
  O  O347  1  0.87276631  0.58995214  0.69087014  1
  O  O348  1  0.04149963  0.33115002  0.19714315  1
  O  O349  1  0.04709101  0.33055326  0.69718886  1
  O  O350  1  0.04901968  0.83455809  0.19671625  1
  O  O351  1  0.04428028  0.83346111  0.69234838  1
  O  O352  1  0.37205639  0.33400938  0.19608123  1
  O  O353  1  0.38041549  0.33272790  0.69370270  1
  O  O354  1  0.36150195  0.83095121  0.19498002  1
  O  O355  1  0.37792025  0.83068050  0.69497422  1
  O  O356  1  0.71464957  0.32558181  0.19575529  1
  O  O357  1  0.70621640  0.33191419  0.69066485  1
  O  O358  1  0.71571892  0.83265339  0.19373618  1
  O  O359  1  0.70748600  0.83466665  0.69149207  1
  O  O360  1  0.21024099  0.41489725  0.19969928  1
  O  O361  1  0.21644529  0.41157918  0.68968342  1
  O  O362  1  0.20353863  0.92097799  0.19225716  1
  O  O363  1  0.21621270  0.91205091  0.69517171  1
  O  O364  1  0.52984516  0.41860733  0.19042588  1
  O  O365  1  0.54308014  0.41670254  0.69525959  1
  O  O366  1  0.55130147  0.92593870  0.19754845  1
  O  O367  1  0.54341549  0.91869635  0.69395185  1
  O  O368  1  0.87944926  0.41854659  0.19295962  1
  O  O369  1  0.87495329  0.41713885  0.69606950  1
  O  O370  1  0.88325091  0.91452410  0.19571040  1
  O  O371  1  0.87492084  0.91671226  0.69862296  1
  O  O372  1  0.04078365  0.16630400  0.19543682  1
  O  O373  1  0.04239728  0.16437640  0.68996621  1
  O  O374  1  0.04516892  0.66784488  0.19907179  1
  O  O375  1  0.04220550  0.66984099  0.69301973  1
  O  O376  1  0.37232227  0.17013377  0.19605508  1
  O  O377  1  0.37854526  0.17074117  0.69387709  1
  O  O378  1  0.37234515  0.66300695  0.19464125  1
  O  O379  1  0.37850214  0.66662041  0.69456495  1
  O  O380  1  0.70955339  0.16451395  0.19035915  1
  O  O381  1  0.70653546  0.16688891  0.69269968  1
  O  O382  1  0.71279780  0.66656611  0.19646017  1
  O  O383  1  0.70811693  0.66699796  0.69440040  1
  O  O384  1  0.12091285  0.08573545  0.30451708  1
  O  O385  1  0.12064114  0.08136160  0.79787679  1
  O  O386  1  0.12551014  0.58433043  0.30959749  1
  O  O387  1  0.11437764  0.59232679  0.80070328  1
  O  O388  1  0.45690956  0.08526111  0.30032905  1
  O  O389  1  0.46496159  0.08414745  0.80611184  1
  O  O390  1  0.45625970  0.58532415  0.30838141  1
  O  O391  1  0.45801938  0.58479292  0.80554211  1
  O  O392  1  0.78828835  0.08687565  0.30341063  1
  O  O393  1  0.78732432  0.08675823  0.80095661  1
  O  O394  1  0.79126253  0.58408952  0.30546783  1
  O  O395  1  0.79088167  0.58218569  0.80436520  1
  O  O396  1  0.28965609  0.33211918  0.30977342  1
  O  O397  1  0.28925685  0.33197696  0.79846789  1
  O  O398  1  0.28764831  0.83115595  0.30747340  1
  O  O399  1  0.29041454  0.83133916  0.80498192  1
  O  O400  1  0.61639502  0.32666128  0.30642730  1
  O  O401  1  0.62250276  0.33443778  0.80355755  1
  O  O402  1  0.63406745  0.83120910  0.30454408  1
  O  O403  1  0.62412591  0.83411365  0.79981506  1
  O  O404  1  0.95333060  0.33193609  0.30505446  1
  O  O405  1  0.95202010  0.32236224  0.80738338  1
  O  O406  1  0.95800863  0.83377531  0.30192006  1
  O  O407  1  0.95425186  0.83455369  0.80357151  1
  O  O408  1  0.11911793  0.41649703  0.30182863  1
  O  O409  1  0.12366322  0.40617398  0.81173140  1
  O  O410  1  0.12710778  0.91902710  0.30827874  1
  O  O411  1  0.11798311  0.91068133  0.80528369  1
  O  O412  1  0.45523960  0.41738740  0.30202141  1
  O  O413  1  0.45674407  0.41685350  0.80442043  1
  O  O414  1  0.45653708  0.92556891  0.31014822  1
  O  O415  1  0.45596353  0.91559885  0.80036700  1
  O  O416  1  0.79883249  0.41969635  0.30272628  1
  O  O417  1  0.78731708  0.41473213  0.79763720  1
  O  O418  1  0.78902729  0.91378797  0.30672346  1
  O  O419  1  0.78822052  0.92106454  0.80532036  1
  O  O420  1  0.28883606  0.16582968  0.30647020  1
  O  O421  1  0.29202109  0.16800247  0.80976962  1
  O  O422  1  0.28909606  0.66786252  0.30730026  1
  O  O423  1  0.29057552  0.66606756  0.80621993  1
  O  O424  1  0.62624801  0.16711798  0.30531544  1
  O  O425  1  0.62307124  0.16824292  0.80235932  1
  O  O426  1  0.62618922  0.66735481  0.30500049  1
  O  O427  1  0.62266997  0.66634048  0.79928361  1
  O  O428  1  0.95494766  0.16518742  0.30412411  1
  O  O429  1  0.95651755  0.16261989  0.80245759  1
  O  O430  1  0.95932700  0.66587623  0.30945253  1
  O  O431  1  0.95338981  0.67085582  0.80574383  1
  F  F432  1  0.04616119  0.00034592  0.20333605  1
  F  F433  1  0.03270575  -0.00262091  0.69288410  1
  F  F434  1  0.04504780  0.50325669  0.20368195  1
  F  F435  1  0.03008256  0.50668228  0.68749214  1
  F  F436  1  0.37698138  0.00520832  0.19878415  1
  F  F437  1  0.38109296  -0.00392137  0.69702364  1
  F  F438  1  0.37406969  0.50200220  0.20503563  1
  F  F439  1  0.38071702  0.50113982  0.70082154  1
  F  F440  1  0.71318652  0.00078467  0.20125395  1
  F  F441  1  0.70941412  0.00097147  0.69993916  1
  F  F442  1  0.71683463  0.51243945  0.19605596  1
  F  F443  1  0.70858639  0.50285738  0.69935109  1
  F  F444  1  0.20986299  0.25157492  0.20570633  1
  F  F445  1  0.21255147  0.24495429  0.70029162  1
  F  F446  1  0.20794228  0.74791964  0.20402571  1
  F  F447  1  0.21292385  0.75029773  0.70207734  1
  F  F448  1  0.54243856  0.25005050  0.20136737  1
  F  F449  1  0.54414419  0.25038855  0.70131822  1
  F  F450  1  0.55114441  0.73813643  0.19773930  1
  F  F451  1  0.54117226  0.75048127  0.69907671  1
  F  F452  1  0.88000320  0.24852503  0.20045053  1
  F  F453  1  0.87791624  0.24835403  0.69870320  1
  F  F454  1  0.88229222  0.74740902  0.20296325  1
  F  F455  1  0.87757670  0.75128720  0.70083567  1
  F  F456  1  0.28334491  0.00639049  0.30013165  1
  F  F457  1  0.29194407  -0.00280472  0.80172363  1
  F  F458  1  0.28822075  0.50090026  0.30232490  1
  F  F459  1  0.29920210  0.49984004  0.80018489  1
  F  F460  1  0.62451483  0.00364520  0.29983340  1
  F  F461  1  0.62168531  0.00246923  0.79557643  1
  F  F462  1  0.61757716  0.51009083  0.30069235  1
  F  F463  1  0.62060251  0.49873614  0.79601520  1
  F  F464  1  0.96130965  0.00094606  0.30225087  1
  F  F465  1  0.95292212  0.00202421  0.79584192  1
  F  F466  1  0.95383263  0.50162147  0.29783252  1
  F  F467  1  0.95247287  0.50766618  0.79745598  1
  F  F468  1  0.11814684  0.24800022  0.29949161  1
  F  F469  1  0.12282906  0.24385866  0.79671333  1
  F  F470  1  0.12328490  0.75166849  0.30123267  1
  F  F471  1  0.11995308  0.75185059  0.79545329  1
  F  F472  1  0.45363020  0.25071913  0.29763274  1
  F  F473  1  0.45619582  0.25036034  0.79793127  1
  F  F474  1  0.44994482  0.73969298  0.30141595  1
  F  F475  1  0.45432724  0.74879168  0.79732376  1
  F  F476  1  0.79033151  0.24683257  0.29668254  1
  F  F477  1  0.78564923  0.24889518  0.79330324  1
  F  F478  1  0.79053994  0.74940032  0.29803364  1
  F  F479  1  0.78752668  0.75256044  0.79453585  1
