# generated using pymatgen
data_K24Na3Li5Mg64Fe17Si79(O5F)48
_symmetry_space_group_name_H-M   'P 1'
_cell_length_a   16.08741182
_cell_length_b   18.60201921
_cell_length_c   20.55752317
_cell_angle_alpha   90.00529602
_cell_angle_beta   100.03743588
_cell_angle_gamma   89.99715321
_symmetry_Int_Tables_number   1
_chemical_formula_structural   K24Na3Li5Mg64Fe17Si79(O5F)48
_chemical_formula_sum   'K24 Na3 Li5 Mg64 Fe17 Si79 O240 F48'
_cell_volume   6057.84815706
_cell_formula_units_Z   1
loop_
 _symmetry_equiv_pos_site_id
 _symmetry_equiv_pos_as_xyz
  1  'x, y, z'
loop_
 _atom_site_type_symbol
 _atom_site_label
 _atom_site_symmetry_multiplicity
 _atom_site_fract_x
 _atom_site_fract_y
 _atom_site_fract_z
 _atom_site_occupancy
  K  K0  1  0.01109610  -0.00246837  0.01100646  1
  K  K1  1  -0.00434608  0.00096379  0.49507769  1
  K  K2  1  0.00390345  0.49385379  0.00203529  1
  K  K3  1  0.00132627  0.51189835  0.50123136  1
  K  K4  1  0.33801933  -0.00193690  0.01727816  1
  K  K5  1  0.32993132  0.00050334  0.49147028  1
  K  K6  1  0.32055494  0.50492231  0.00252119  1
  K  K7  1  0.33509259  0.50364204  0.49753248  1
  K  K8  1  0.65999543  -0.01015949  0.00847033  1
  K  K9  1  0.65180391  -0.00668084  0.50229330  1
  K  K10  1  0.66943777  0.50481781  -0.00035962  1
  K  K11  1  0.66264664  0.50874720  0.49919350  1
  K  K12  1  0.17366514  0.24865778  0.01129932  1
  K  K13  1  0.16920420  0.24992363  0.49224036  1
  K  K14  1  0.17378008  0.74996392  0.00823772  1
  K  K15  1  0.16430797  0.75203451  0.49061437  1
  K  K16  1  0.50111272  0.24412474  0.00802820  1
  K  K17  1  0.49945405  0.24205411  0.49613330  1
  K  K18  1  0.49758662  0.74530032  -0.00028465  1
  K  K19  1  0.48572305  0.75054544  0.49428535  1
  K  K20  1  0.83337546  0.25509760  -0.00168100  1
  K  K21  1  0.83222348  0.24993706  0.49746869  1
  K  K22  1  0.83206599  0.75302854  0.00516026  1
  K  K23  1  0.83939256  0.74555852  0.50030587  1
  Na  Na24  1  0.83703409  0.50075949  0.24992798  1
  Na  Na25  1  0.16442168  0.83448308  0.25580121  1
  Na  Na26  1  0.16281364  0.33113359  0.75219590  1
  Li  Li27  1  0.00451435  0.75509025  0.25570450  1
  Li  Li28  1  0.16984083  -0.00413280  0.24800805  1
  Li  Li29  1  0.66802416  0.91112518  0.25752404  1
  Li  Li30  1  0.16748742  0.33271837  0.24272105  1
  Li  Li31  1  0.83353554  0.33665496  0.75492271  1
  Mg  Mg32  1  0.16787085  0.49666534  0.24659771  1
  Mg  Mg33  1  0.00079263  0.75077974  0.74564974  1
  Mg  Mg34  1  0.33105258  0.24955487  0.24338558  1
  Mg  Mg35  1  0.66806582  0.75164942  0.25427703  1
  Mg  Mg36  1  0.66921454  0.24903631  0.24611735  1
  Mg  Mg37  1  0.16598340  0.00089622  0.74918906  1
  Mg  Mg38  1  0.66850282  0.25174318  0.75030166  1
  Mg  Mg39  1  0.83063881  -0.00248643  0.24864353  1
  Mg  Mg40  1  0.33058448  0.25093975  0.74855355  1
  Mg  Mg41  1  0.33297720  0.74773885  0.75372856  1
  Mg  Mg42  1  0.83281829  0.00007368  0.74655647  1
  Mg  Mg43  1  0.66584985  0.75005148  0.75436841  1
  Mg  Mg44  1  0.83166828  0.49717290  0.75177732  1
  Mg  Mg45  1  0.50456529  -0.00290699  0.24816847  1
  Mg  Mg46  1  0.33269952  0.75078696  0.25385626  1
  Mg  Mg47  1  -0.00405590  0.25239048  0.75102425  1
  Mg  Mg48  1  0.50106584  0.00044480  0.74831936  1
  Mg  Mg49  1  0.50120191  0.50014949  0.25348323  1
  Mg  Mg50  1  0.00495984  0.25013684  0.24520114  1
  Mg  Mg51  1  0.49857498  0.50025217  0.75524062  1
  Mg  Mg52  1  0.16431903  0.50073418  0.75046477  1
  Mg  Mg53  1  -0.00263338  0.08570034  0.74686057  1
  Mg  Mg54  1  0.00489953  0.41565993  0.24548507  1
  Mg  Mg55  1  0.33276661  0.91698372  0.24974450  1
  Mg  Mg56  1  0.33440389  0.91667555  0.75239037  1
  Mg  Mg57  1  0.00151049  0.58510678  0.25014658  1
  Mg  Mg58  1  0.83386088  0.83359427  0.25071655  1
  Mg  Mg59  1  0.33463173  0.58369823  0.25299425  1
  Mg  Mg60  1  0.16532294  0.66763360  0.25181274  1
  Mg  Mg61  1  0.33064493  0.41635794  0.75341841  1
  Mg  Mg62  1  0.83790040  0.66817959  0.25137562  1
  Mg  Mg63  1  0.83601611  0.16492570  0.24698003  1
  Mg  Mg64  1  0.50068302  0.83346396  0.75223901  1
  Mg  Mg65  1  0.83727008  0.33433085  0.24766874  1
  Mg  Mg66  1  0.83306336  0.66554460  0.74994441  1
  Mg  Mg67  1  0.66578474  0.91417670  0.74886202  1
  Mg  Mg68  1  0.33274528  0.08613010  0.74824908  1
  Mg  Mg69  1  0.50281303  0.66515102  0.25607479  1
  Mg  Mg70  1  -0.00057491  0.58544271  0.74903418  1
  Mg  Mg71  1  -0.00341240  0.91699034  0.74427616  1
  Mg  Mg72  1  0.49804284  0.66424703  0.75706093  1
  Mg  Mg73  1  0.66464960  0.08423431  0.74575515  1
  Mg  Mg74  1  -0.00350078  0.41563837  0.75187007  1
  Mg  Mg75  1  0.66944281  0.41486666  0.75374337  1
  Mg  Mg76  1  0.66625880  0.58337350  0.75548579  1
  Mg  Mg77  1  0.16735645  0.16570321  0.24578468  1
  Mg  Mg78  1  0.50010521  0.16539040  0.74619487  1
  Mg  Mg79  1  0.00175879  0.91557077  0.25208332  1
  Mg  Mg80  1  0.00450892  0.08055176  0.24668769  1
  Mg  Mg81  1  0.83233317  0.83526193  0.74700204  1
  Mg  Mg82  1  0.16671993  0.83489588  0.74894297  1
  Mg  Mg83  1  0.83122245  0.16969581  0.74697152  1
  Mg  Mg84  1  0.50048828  0.33343962  0.24855147  1
  Mg  Mg85  1  0.33379260  0.58584080  0.75336984  1
  Mg  Mg86  1  0.16645218  0.66575264  0.75043663  1
  Mg  Mg87  1  0.66980675  0.58369865  0.25351455  1
  Mg  Mg88  1  0.16423882  0.16773032  0.74905909  1
  Mg  Mg89  1  0.66816343  0.08043300  0.24695369  1
  Mg  Mg90  1  0.66995094  0.41685129  0.24969092  1
  Mg  Mg91  1  0.50025028  0.16369519  0.24460466  1
  Mg  Mg92  1  0.33110155  0.41439592  0.24836816  1
  Mg  Mg93  1  0.50191562  0.83502240  0.25075801  1
  Mg  Mg94  1  0.33217709  0.08129334  0.24712714  1
  Mg  Mg95  1  0.49968737  0.33372746  0.75327924  1
  Fe  Fe96  1  0.80499066  0.92082567  0.38945549  1
  Fe  Fe97  1  0.64123287  0.83260131  0.39244954  1
  Fe  Fe98  1  0.47733552  0.58107445  0.39329284  1
  Fe  Fe99  1  0.97077825  0.82953331  0.39198874  1
  Fe  Fe100  1  0.52249972  0.08160139  0.60625081  1
  Fe  Fe101  1  0.02747054  0.66976277  0.60898215  1
  Fe  Fe102  1  0.64306331  0.83767667  0.89235328  1
  Fe  Fe103  1  0.19120143  0.08048585  0.10847358  1
  Fe  Fe104  1  0.53124061  0.07894334  0.10703652  1
  Fe  Fe105  1  0.47051063  0.91788701  0.39055650  1
  Fe  Fe106  1  0.81042046  0.41615188  0.89239108  1
  Fe  Fe107  1  0.30013879  0.83585151  0.39287040  1
  Fe  Fe108  1  0.30419407  0.66740470  0.89520951  1
  Fe  Fe109  1  0.85450446  0.91954459  0.60617151  1
  Fe  Fe110  1  0.35838186  0.66605041  0.61255307  1
  Fe  Fe111  1  0.47728203  0.57604147  0.89772280  1
  Fe  Fe112  1  0.18810068  0.41574274  0.10799268  1
  Si  Si113  1  0.64646277  0.66664090  0.89246528  1
  Si  Si114  1  0.52443358  0.90857005  0.10996668  1
  Si  Si115  1  0.02132058  0.83465497  0.11498006  1
  Si  Si116  1  0.35571598  0.83407943  0.61720663  1
  Si  Si117  1  0.13840224  0.91785651  0.88330629  1
  Si  Si118  1  0.47362416  0.08869052  0.88406776  1
  Si  Si119  1  0.69714415  0.33661552  0.11284152  1
  Si  Si120  1  0.30260648  0.66217849  0.39052572  1
  Si  Si121  1  0.68961657  0.82548993  0.61352048  1
  Si  Si122  1  0.46949956  0.92319713  0.88783162  1
  Si  Si123  1  0.85603672  0.91577629  0.11274785  1
  Si  Si124  1  0.03079669  0.84203200  0.61065225  1
  Si  Si125  1  0.01799176  0.33356025  0.61429245  1
  Si  Si126  1  0.36387640  0.33678254  0.11057726  1
  Si  Si127  1  0.35877085  0.82777896  0.11331026  1
  Si  Si128  1  0.85969693  0.08059471  0.11277872  1
  Si  Si129  1  0.81200994  0.08490247  0.88198996  1
  Si  Si130  1  0.85398358  0.09024687  0.61097307  1
  Si  Si131  1  0.52128859  0.41705937  0.61751354  1
  Si  Si132  1  0.97666197  0.16654560  0.88359843  1
  Si  Si133  1  0.18967963  0.58732960  0.11334230  1
  Si  Si134  1  0.52291787  0.90984387  0.61341535  1
  Si  Si135  1  0.30518482  0.16840862  0.88493504  1
  Si  Si136  1  0.85731248  0.58097386  0.61367177  1
  Si  Si137  1  0.35321267  0.17097190  0.61094768  1
  Si  Si138  1  0.31043021  0.33131483  0.38293627  1
  Si  Si139  1  0.30651443  0.33379284  0.88643290  1
  Si  Si140  1  0.80908722  0.57981167  0.38623109  1
  Si  Si141  1  0.97852430  0.33580688  0.38315460  1
  Si  Si142  1  0.19365221  0.57810477  0.61142754  1
  Si  Si143  1  0.18848419  0.08687664  0.61406034  1
  Si  Si144  1  0.30677940  0.83958889  0.88805847  1
  Si  Si145  1  0.47912520  0.40977750  0.38814394  1
  Si  Si146  1  0.53128300  0.41756963  0.11578004  1
  Si  Si147  1  0.65055330  0.66486841  0.39246526  1
  Si  Si148  1  0.52950723  0.58294010  0.11805060  1
  Si  Si149  1  0.80986991  0.41312251  0.38442361  1
  Si  Si150  1  0.19813007  0.92179251  0.61606585  1
  Si  Si151  1  0.30836640  0.16839671  0.38284666  1
  Si  Si152  1  0.96916431  0.67024481  0.88426290  1
  Si  Si153  1  0.64581418  0.33094544  0.38401057  1
  Si  Si154  1  0.02554586  0.67012921  0.11481766  1
  Si  Si155  1  0.13853415  0.57728064  0.38280986  1
  Si  Si156  1  0.02207942  0.16848037  0.61295924  1
  Si  Si157  1  0.14025966  0.08250183  0.88306856  1
  Si  Si158  1  0.13018945  0.92606702  0.39082551  1
  Si  Si159  1  0.69217148  0.17269682  0.61063424  1
  Si  Si160  1  0.18616001  0.41646444  0.61617146  1
  Si  Si161  1  0.97515025  0.83418462  0.88305463  1
  Si  Si162  1  0.81299798  0.08912823  0.38449794  1
  Si  Si163  1  0.68638454  0.33648141  0.61547561  1
  Si  Si164  1  0.69347346  0.82778056  0.11548199  1
  Si  Si165  1  0.69919492  0.17000402  0.10920393  1
  Si  Si166  1  0.47696110  0.40606359  0.89102317  1
  Si  Si167  1  0.81122480  0.58543798  0.88833920  1
  Si  Si168  1  0.81238453  0.92132411  0.88641086  1
  Si  Si169  1  0.64003429  0.32730678  0.88878623  1
  Si  Si170  1  0.13923603  0.41992106  0.88602753  1
  Si  Si171  1  0.86228318  0.41863440  0.11280472  1
  Si  Si172  1  0.19233908  0.91170402  0.11048476  1
  Si  Si173  1  0.69206876  0.66148971  0.61877506  1
  Si  Si174  1  0.85436286  0.41650678  0.61515539  1
  Si  Si175  1  0.47733086  0.08944385  0.38383180  1
  Si  Si176  1  0.64483966  0.16336859  0.88359529  1
  Si  Si177  1  0.35316694  0.33668828  0.61554776  1
  Si  Si178  1  0.14026696  0.08856673  0.38412385  1
  Si  Si179  1  0.14432593  0.41490884  0.38144241  1
  Si  Si180  1  0.69580224  0.66431844  0.11632007  1
  Si  Si181  1  0.36108600  0.16915799  0.10741718  1
  Si  Si182  1  0.36133204  0.66364426  0.11774023  1
  Si  Si183  1  0.02052959  0.16487832  0.10877229  1
  Si  Si184  1  0.01809226  0.32893629  0.10857995  1
  Si  Si185  1  0.64524875  0.16795503  0.38180165  1
  Si  Si186  1  0.13152758  0.58463132  0.88917447  1
  Si  Si187  1  0.97656606  0.17234669  0.38225608  1
  Si  Si188  1  0.97566605  0.65875377  0.38732965  1
  Si  Si189  1  0.86375275  0.58590364  0.11411049  1
  Si  Si190  1  0.52860563  0.58223093  0.61770275  1
  Si  Si191  1  0.98047668  0.33008047  0.88889118  1
  O  O192  1  0.27477641  0.13024995  0.07219492  1
  O  O193  1  0.26440595  0.12648106  0.58377614  1
  O  O194  1  0.27309072  0.62227117  0.08668266  1
  O  O195  1  0.28070378  0.59240009  0.58395015  1
  O  O196  1  0.61686044  0.12858607  0.07167552  1
  O  O197  1  0.61619933  0.12238659  0.57457625  1
  O  O198  1  0.60593696  0.62242019  0.08726332  1
  O  O199  1  0.61750229  0.60333334  0.59220604  1
  O  O200  1  0.93966736  0.11098053  0.08133688  1
  O  O201  1  0.93870199  0.12095368  0.58300635  1
  O  O202  1  0.93932448  0.62414877  0.08091476  1
  O  O203  1  0.93295445  0.60969135  0.57871279  1
  O  O204  1  0.09482582  0.35585033  0.07338731  1
  O  O205  1  0.10187734  0.36621151  0.58821553  1
  O  O206  1  0.10189648  0.86694775  0.08354455  1
  O  O207  1  0.12095417  0.86783521  0.58739241  1
  O  O208  1  0.44774243  0.37133068  0.08466839  1
  O  O209  1  0.43420298  0.37162911  0.58726991  1
  O  O210  1  0.43463694  0.86519052  0.08022332  1
  O  O211  1  0.44315679  0.85498829  0.59063327  1
  O  O212  1  0.77079974  0.38017170  0.08309983  1
  O  O213  1  0.76722679  0.37093540  0.58643662  1
  O  O214  1  0.76794468  0.87114140  0.08361789  1
  O  O215  1  0.76763357  0.85181590  0.57971015  1
  O  O216  1  0.28352724  0.38183297  0.07423050  1
  O  O217  1  0.26681270  0.38187232  0.58559478  1
  O  O218  1  0.26763656  0.86477708  0.08082856  1
  O  O219  1  0.28539142  0.89830743  0.59151679  1
  O  O220  1  0.60877846  0.37950972  0.08523056  1
  O  O221  1  0.59991899  0.38266685  0.58554309  1
  O  O222  1  0.60171354  0.86333724  0.08342606  1
  O  O223  1  0.60475738  0.87393936  0.58766960  1
  O  O224  1  0.93409083  0.37895540  0.07806513  1
  O  O225  1  0.93155737  0.37877089  0.58186568  1
  O  O226  1  0.93373860  0.87954800  0.08009940  1
  O  O227  1  0.96121920  0.90296501  0.58383651  1
  O  O228  1  0.09531122  0.13770854  0.07197201  1
  O  O229  1  0.10251832  0.13284881  0.58452679  1
  O  O230  1  0.10782564  0.64015559  0.08441064  1
  O  O231  1  0.11960406  0.63155392  0.57585771  1
  O  O232  1  0.43693989  0.13511734  0.07405274  1
  O  O233  1  0.42678079  0.14023792  0.57483284  1
  O  O234  1  0.43978930  0.62341012  0.08945437  1
  O  O235  1  0.45742846  0.63653155  0.58194147  1
  O  O236  1  0.78111455  0.13430958  0.08234030  1
  O  O237  1  0.78201369  0.15258177  0.58644988  1
  O  O238  1  0.77128884  0.62350234  0.08461385  1
  O  O239  1  0.77316628  0.63133031  0.58815244  1
  O  O240  1  0.06209348  0.12797352  0.41552931  1
  O  O241  1  0.05860940  0.11487568  0.91147411  1
  O  O242  1  0.05414763  0.60091169  0.41195989  1
  O  O243  1  0.04296685  0.61227791  0.91341333  1
  O  O244  1  0.39710736  0.12756913  0.41327372  1
  O  O245  1  0.39611786  0.12901067  0.91329410  1
  O  O246  1  0.37913002  0.60871151  0.42329333  1
  O  O247  1  0.38701656  0.60532537  0.93588414  1
  O  O248  1  0.72925749  0.12125866  0.41273200  1
  O  O249  1  0.72831010  0.11313044  0.91139041  1
  O  O250  1  0.72861393  0.60590191  0.41915482  1
  O  O251  1  0.72636840  0.61032964  0.91646044  1
  O  O252  1  0.23014995  0.36809479  0.41150956  1
  O  O253  1  0.22847450  0.37605827  0.91186684  1
  O  O254  1  0.20813530  0.87533528  0.42531455  1
  O  O255  1  0.22171744  0.87143022  0.91418461  1
  O  O256  1  0.56257946  0.35699058  0.41373042  1
  O  O257  1  0.54939797  0.34305228  0.91345911  1
  O  O258  1  0.54871831  0.85176730  0.43083177  1
  O  O259  1  0.54702188  0.87456286  0.92405063  1
  O  O260  1  0.89751537  0.36816935  0.41397148  1
  O  O261  1  0.90405736  0.35635959  0.92459726  1
  O  O262  1  0.87832718  0.85190390  0.43033013  1
  O  O263  1  0.89593174  0.86942780  0.91268920  1
  O  O264  1  0.06507921  0.38016764  0.41366632  1
  O  O265  1  0.06658734  0.37713400  0.91796290  1
  O  O266  1  0.04928929  0.90210393  0.42397142  1
  O  O267  1  0.05827630  0.88357980  0.91261559  1
  O  O268  1  0.39853184  0.37250615  0.41652084  1
  O  O269  1  0.39368072  0.37463934  0.91988775  1
  O  O270  1  0.38594161  0.89350824  0.43583918  1
  O  O271  1  0.38083298  0.90024030  0.91241321  1
  O  O272  1  0.73009202  0.37887371  0.41596578  1
  O  O273  1  0.71333189  0.38018456  0.92478797  1
  O  O274  1  0.70879860  0.90871066  0.42493884  1
  O  O275  1  0.73659298  0.89851520  0.92401873  1
  O  O276  1  0.22850200  0.13397168  0.41324628  1
  O  O277  1  0.22734655  0.12703425  0.91214829  1
  O  O278  1  0.21681591  0.62850291  0.41496987  1
  O  O279  1  0.20418516  0.63734687  0.92587431  1
  O  O280  1  0.56014590  0.14351340  0.40963776  1
  O  O281  1  0.56193116  0.13222680  0.91188328  1
  O  O282  1  0.57202058  0.63738066  0.42678376  1
  O  O283  1  0.56940187  0.63865346  0.92704652  1
  O  O284  1  0.89168215  0.14715093  0.41057878  1
  O  O285  1  0.89264020  0.13739661  0.91188700  1
  O  O286  1  0.89536103  0.62282350  0.41859780  1
  O  O287  1  0.88373687  0.64827646  0.91283486  1
  O  O288  1  0.18136335  -0.01288145  0.06920565  1
  O  O289  1  0.17583973  0.00404657  0.58693119  1
  O  O290  1  0.16934178  0.51118824  0.07572525  1
  O  O291  1  0.16300489  0.49539895  0.58377738  1
  O  O292  1  0.51794055  -0.01477355  0.07114826  1
  O  O293  1  0.50224503  -0.01321722  0.57745562  1
  O  O294  1  0.52246419  0.50040498  0.08799017  1
  O  O295  1  0.50649133  0.49908564  0.58958203  1
  O  O296  1  0.84078790  -0.00128523  0.08244668  1
  O  O297  1  0.82319422  0.01470148  0.57777374  1
  O  O298  1  0.85516628  0.50224892  0.08625842  1
  O  O299  1  0.83558509  0.49800314  0.58473327  1
  O  O300  1  -0.01035448  0.24653604  0.08262271  1
  O  O301  1  0.00713969  0.25083302  0.58325823  1
  O  O302  1  0.00725394  0.75188714  0.08434694  1
  O  O303  1  0.00495116  0.76403180  0.57887474  1
  O  O304  1  0.35527017  0.25443674  0.08192722  1
  O  O305  1  0.33506663  0.25519544  0.58547019  1
  O  O306  1  0.35348973  0.74429165  0.08487208  1
  O  O307  1  0.32017932  0.75914361  0.58446612  1
  O  O308  1  0.69329887  0.25508180  0.08207609  1
  O  O309  1  0.67146837  0.25579777  0.58305544  1
  O  O310  1  0.69001900  0.74529853  0.08393527  1
  O  O311  1  0.66570904  0.74158358  0.58982567  1
  O  O312  1  0.15377450  0.01048010  0.41977819  1
  O  O313  1  0.15264046  0.00035391  0.91171253  1
  O  O314  1  0.16112844  0.49548865  0.41336947  1
  O  O315  1  0.14792738  0.50128927  0.91834561  1
  O  O316  1  0.49898021  0.01429308  0.42048548  1
  O  O317  1  0.48511490  0.00754512  0.91392559  1
  O  O318  1  0.50060438  0.48529392  0.42526301  1
  O  O319  1  0.50886656  0.48014647  0.92705230  1
  O  O320  1  0.84311611  0.01490273  0.41956204  1
  O  O321  1  0.84025886  0.00467985  0.91057906  1
  O  O322  1  0.82567929  0.49510605  0.41212352  1
  O  O323  1  0.84297811  0.51031063  0.92351189  1
  O  O324  1  0.31798937  0.24999666  0.41549947  1
  O  O325  1  0.30905724  0.25027062  0.91538482  1
  O  O326  1  0.31740113  0.74029609  0.42469817  1
  O  O327  1  0.33117329  0.76412470  0.92427512  1
  O  O328  1  0.66776690  0.24954983  0.41245816  1
  O  O329  1  0.66515469  0.24380470  0.91454744  1
  O  O330  1  0.68592715  0.74140249  0.42186536  1
  O  O331  1  0.67784835  0.74531504  0.92195889  1
  O  O332  1  0.99468080  0.25424356  0.41315135  1
  O  O333  1  1.00199921  0.24587757  0.91425417  1
  O  O334  1  1.00077829  0.73424245  0.42325529  1
  O  O335  1  0.99394060  0.75227706  0.91276525  1
  O  O336  1  0.21273020  0.08543025  0.19849748  1
  O  O337  1  0.20813636  0.08574897  0.69467530  1
  O  O338  1  0.21008067  0.58246630  0.19397657  1
  O  O339  1  0.20664358  0.58057492  0.69317521  1
  O  O340  1  0.54758579  0.08355320  0.19813274  1
  O  O341  1  0.54306194  0.08373012  0.69850771  1
  O  O342  1  0.54746869  0.58202439  0.19809075  1
  O  O343  1  0.54471110  0.58156466  0.69864381  1
  O  O344  1  0.87813726  0.08409952  0.19281766  1
  O  O345  1  0.87538137  0.08690761  0.69228974  1
  O  O346  1  0.88308103  0.59030383  0.19291388  1
  O  O347  1  0.87529812  0.58203306  0.69478247  1
  O  O348  1  0.03698472  0.33199432  0.18871523  1
  O  O349  1  0.02990383  0.33285184  0.69335739  1
  O  O350  1  0.03444816  0.83692037  0.19294878  1
  O  O351  1  0.04618792  0.83739866  0.69286391  1
  O  O352  1  0.37988085  0.33555167  0.19169880  1
  O  O353  1  0.37409646  0.33457007  0.69589777  1
  O  O354  1  0.37824541  0.82955494  0.19284838  1
  O  O355  1  0.37511597  0.83475436  0.69878253  1
  O  O356  1  0.71314405  0.33451360  0.19318706  1
  O  O357  1  0.70135700  0.33410629  0.69482092  1
  O  O358  1  0.71209197  0.82659570  0.19424284  1
  O  O359  1  0.71004169  0.83049244  0.69481899  1
  O  O360  1  0.21355548  0.41681360  0.19808317  1
  O  O361  1  0.21114865  0.42054349  0.69530968  1
  O  O362  1  0.21693564  0.91982495  0.18876915  1
  O  O363  1  0.21204748  0.92128092  0.69705776  1
  O  O364  1  0.54656667  0.41576591  0.19629301  1
  O  O365  1  0.54077412  0.41467355  0.69800839  1
  O  O366  1  0.53879252  0.91419189  0.18918584  1
  O  O367  1  0.54131199  0.91659461  0.69467680  1
  O  O368  1  0.88235553  0.41026688  0.19175733  1
  O  O369  1  0.87725707  0.41884567  0.69441625  1
  O  O370  1  0.87496804  0.91790338  0.19193850  1
  O  O371  1  0.87575141  0.91819131  0.69915832  1
  O  O372  1  0.04116267  0.16531496  0.18961666  1
  O  O373  1  0.04132006  0.16774285  0.69324932  1
  O  O374  1  0.04492680  0.66307762  0.19373190  1
  O  O375  1  0.04531893  0.66699241  0.70125980  1
  O  O376  1  0.37796038  0.16765574  0.18894228  1
  O  O377  1  0.37396675  0.16763675  0.69198005  1
  O  O378  1  0.37874784  0.66447603  0.19760668  1
  O  O379  1  0.37946137  0.66749687  0.70410725  1
  O  O380  1  0.71341534  0.17017429  0.19000997  1
  O  O381  1  0.70716046  0.16901978  0.69173512  1
  O  O382  1  0.71164282  0.66380156  0.19619762  1
  O  O383  1  0.71054596  0.66423684  0.69958532  1
  O  O384  1  0.11948326  0.09177019  0.30506686  1
  O  O385  1  0.12254871  0.08343795  0.80257696  1
  O  O386  1  0.12470101  0.57784761  0.30259722  1
  O  O387  1  0.12031244  0.58352497  0.80831481  1
  O  O388  1  0.45687289  0.08812187  0.30338897  1
  O  O389  1  0.45378045  0.08731211  0.80366955  1
  O  O390  1  0.45725370  0.58072904  0.30147506  1
  O  O391  1  0.45565326  0.57968607  0.80520675  1
  O  O392  1  0.79196463  0.08815608  0.30353550  1
  O  O393  1  0.79079476  0.08492532  0.80140517  1
  O  O394  1  0.78798615  0.58742500  0.30716174  1
  O  O395  1  0.79210400  0.58369667  0.80702917  1
  O  O396  1  0.29933029  0.33056235  0.30389013  1
  O  O397  1  0.29791407  0.33121816  0.80711364  1
  O  O398  1  0.30121996  0.83444810  0.30391800  1
  O  O399  1  0.28822197  0.83692763  0.80682987  1
  O  O400  1  0.62672128  0.33258471  0.30354105  1
  O  O401  1  0.62304487  0.33054061  0.80757651  1
  O  O402  1  0.61968690  0.82943017  0.30132145  1
  O  O403  1  0.62232161  0.83545368  0.80055091  1
  O  O404  1  0.95913075  0.33421657  0.30318210  1
  O  O405  1  0.96208204  0.33289567  0.80865368  1
  O  O406  1  0.95227915  0.83602869  0.30173170  1
  O  O407  1  0.95798454  0.83377382  0.80274511  1
  O  O408  1  0.12343560  0.41510965  0.30232770  1
  O  O409  1  0.11683186  0.42411643  0.80675898  1
  O  O410  1  0.11456377  0.92816699  0.31137083  1
  O  O411  1  0.12089097  0.91877924  0.80275926  1
  O  O412  1  0.46026691  0.41282772  0.30710513  1
  O  O413  1  0.45633987  0.41200689  0.80967909  1
  O  O414  1  0.45747212  0.91830112  0.29831951  1
  O  O415  1  0.45622148  0.92085190  0.80658751  1
  O  O416  1  0.78828052  0.40700782  0.30534620  1
  O  O417  1  0.78755093  0.41788620  0.80188201  1
  O  O418  1  0.78981643  0.91804421  0.29834494  1
  O  O419  1  0.79012800  0.91820985  0.80560833  1
  O  O420  1  0.29218194  0.16944917  0.30307693  1
  O  O421  1  0.28855096  0.16729919  0.80440693  1
  O  O422  1  0.29011035  0.66275382  0.30906151  1
  O  O423  1  0.28434616  0.66636332  0.80269440  1
  O  O424  1  0.62802248  0.16937108  0.30154154  1
  O  O425  1  0.62468884  0.16586961  0.80329515  1
  O  O426  1  0.62713047  0.66291261  0.31062857  1
  O  O427  1  0.62522841  0.66579808  0.81048302  1
  O  O428  1  0.95900467  0.16985447  0.30209259  1
  O  O429  1  0.95549725  0.16534576  0.80322615  1
  O  O430  1  0.95384609  0.65867863  0.30765018  1
  O  O431  1  0.95365184  0.66935177  0.80391875  1
  F  F432  1  0.03759586  -0.00076541  0.19682907  1
  F  F433  1  0.04585110  0.00367284  0.70029320  1
  F  F434  1  0.04623376  0.49918396  0.19651963  1
  F  F435  1  0.04263019  0.49980542  0.70182009  1
  F  F436  1  0.38143814  0.00266232  0.19770341  1
  F  F437  1  0.37713929  0.00189198  0.70324415  1
  F  F438  1  0.38120922  0.49706322  0.20238640  1
  F  F439  1  0.37866438  0.49550975  0.70543901  1
  F  F440  1  0.71753103  0.01164655  0.19217503  1
  F  F441  1  0.71058138  -0.00017233  0.70131883  1
  F  F442  1  0.70121336  0.49948432  0.19909040  1
  F  F443  1  0.70891630  0.50132576  0.70333908  1
  F  F444  1  0.21382986  0.24702193  0.19629069  1
  F  F445  1  0.21403631  0.24157078  0.69752605  1
  F  F446  1  0.21813610  0.73878064  0.19966917  1
  F  F447  1  0.21090426  0.75291777  0.70350104  1
  F  F448  1  0.54838782  0.25230184  0.19889940  1
  F  F449  1  0.54399895  0.25161404  0.70233348  1
  F  F450  1  0.54632971  0.74311519  0.20252308  1
  F  F451  1  0.54436261  0.74656011  0.70678123  1
  F  F452  1  0.87982113  0.24985421  0.20019197  1
  F  F453  1  0.87894048  0.24812333  0.70094468  1
  F  F454  1  0.86952069  0.74910549  0.19860525  1
  F  F455  1  0.87753810  0.74965060  0.70100996  1
  F  F456  1  0.29832605  0.00135741  0.30018933  1
  F  F457  1  0.28699848  0.00433852  0.79829759  1
  F  F458  1  0.29032297  0.49849052  0.29879911  1
  F  F459  1  0.28531024  0.49917812  0.79992016  1
  F  F460  1  0.62415966  0.00283039  0.29659334  1
  F  F461  1  0.62277399  0.00056961  0.79773531  1
  F  F462  1  0.62376924  0.49633345  0.30113288  1
  F  F463  1  0.62118631  0.49763774  0.80036978  1
  F  F464  1  0.95135527  0.00491709  0.29551384  1
  F  F465  1  0.95625652  0.00318932  0.79640712  1
  F  F466  1  0.96986494  0.49630007  0.29859882  1
  F  F467  1  0.95359581  0.50178134  0.79769015  1
  F  F468  1  0.12104816  0.24806897  0.29448673  1
  F  F469  1  0.11464835  0.23888555  0.80141380  1
  F  F470  1  0.12014724  0.73753662  0.30517813  1
  F  F471  1  0.12012254  0.75515860  0.79881797  1
  F  F472  1  0.45594362  0.24925607  0.29255676  1
  F  F473  1  0.45282202  0.24694898  0.79566024  1
  F  F474  1  0.45590861  0.74814080  0.29833819  1
  F  F475  1  0.45546341  0.75384014  0.80344472  1
  F  F476  1  0.79053849  0.25012526  0.29500626  1
  F  F477  1  0.78507723  0.24454728  0.79943410  1
  F  F478  1  0.78894332  0.74785013  0.29936591  1
  F  F479  1  0.79050731  0.75120857  0.79770651  1
