# generated using pymatgen
data_K24Na3Li5Mg64Fe17Si79(O5F)48
_symmetry_space_group_name_H-M   'P 1'
_cell_length_a   16.08806492
_cell_length_b   18.58135050
_cell_length_c   20.55043841
_cell_angle_alpha   90.00635953
_cell_angle_beta   100.00613500
_cell_angle_gamma   89.99294542
_symmetry_Int_Tables_number   1
_chemical_formula_structural   K24Na3Li5Mg64Fe17Si79(O5F)48
_chemical_formula_sum   'K24 Na3 Li5 Mg64 Fe17 Si79 O240 F48'
_cell_volume   6049.86144452
_cell_formula_units_Z   1
loop_
 _symmetry_equiv_pos_site_id
 _symmetry_equiv_pos_as_xyz
  1  'x, y, z'
loop_
 _atom_site_type_symbol
 _atom_site_label
 _atom_site_symmetry_multiplicity
 _atom_site_fract_x
 _atom_site_fract_y
 _atom_site_fract_z
 _atom_site_occupancy
  K  K0  1  -0.00822795  0.00165687  -0.00107249  1
  K  K1  1  -0.01371831  0.00451669  0.49867331  1
  K  K2  1  -0.00113510  0.50469927  0.00386454  1
  K  K3  1  -0.00635548  0.50384193  0.49748798  1
  K  K4  1  0.34070549  0.00349499  0.00082958  1
  K  K5  1  0.33644980  0.00106048  0.49939851  1
  K  K6  1  0.33112547  0.50452641  0.00357863  1
  K  K7  1  0.32994109  0.50538414  0.49528287  1
  K  K8  1  0.66023553  0.00718626  0.00028385  1
  K  K9  1  0.66867435  -0.00909048  0.50353003  1
  K  K10  1  0.67478816  0.50252856  0.00795389  1
  K  K11  1  0.67064672  0.50054756  0.49916666  1
  K  K12  1  0.16921652  0.23811726  0.00573346  1
  K  K13  1  0.16786436  0.24224240  0.49790740  1
  K  K14  1  0.15881556  0.75681241  0.00387218  1
  K  K15  1  0.15692616  0.74974494  0.49518813  1
  K  K16  1  0.51089886  0.23579567  0.00275789  1
  K  K17  1  0.49861738  0.25192504  0.49620893  1
  K  K18  1  0.50934587  0.75492936  0.00077570  1
  K  K19  1  0.50516771  0.76126266  0.50297426  1
  K  K20  1  0.83038891  0.24222539  -0.00368655  1
  K  K21  1  0.83819324  0.24594194  0.49601733  1
  K  K22  1  0.82249076  0.75095089  0.00011637  1
  K  K23  1  0.83342718  0.74858708  0.50171981  1
  Na  Na24  1  0.67010025  0.75165002  0.74755552  1
  Na  Na25  1  0.66654598  0.91568526  0.74359009  1
  Na  Na26  1  0.16724333  0.82993413  0.24627160  1
  Li  Li27  1  0.66710112  0.24624013  0.24814848  1
  Li  Li28  1  0.33482323  0.75072868  0.75062357  1
  Li  Li29  1  0.66723850  0.58434532  0.24451024  1
  Li  Li30  1  0.66593282  0.09115428  0.24546144  1
  Li  Li31  1  0.83279690  0.83211618  0.75124694  1
  Mg  Mg32  1  0.16842114  -0.00385922  0.24816638  1
  Mg  Mg33  1  0.50064393  0.50250118  0.75304301  1
  Mg  Mg34  1  0.66851443  0.74787245  0.24608278  1
  Mg  Mg35  1  0.83181004  -0.00300976  0.74517163  1
  Mg  Mg36  1  0.82883796  0.49903857  0.24790639  1
  Mg  Mg37  1  0.50107035  0.50124012  0.25133754  1
  Mg  Mg38  1  0.00048252  0.24875247  0.74640945  1
  Mg  Mg39  1  -0.00111390  0.75019819  0.74583926  1
  Mg  Mg40  1  0.82893694  0.00312670  0.24402539  1
  Mg  Mg41  1  0.50687036  0.00065588  0.25191016  1
  Mg  Mg42  1  0.33319108  0.25054672  0.25516385  1
  Mg  Mg43  1  -0.00173414  0.24812926  0.25254760  1
  Mg  Mg44  1  0.66508516  0.24828922  0.75026950  1
  Mg  Mg45  1  0.83373040  0.49973916  0.74439509  1
  Mg  Mg46  1  0.33621203  0.24918934  0.75276968  1
  Mg  Mg47  1  -0.00153411  0.75005674  0.24831100  1
  Mg  Mg48  1  0.33455317  0.75051922  0.25181366  1
  Mg  Mg49  1  0.16441140  0.49959533  0.25651112  1
  Mg  Mg50  1  0.16883821  -0.00157356  0.74950611  1
  Mg  Mg51  1  0.50165776  -0.00062073  0.75125660  1
  Mg  Mg52  1  0.16647424  0.50269591  0.74987380  1
  Mg  Mg53  1  0.66662872  0.41580242  0.75102855  1
  Mg  Mg54  1  -0.00105188  0.58363836  0.24975257  1
  Mg  Mg55  1  0.16653152  0.66839571  0.74839023  1
  Mg  Mg56  1  0.33278039  0.58723193  0.75171781  1
  Mg  Mg57  1  -0.00096512  0.41387235  0.25522208  1
  Mg  Mg58  1  0.66360429  0.08364689  0.75065835  1
  Mg  Mg59  1  0.16830370  0.16350642  0.25235741  1
  Mg  Mg60  1  0.50713780  0.16807047  0.25158782  1
  Mg  Mg61  1  0.50009330  0.33470598  0.75481759  1
  Mg  Mg62  1  0.83142456  0.66963290  0.74345858  1
  Mg  Mg63  1  0.83183779  0.33365717  0.74733553  1
  Mg  Mg64  1  0.33543649  0.91205670  0.75344225  1
  Mg  Mg65  1  0.66702383  0.58505444  0.74848499  1
  Mg  Mg66  1  0.33354588  0.41791567  0.75247668  1
  Mg  Mg67  1  0.49826499  0.83129450  0.74955607  1
  Mg  Mg68  1  0.33264390  0.41602196  0.25636810  1
  Mg  Mg69  1  0.50316757  0.83476424  0.24946118  1
  Mg  Mg70  1  -0.00244181  0.41568146  0.74667859  1
  Mg  Mg71  1  0.49899032  0.66965996  0.75119968  1
  Mg  Mg72  1  0.16737001  0.33308440  0.25735891  1
  Mg  Mg73  1  -0.00197035  0.08256995  0.24901236  1
  Mg  Mg74  1  0.82752462  0.16615720  0.24851532  1
  Mg  Mg75  1  0.66518417  0.41743395  0.25134653  1
  Mg  Mg76  1  0.16711332  0.33476032  0.75029449  1
  Mg  Mg77  1  0.16480578  0.66557991  0.25174899  1
  Mg  Mg78  1  -0.00250486  0.91544409  0.24367119  1
  Mg  Mg79  1  0.50059754  0.33356355  0.25340862  1
  Mg  Mg80  1  0.16764693  0.83169440  0.74864994  1
  Mg  Mg81  1  -0.00227151  0.58551137  0.74443991  1
  Mg  Mg82  1  0.82806112  0.66425504  0.24613780  1
  Mg  Mg83  1  0.33791714  0.91632104  0.25061833  1
  Mg  Mg84  1  -0.00424466  0.91514041  0.74514246  1
  Mg  Mg85  1  0.66659644  0.91706962  0.24629989  1
  Mg  Mg86  1  0.83105957  0.33111399  0.25270557  1
  Mg  Mg87  1  0.50365732  0.66497400  0.24704558  1
  Mg  Mg88  1  -0.00141002  0.08270593  0.74728214  1
  Mg  Mg89  1  0.83031625  0.16309282  0.74863888  1
  Mg  Mg90  1  0.83033555  0.83464836  0.24285163  1
  Mg  Mg91  1  0.33961928  0.08396197  0.25385258  1
  Mg  Mg92  1  0.33342087  0.58524031  0.25339483  1
  Mg  Mg93  1  0.33744718  0.08378136  0.75102808  1
  Mg  Mg94  1  0.50111825  0.16194558  0.75234509  1
  Mg  Mg95  1  0.16887270  0.16492478  0.74910542  1
  Fe  Fe96  1  0.52603844  0.08236256  0.60714091  1
  Fe  Fe97  1  0.30698460  0.33177913  0.39513097  1
  Fe  Fe98  1  0.85708980  0.09001990  0.60914421  1
  Fe  Fe99  1  0.52564962  0.08532080  0.11341336  1
  Fe  Fe100  1  0.02491674  0.83564652  0.10609374  1
  Fe  Fe101  1  0.48202225  0.91825103  0.39028655  1
  Fe  Fe102  1  0.14197821  0.58811552  0.39124984  1
  Fe  Fe103  1  0.97044343  0.33074423  0.39229040  1
  Fe  Fe104  1  0.68703617  0.65863373  0.10541375  1
  Fe  Fe105  1  0.36057024  0.17194725  0.61074554  1
  Fe  Fe106  1  0.47151993  0.07817308  0.89443046  1
  Fe  Fe107  1  0.69541512  0.83162333  0.60534473  1
  Fe  Fe108  1  0.85646224  0.40856641  0.60730337  1
  Fe  Fe109  1  0.85623673  0.08952214  0.10846274  1
  Fe  Fe110  1  0.69006146  0.83290972  0.10569625  1
  Fe  Fe111  1  0.64587894  0.16991899  0.89344842  1
  Fe  Fe112  1  0.02350674  0.66932475  0.60806945  1
  Si  Si113  1  0.02868843  0.33176511  0.11718032  1
  Si  Si114  1  0.80648199  0.91994326  0.38185477  1
  Si  Si115  1  0.47489496  0.90637910  0.89067256  1
  Si  Si116  1  0.31407549  0.67126233  0.38986019  1
  Si  Si117  1  0.81119077  0.91287229  0.88217164  1
  Si  Si118  1  0.35920112  0.17243578  0.11728345  1
  Si  Si119  1  0.02374500  0.66406664  0.11058901  1
  Si  Si120  1  0.64132502  0.66340684  0.88477215  1
  Si  Si121  1  0.47337032  0.42069169  0.88936370  1
  Si  Si122  1  0.35598679  0.66623399  0.11472265  1
  Si  Si123  1  0.63754145  0.33932223  0.38625754  1
  Si  Si124  1  0.35618695  0.33943216  0.61738991  1
  Si  Si125  1  0.36318490  0.83069048  0.11403365  1
  Si  Si126  1  0.19232839  0.58352002  0.11687697  1
  Si  Si127  1  0.80559115  0.58202469  0.38179300  1
  Si  Si128  1  0.35433832  0.33469260  0.11831425  1
  Si  Si129  1  0.80256341  0.41798537  0.38766428  1
  Si  Si130  1  0.30280792  0.66461661  0.88679655  1
  Si  Si131  1  0.13930393  0.91240422  0.38232400  1
  Si  Si132  1  0.97758698  0.15983585  0.38843081  1
  Si  Si133  1  0.47312327  0.58669928  0.88865230  1
  Si  Si134  1  0.97420927  0.33136432  0.88551449  1
  Si  Si135  1  0.48379503  0.08726841  0.38911948  1
  Si  Si136  1  0.51788141  0.41470980  0.11584218  1
  Si  Si137  1  0.64434875  0.34259281  0.89079944  1
  Si  Si138  1  0.19806566  0.07818750  0.61460783  1
  Si  Si139  1  0.31168592  0.83634248  0.38675302  1
  Si  Si140  1  0.47889831  0.58746793  0.38601795  1
  Si  Si141  1  0.96973872  0.83684489  0.38221737  1
  Si  Si142  1  0.31107251  0.15961554  0.38970760  1
  Si  Si143  1  0.64345366  0.66540540  0.38147478  1
  Si  Si144  1  0.19593219  0.58575525  0.61401889  1
  Si  Si145  1  0.30397258  0.82974333  0.88663117  1
  Si  Si146  1  0.30668500  0.33636824  0.88806218  1
  Si  Si147  1  0.64129244  0.83025101  0.88355206  1
  Si  Si148  1  0.69323826  0.17545338  0.11248279  1
  Si  Si149  1  0.86279278  0.57564007  0.11023934  1
  Si  Si150  1  0.80364183  0.08504212  0.38303758  1
  Si  Si151  1  0.19471617  0.91323194  0.61567346  1
  Si  Si152  1  0.19061253  0.41962179  0.11804368  1
  Si  Si153  1  0.85719257  0.92039232  0.10659205  1
  Si  Si154  1  0.68837420  0.66073925  0.60990542  1
  Si  Si155  1  0.51436308  0.91471844  0.61190151  1
  Si  Si156  1  0.03653254  0.33349442  0.61273019  1
  Si  Si157  1  0.85298058  0.58012222  0.60743639  1
  Si  Si158  1  0.13841524  0.08370421  0.88461211  1
  Si  Si159  1  0.14273731  0.07577120  0.38548478  1
  Si  Si160  1  0.47477183  0.42194515  0.39027161  1
  Si  Si161  1  0.97396019  0.16558446  0.88477515  1
  Si  Si162  1  0.97463209  0.66813682  0.88287490  1
  Si  Si163  1  0.68707065  0.33861064  0.11679613  1
  Si  Si164  1  0.20287978  0.91883715  0.11125654  1
  Si  Si165  1  0.19691677  0.42253519  0.61789737  1
  Si  Si166  1  0.69127040  0.16939366  0.61272166  1
  Si  Si167  1  0.86200595  0.92022553  0.60682347  1
  Si  Si168  1  0.03477670  0.16615529  0.61244316  1
  Si  Si169  1  0.64754840  0.82787016  0.38501051  1
  Si  Si170  1  0.35730617  0.82800587  0.61708939  1
  Si  Si171  1  0.81060027  0.58551781  0.88270380  1
  Si  Si172  1  0.64333409  0.17561843  0.38496524  1
  Si  Si173  1  0.03354962  0.16595726  0.11338535  1
  Si  Si174  1  0.52283320  0.41712317  0.61797007  1
  Si  Si175  1  0.52429182  0.58108824  0.61551102  1
  Si  Si176  1  0.19986711  0.08289232  0.11613607  1
  Si  Si177  1  0.14159951  0.91702130  0.88475191  1
  Si  Si178  1  0.81093631  0.07809746  0.88787705  1
  Si  Si179  1  0.30207545  0.16971848  0.88997739  1
  Si  Si180  1  0.13854378  0.41677148  0.88640176  1
  Si  Si181  1  0.02568064  0.83846791  0.61080177  1
  Si  Si182  1  0.96572406  0.66990627  0.38489703  1
  Si  Si183  1  0.81124306  0.42100732  0.88508794  1
  Si  Si184  1  0.13821505  0.41726716  0.39357003  1
  Si  Si185  1  0.85863934  0.40990400  0.11528533  1
  Si  Si186  1  0.52203532  0.91723540  0.11039137  1
  Si  Si187  1  0.68320394  0.32972039  0.61432831  1
  Si  Si188  1  0.13847607  0.58189877  0.88633629  1
  Si  Si189  1  0.36190141  0.66357032  0.61724263  1
  Si  Si190  1  0.51495984  0.57741288  0.11078757  1
  Si  Si191  1  0.97629024  0.83311364  0.88212051  1
  O  O192  1  0.27746302  0.12094354  0.08671923  1
  O  O193  1  0.27571375  0.10249958  0.58022481  1
  O  O194  1  0.27021241  0.61922633  0.08548658  1
  O  O195  1  0.28504339  0.60705352  0.58858405  1
  O  O196  1  0.61835285  0.12112827  0.07935037  1
  O  O197  1  0.62880087  0.10637456  0.57954436  1
  O  O198  1  0.59134945  0.59866017  0.07377493  1
  O  O199  1  0.60783773  0.60359602  0.58499930  1
  O  O200  1  0.95319222  0.12322670  0.07488455  1
  O  O201  1  0.95388806  0.12243033  0.57626608  1
  O  O202  1  0.94714524  0.60652808  0.08321268  1
  O  O203  1  0.93308567  0.60793886  0.57572329  1
  O  O204  1  0.10213106  0.37748351  0.08662603  1
  O  O205  1  0.12328080  0.36470698  0.58926708  1
  O  O206  1  0.12469365  0.86959122  0.07726892  1
  O  O207  1  0.11342062  0.86359150  0.58488942  1
  O  O208  1  0.43630978  0.36224185  0.08665882  1
  O  O209  1  0.44215969  0.36558359  0.58990918  1
  O  O210  1  0.44713286  0.85470736  0.08530257  1
  O  O211  1  0.43673759  0.85539802  0.58402027  1
  O  O212  1  0.76759859  0.37186479  0.08426946  1
  O  O213  1  0.76198843  0.34919359  0.57847286  1
  O  O214  1  0.79100334  0.85714945  0.07734125  1
  O  O215  1  0.79260151  0.86211297  0.57167568  1
  O  O216  1  0.27117500  0.38534432  0.08833642  1
  O  O217  1  0.28584222  0.40373118  0.59343321  1
  O  O218  1  0.28655450  0.88599774  0.08324279  1
  O  O219  1  0.27462779  0.87884387  0.58604767  1
  O  O220  1  0.60275101  0.38922590  0.08716210  1
  O  O221  1  0.60504435  0.38772509  0.58897497  1
  O  O222  1  0.60101803  0.89714812  0.07470012  1
  O  O223  1  0.59696646  0.88920589  0.58208253  1
  O  O224  1  0.93546386  0.36653635  0.08693016  1
  O  O225  1  0.95706138  0.38030052  0.57797407  1
  O  O226  1  0.94402902  0.90582361  0.07670859  1
  O  O227  1  0.95488765  0.89984134  0.58398415  1
  O  O228  1  0.11687511  0.13195863  0.08654062  1
  O  O229  1  0.11764734  0.13132908  0.58697738  1
  O  O230  1  0.10715453  0.62724651  0.08464522  1
  O  O231  1  0.12382525  0.63963483  0.57903711  1
  O  O232  1  0.43705536  0.15178248  0.08231260  1
  O  O233  1  0.45178350  0.15473749  0.57133537  1
  O  O234  1  0.43038794  0.62783767  0.08129920  1
  O  O235  1  0.44427046  0.63394412  0.58616083  1
  O  O236  1  0.77642274  0.16044239  0.07900250  1
  O  O237  1  0.77876962  0.16407136  0.58317963  1
  O  O238  1  0.77991015  0.61528666  0.07170479  1
  O  O239  1  0.77048350  0.63170552  0.57921077  1
  O  O240  1  0.06165753  0.10797247  0.41507045  1
  O  O241  1  0.06112362  0.12178242  0.91510727  1
  O  O242  1  0.04786195  0.62721149  0.42251593  1
  O  O243  1  0.06167943  0.62265346  0.91531186  1
  O  O244  1  0.39546017  0.11046386  0.41541505  1
  O  O245  1  0.38193948  0.12661485  0.92705682  1
  O  O246  1  0.39981108  0.62185467  0.41649271  1
  O  O247  1  0.39578623  0.62824218  0.91725114  1
  O  O248  1  0.73004378  0.12880302  0.41437864  1
  O  O249  1  0.74361232  0.11569589  0.92617359  1
  O  O250  1  0.72129811  0.61016809  0.40988047  1
  O  O251  1  0.72951076  0.61769891  0.91279163  1
  O  O252  1  0.20703082  0.35597489  0.42407151  1
  O  O253  1  0.23079862  0.38051530  0.91679477  1
  O  O254  1  0.22078265  0.86042592  0.40934156  1
  O  O255  1  0.23040135  0.87571096  0.91712251  1
  O  O256  1  0.55738010  0.37093339  0.41858806  1
  O  O257  1  0.56521669  0.38487312  0.91843418  1
  O  O258  1  0.57256172  0.85529700  0.42199455  1
  O  O259  1  0.56446234  0.86325817  0.91901760  1
  O  O260  1  0.87397508  0.36375384  0.42385153  1
  O  O261  1  0.89669977  0.37246333  0.91433149  1
  O  O262  1  0.89816069  0.88248174  0.41330251  1
  O  O263  1  0.89844526  0.86733327  0.91408376  1
  O  O264  1  0.05079785  0.40180102  0.42113033  1
  O  O265  1  0.06365997  0.37338283  0.91621780  1
  O  O266  1  0.06054276  0.87576347  0.41260303  1
  O  O267  1  0.06406353  0.87781859  0.91422873  1
  O  O268  1  0.39751170  0.39622197  0.42553547  1
  O  O269  1  0.39638773  0.37779451  0.91762139  1
  O  O270  1  0.38387961  0.88991135  0.42370374  1
  O  O271  1  0.39854504  0.85884406  0.91762636  1
  O  O272  1  0.71466947  0.39537687  0.41428546  1
  O  O273  1  0.72965599  0.39355051  0.91618234  1
  O  O274  1  0.73403292  0.87507515  0.41169042  1
  O  O275  1  0.73154984  0.87319412  0.91004292  1
  O  O276  1  0.22929654  0.12044469  0.41542750  1
  O  O277  1  0.21888208  0.13403947  0.91619997  1
  O  O278  1  0.23895846  0.64296088  0.42589386  1
  O  O279  1  0.23035824  0.61820324  0.91846301  1
  O  O280  1  0.56084146  0.14545570  0.41547397  1
  O  O281  1  0.56264973  0.13152186  0.93310460  1
  O  O282  1  0.56215410  0.63659698  0.41400673  1
  O  O283  1  0.56381489  0.62570041  0.91792600  1
  O  O284  1  0.89637157  0.12117342  0.41466329  1
  O  O285  1  0.90107808  0.12297586  0.91461333  1
  O  O286  1  0.88312488  0.63630961  0.41284068  1
  O  O287  1  0.89625904  0.63144530  0.91368995  1
  O  O288  1  0.18908171  0.00272930  0.08225417  1
  O  O289  1  0.17299362  -0.00471477  0.58827232  1
  O  O290  1  0.17998135  0.50109936  0.08598383  1
  O  O291  1  0.17020511  0.50265853  0.58875808  1
  O  O292  1  0.48299612  -0.00571704  0.08328720  1
  O  O293  1  0.48210910  -0.00850014  0.57846938  1
  O  O294  1  0.48652033  0.49393763  0.08536068  1
  O  O295  1  0.49941997  0.49859786  0.58858384  1
  O  O296  1  0.81996759  -0.00173389  0.07761370  1
  O  O297  1  0.83490110  -0.00167855  0.57243356  1
  O  O298  1  0.85781708  0.49063345  0.08293683  1
  O  O299  1  0.82495471  0.50090785  0.57752349  1
  O  O300  1  0.03099891  0.25082284  0.08608466  1
  O  O301  1  0.02944935  0.25015041  0.58641817  1
  O  O302  1  0.00496525  0.73945980  0.07210069  1
  O  O303  1  -0.00225143  0.76266977  0.57492455  1
  O  O304  1  0.32682087  0.25441776  0.09030497  1
  O  O305  1  0.31928357  0.26591632  0.58366584  1
  O  O306  1  0.33890114  0.74824688  0.08500652  1
  O  O307  1  0.33674338  0.74474248  0.58857302  1
  O  O308  1  0.66322822  0.25924390  0.08610956  1
  O  O309  1  0.64686863  0.24968571  0.59111221  1
  O  O310  1  0.66271564  0.74535383  0.06340755  1
  O  O311  1  0.66015912  0.73668596  0.57575994  1
  O  O312  1  0.15741746  -0.00655447  0.41550811  1
  O  O313  1  0.15030434  0.00083951  0.91338118  1
  O  O314  1  0.17427005  0.49565637  0.42151139  1
  O  O315  1  0.14120501  0.49897561  0.91682237  1
  O  O316  1  0.51354888  0.01088688  0.42240600  1
  O  O317  1  0.47725908  -0.01705825  0.92757816  1
  O  O318  1  0.49883961  0.50580376  0.41568263  1
  O  O319  1  0.47407240  0.50364814  0.91855635  1
  O  O320  1  0.80797413  0.00193253  0.41261101  1
  O  O321  1  0.82631656  -0.00559889  0.91518174  1
  O  O322  1  0.82490632  0.50132119  0.41424576  1
  O  O323  1  0.83101843  0.50335869  0.91350726  1
  O  O324  1  0.32776529  0.23679069  0.42534392  1
  O  O325  1  0.30610279  0.25486441  0.91769240  1
  O  O326  1  0.33581885  0.75414782  0.41577645  1
  O  O327  1  0.29923305  0.74663775  0.91581160  1
  O  O328  1  0.65990700  0.25812595  0.41678923  1
  O  O329  1  0.66192419  0.26681978  0.92715023  1
  O  O330  1  0.67143564  0.74482633  0.41229303  1
  O  O331  1  0.65615898  0.74587089  0.91241525  1
  O  O332  1  0.99634572  0.23634743  0.42560863  1
  O  O333  1  0.98233507  0.24886869  0.91578827  1
  O  O334  1  0.97256909  0.75454559  0.41156201  1
  O  O335  1  0.99090695  0.75002857  0.91190126  1
  O  O336  1  0.21399860  0.08307272  0.19650800  1
  O  O337  1  0.21285448  0.08172972  0.69614714  1
  O  O338  1  0.21160628  0.58131477  0.19675978  1
  O  O339  1  0.21133181  0.58390392  0.69546597  1
  O  O340  1  0.54347270  0.08455382  0.20349065  1
  O  O341  1  0.54291689  0.08306350  0.69912559  1
  O  O342  1  0.53216086  0.58086299  0.19068833  1
  O  O343  1  0.54165840  0.58178711  0.69610661  1
  O  O344  1  0.87981774  0.08652378  0.20014641  1
  O  O345  1  0.88044729  0.08525230  0.70108673  1
  O  O346  1  0.87710860  0.57931633  0.19094163  1
  O  O347  1  0.87498879  0.58116983  0.68961339  1
  O  O348  1  0.04710646  0.33274361  0.19714728  1
  O  O349  1  0.04737630  0.33398944  0.69444131  1
  O  O350  1  0.03374679  0.83090553  0.19576449  1
  O  O351  1  0.04501577  0.83446379  0.69212791  1
  O  O352  1  0.37475097  0.33690479  0.19825721  1
  O  O353  1  0.37643234  0.33750177  0.69897103  1
  O  O354  1  0.37702232  0.83007626  0.19411942  1
  O  O355  1  0.37336368  0.83196661  0.69668773  1
  O  O356  1  0.71035694  0.34003669  0.19614990  1
  O  O357  1  0.70654951  0.33436084  0.69595755  1
  O  O358  1  0.70971668  0.83244517  0.19820229  1
  O  O359  1  0.72630745  0.83075509  0.68987115  1
  O  O360  1  0.20752445  0.41855866  0.19795631  1
  O  O361  1  0.21113458  0.41978539  0.69905950  1
  O  O362  1  0.21978399  0.92311802  0.19112662  1
  O  O363  1  0.21146389  0.91449216  0.69631731  1
  O  O364  1  0.53706893  0.41629614  0.19585828  1
  O  O365  1  0.54150221  0.41823023  0.69889844  1
  O  O366  1  0.54342970  0.91428331  0.19161986  1
  O  O367  1  0.52662890  0.91553747  0.69224595  1
  O  O368  1  0.87585948  0.41359175  0.19514917  1
  O  O369  1  0.87827628  0.41405905  0.69987948  1
  O  O370  1  0.87479182  0.91909993  0.18902805  1
  O  O371  1  0.88138067  0.92323439  0.68745648  1
  O  O372  1  0.04680290  0.16596025  0.19429889  1
  O  O373  1  0.04755720  0.16638793  0.69407519  1
  O  O374  1  0.04092342  0.66552621  0.19125525  1
  O  O375  1  0.04710912  0.66580979  0.69999409  1
  O  O376  1  0.37493119  0.16990437  0.19802460  1
  O  O377  1  0.37751781  0.16995771  0.70360436  1
  O  O378  1  0.37622818  0.66465699  0.19494020  1
  O  O379  1  0.37946293  0.66093256  0.69689143  1
  O  O380  1  0.71272227  0.17267236  0.19206377  1
  O  O381  1  0.71054364  0.16967483  0.69462442  1
  O  O382  1  0.71063145  0.66604537  0.19599391  1
  O  O383  1  0.71157111  0.65609523  0.68990269  1
  O  O384  1  0.12498116  0.08019930  0.30492575  1
  O  O385  1  0.12299327  0.08400431  0.80432506  1
  O  O386  1  0.11949964  0.58343119  0.29912559  1
  O  O387  1  0.12370190  0.58108402  0.80649999  1
  O  O388  1  0.46016986  0.08651812  0.30839331  1
  O  O389  1  0.45329110  0.08112665  0.80308230  1
  O  O390  1  0.45723468  0.58521450  0.30548718  1
  O  O391  1  0.45526485  0.58354033  0.80852496  1
  O  O392  1  0.78992939  0.08445107  0.30386886  1
  O  O393  1  0.79112842  0.08364630  0.80758373  1
  O  O394  1  0.79373405  0.58075512  0.30242919  1
  O  O395  1  0.79210149  0.58185420  0.80267259  1
  O  O396  1  0.28815588  0.33351222  0.30277726  1
  O  O397  1  0.28906087  0.33695685  0.80771755  1
  O  O398  1  0.30148358  0.83391118  0.30683291  1
  O  O399  1  0.28484083  0.83397974  0.80731168  1
  O  O400  1  0.61787029  0.34049025  0.30678533  1
  O  O401  1  0.62398081  0.33939229  0.80984384  1
  O  O402  1  0.62452604  0.82936109  0.30452246  1
  O  O403  1  0.61285780  0.83169038  0.80586838  1
  O  O404  1  0.95476194  0.33113825  0.30048624  1
  O  O405  1  0.95948038  0.33221573  0.80561376  1
  O  O406  1  0.95220025  0.83534771  0.30225588  1
  O  O407  1  0.96460210  0.83292581  0.80270689  1
  O  O408  1  0.12261380  0.41558876  0.31056427  1
  O  O409  1  0.12213682  0.41650001  0.80620740  1
  O  O410  1  0.11844184  0.92134255  0.30347017  1
  O  O411  1  0.12490463  0.91651773  0.80455010  1
  O  O412  1  0.45545686  0.41945814  0.30920492  1
  O  O413  1  0.45554742  0.41999069  0.80892420  1
  O  O414  1  0.45829637  0.91608405  0.29868250  1
  O  O415  1  0.45435031  0.91141776  0.81007880  1
  O  O416  1  0.78878012  0.41674600  0.30682338  1
  O  O417  1  0.79138289  0.41730568  0.80508420  1
  O  O418  1  0.79222299  0.91848979  0.30200261  1
  O  O419  1  0.80172002  0.91762451  0.80394383  1
  O  O420  1  0.29061716  0.16409205  0.30837807  1
  O  O421  1  0.28618117  0.16949602  0.80925016  1
  O  O422  1  0.29300341  0.66678488  0.30873518  1
  O  O423  1  0.28440945  0.66101951  0.80757285  1
  O  O424  1  0.62321986  0.17485835  0.30636208  1
  O  O425  1  0.62299961  0.17069310  0.80150762  1
  O  O426  1  0.62049184  0.66737462  0.30214119  1
  O  O427  1  0.61828346  0.65668261  0.80584108  1
  O  O428  1  0.96178949  0.16449183  0.30787699  1
  O  O429  1  0.96020978  0.16901235  0.80496244  1
  O  O430  1  0.95246556  0.66590981  0.30399919  1
  O  O431  1  0.95829887  0.66340242  0.80331043  1
  F  F432  1  0.04786479  0.00218501  0.19961580  1
  F  F433  1  0.04977456  0.00056089  0.70194472  1
  F  F434  1  0.04441865  0.49479477  0.20236193  1
  F  F435  1  0.04718881  0.49883672  0.70213435  1
  F  F436  1  0.38000426  0.00343822  0.20399491  1
  F  F437  1  0.37379045  -0.00391057  0.70526853  1
  F  F438  1  0.37557851  0.49974770  0.20553412  1
  F  F439  1  0.37895982  0.50107221  0.70675531  1
  F  F440  1  0.71095693  -0.00218596  0.19916137  1
  F  F441  1  0.71642738  0.01225396  0.69880036  1
  F  F442  1  0.71190899  0.49457806  0.19849522  1
  F  F443  1  0.70971109  0.49774491  0.70293518  1
  F  F444  1  0.21070321  0.24870423  0.20444775  1
  F  F445  1  0.21336447  0.25187846  0.70562164  1
  F  F446  1  0.21897906  0.73643865  0.19953652  1
  F  F447  1  0.20959092  0.74929601  0.70203696  1
  F  F448  1  0.53484729  0.25454688  0.20074550  1
  F  F449  1  0.54242986  0.25625515  0.70633967  1
  F  F450  1  0.54319943  0.74916798  0.19917545  1
  F  F451  1  0.53071803  0.74727615  0.69702142  1
  F  F452  1  0.88026276  0.24953066  0.20090400  1
  F  F453  1  0.88074193  0.25081424  0.70302746  1
  F  F454  1  0.87750705  0.74690823  0.20037405  1
  F  F455  1  0.88539279  0.74207900  0.69544693  1
  F  F456  1  0.28892542  0.00010905  0.29920406  1
  F  F457  1  0.28616909  -0.00083409  0.80077434  1
  F  F458  1  0.28803704  0.50178211  0.30134015  1
  F  F459  1  0.28739410  0.50104904  0.80171274  1
  F  F460  1  0.62236454  -0.01126371  0.30262373  1
  F  F461  1  0.61860849  0.00616554  0.80324494  1
  F  F462  1  0.61819349  0.49913836  0.29724566  1
  F  F463  1  0.62226704  0.49991886  0.79986730  1
  F  F464  1  0.95474400  -0.00259011  0.29556729  1
  F  F465  1  0.96114222  -0.00119999  0.79828488  1
  F  F466  1  0.95160145  0.50002083  0.29588379  1
  F  F467  1  0.95653413  0.50114549  0.79704640  1
  F  F468  1  0.12123084  0.24629422  0.29955949  1
  F  F469  1  0.12114353  0.25086803  0.79841338  1
  F  F470  1  0.11489273  0.73962659  0.30197234  1
  F  F471  1  0.12183362  0.75090519  0.79977212  1
  F  F472  1  0.45312215  0.25218401  0.30153792  1
  F  F473  1  0.45317781  0.25783635  0.80590923  1
  F  F474  1  0.45671177  0.74733394  0.29586652  1
  F  F475  1  0.45463540  0.74682337  0.80227821  1
  F  F476  1  0.79485870  0.24950013  0.30095409  1
  F  F477  1  0.79004209  0.25192812  0.79809501  1
  F  F478  1  0.79107067  0.74962504  0.29754884  1
  F  F479  1  0.80401389  0.74099968  0.80460490  1
