# generated using pymatgen
data_K24Na3Li5Mg64Fe17Si79(O5F)48
_symmetry_space_group_name_H-M   'P 1'
_cell_length_a   16.08354943
_cell_length_b   18.57691582
_cell_length_c   20.55065235
_cell_angle_alpha   89.96284978
_cell_angle_beta   100.01317126
_cell_angle_gamma   90.03021536
_symmetry_Int_Tables_number   1
_chemical_formula_structural   K24Na3Li5Mg64Fe17Si79(O5F)48
_chemical_formula_sum   'K24 Na3 Li5 Mg64 Fe17 Si79 O240 F48'
_cell_volume   6046.65009018
_cell_formula_units_Z   1
loop_
 _symmetry_equiv_pos_site_id
 _symmetry_equiv_pos_as_xyz
  1  'x, y, z'
loop_
 _atom_site_type_symbol
 _atom_site_label
 _atom_site_symmetry_multiplicity
 _atom_site_fract_x
 _atom_site_fract_y
 _atom_site_fract_z
 _atom_site_occupancy
  K  K0  1  0.00740595  0.00038351  0.00150811  1
  K  K1  1  0.00609666  -0.00282275  0.49992798  1
  K  K2  1  -0.00507727  0.50312473  -0.00469707  1
  K  K3  1  -0.00036789  0.49493438  0.50528954  1
  K  K4  1  0.32919888  -0.00177814  0.00072359  1
  K  K5  1  0.32748750  0.00178096  0.50198629  1
  K  K6  1  0.32402081  0.49881445  -0.00637039  1
  K  K7  1  0.33400951  0.50047533  0.50882943  1
  K  K8  1  0.65762852  0.00826154  -0.00073275  1
  K  K9  1  0.66540736  -0.00160701  0.50028631  1
  K  K10  1  0.67362350  0.49087431  -0.00334785  1
  K  K11  1  0.68261652  0.49910783  0.51305999  1
  K  K12  1  0.16233079  0.24684938  -0.00283827  1
  K  K13  1  0.16819209  0.24099317  0.50879529  1
  K  K14  1  0.16282077  0.75397202  -0.00343922  1
  K  K15  1  0.17524730  0.74952950  0.50525122  1
  K  K16  1  0.50582574  0.24653664  -0.00493286  1
  K  K17  1  0.49301429  0.24832695  0.51260581  1
  K  K18  1  0.49838420  0.75207188  -0.00534596  1
  K  K19  1  0.50366427  0.75373681  0.51494601  1
  K  K20  1  0.83414394  0.25556298  0.00518906  1
  K  K21  1  0.83683593  0.25033506  0.49793896  1
  K  K22  1  0.83739408  0.74840473  -0.00607044  1
  K  K23  1  0.82872607  0.75309717  0.50696823  1
  Na  Na24  1  -0.00535256  0.25257327  0.24402505  1
  Na  Na25  1  0.16663808  0.16838244  0.75032303  1
  Na  Na26  1  0.50078950  0.33022270  0.74868906  1
  Li  Li27  1  0.67126887  0.74578147  0.74599198  1
  Li  Li28  1  0.83972643  0.49921363  0.74996826  1
  Li  Li29  1  0.66538729  0.08646717  0.24119371  1
  Li  Li30  1  -0.00537331  0.42121052  0.75061834  1
  Li  Li31  1  0.83717730  0.33319863  0.24318302  1
  Mg  Mg32  1  0.33301415  0.75035063  0.24964462  1
  Mg  Mg33  1  0.67178399  0.24784042  0.24941633  1
  Mg  Mg34  1  0.33527716  0.25184891  0.25068626  1
  Mg  Mg35  1  0.16751479  0.00040111  0.25201595  1
  Mg  Mg36  1  0.49962961  -0.00083322  0.75124285  1
  Mg  Mg37  1  -0.00026895  0.75205396  0.25243024  1
  Mg  Mg38  1  0.16502707  0.49947184  0.24753514  1
  Mg  Mg39  1  0.83189552  -0.00130071  0.74979452  1
  Mg  Mg40  1  0.33438639  0.24840217  0.74839553  1
  Mg  Mg41  1  0.16585544  -0.00001344  0.75031446  1
  Mg  Mg42  1  0.50192418  0.50012834  0.25236568  1
  Mg  Mg43  1  0.83416163  0.49662151  0.25023694  1
  Mg  Mg44  1  0.50509515  0.00110927  0.25003456  1
  Mg  Mg45  1  0.66593414  0.75261867  0.25083450  1
  Mg  Mg46  1  0.83108200  0.00433131  0.25005396  1
  Mg  Mg47  1  -0.00079388  0.74777511  0.74841254  1
  Mg  Mg48  1  0.33413560  0.74715765  0.74702759  1
  Mg  Mg49  1  0.16363007  0.49916129  0.74645282  1
  Mg  Mg50  1  0.50084367  0.50001875  0.74576150  1
  Mg  Mg51  1  0.66412542  0.24982281  0.75229759  1
  Mg  Mg52  1  -0.00059384  0.25259413  0.75064844  1
  Mg  Mg53  1  0.83486108  0.33685779  0.75100669  1
  Mg  Mg54  1  0.16515581  0.66559085  0.24931684  1
  Mg  Mg55  1  -0.00334054  0.57950836  0.74867808  1
  Mg  Mg56  1  0.67094508  0.41429543  0.25155268  1
  Mg  Mg57  1  0.66510855  0.08436405  0.75255495  1
  Mg  Mg58  1  0.50163398  0.66568189  0.74295079  1
  Mg  Mg59  1  0.83214573  0.83049394  0.74828946  1
  Mg  Mg60  1  0.33447873  0.08436209  0.75038813  1
  Mg  Mg61  1  0.00139994  0.91451365  0.75034236  1
  Mg  Mg62  1  0.49925024  0.66607932  0.25091991  1
  Mg  Mg63  1  0.83260814  0.66634112  0.25241011  1
  Mg  Mg64  1  0.16409779  0.33438413  0.24829213  1
  Mg  Mg65  1  0.16377629  0.83286677  0.75018925  1
  Mg  Mg66  1  0.33245822  0.41518573  0.74543970  1
  Mg  Mg67  1  -0.00443802  0.41485631  0.24783976  1
  Mg  Mg68  1  0.66961944  0.41852659  0.75022019  1
  Mg  Mg69  1  0.00050025  0.91803643  0.25266848  1
  Mg  Mg70  1  0.16469057  0.66289108  0.74676983  1
  Mg  Mg71  1  -0.00234455  0.08660939  0.25039468  1
  Mg  Mg72  1  0.33157505  0.58342676  0.74502420  1
  Mg  Mg73  1  0.66349449  0.92070073  0.25031384  1
  Mg  Mg74  1  0.33259830  0.41740413  0.24969091  1
  Mg  Mg75  1  0.50437650  0.16544846  0.24935888  1
  Mg  Mg76  1  0.16490966  0.16812501  0.24907517  1
  Mg  Mg77  1  0.33279131  0.91644203  0.25043409  1
  Mg  Mg78  1  -0.00249898  0.58458525  0.24924750  1
  Mg  Mg79  1  0.83092910  0.16833096  0.24919178  1
  Mg  Mg80  1  0.66772412  0.58422788  0.25316752  1
  Mg  Mg81  1  0.83202776  0.83660492  0.25176079  1
  Mg  Mg82  1  0.49906429  0.16487012  0.75122004  1
  Mg  Mg83  1  0.50315858  0.33418614  0.25229327  1
  Mg  Mg84  1  0.00029890  0.08411896  0.75208421  1
  Mg  Mg85  1  0.83376459  0.66353977  0.74943263  1
  Mg  Mg86  1  0.33521075  0.08566584  0.24849528  1
  Mg  Mg87  1  0.49871981  0.83587520  0.24766770  1
  Mg  Mg88  1  0.67118425  0.58416473  0.74633240  1
  Mg  Mg89  1  0.33022647  0.58370070  0.24915336  1
  Mg  Mg90  1  0.83282718  0.16671059  0.75313470  1
  Mg  Mg91  1  0.66706752  0.91220888  0.74778989  1
  Mg  Mg92  1  0.33304231  0.91380773  0.75054012  1
  Mg  Mg93  1  0.16379447  0.33347288  0.74734183  1
  Mg  Mg94  1  0.16660807  0.83722017  0.25283625  1
  Mg  Mg95  1  0.50251965  0.83035164  0.74692112  1
  Fe  Fe96  1  0.85651295  0.41885763  0.10748857  1
  Fe  Fe97  1  0.64210503  0.16852366  0.89324522  1
  Fe  Fe98  1  0.14267352  0.91848497  0.39473209  1
  Fe  Fe99  1  0.97637627  0.66650567  0.88867829  1
  Fe  Fe100  1  0.36200287  0.66830034  0.60525927  1
  Fe  Fe101  1  0.02775424  0.33209639  0.10629270  1
  Fe  Fe102  1  0.70303749  0.66355067  0.60804995  1
  Fe  Fe103  1  0.18818188  0.58264695  0.60565465  1
  Fe  Fe104  1  0.52234885  0.08623133  0.10996631  1
  Fe  Fe105  1  0.18709622  0.58312171  0.10922506  1
  Fe  Fe106  1  0.14339379  0.92368840  0.89052767  1
  Fe  Fe107  1  0.01961230  0.83169587  0.60878547  1
  Fe  Fe108  1  0.52498022  0.91482431  0.10833947  1
  Fe  Fe109  1  0.46742299  0.07884961  0.89211445  1
  Fe  Fe110  1  0.35510048  0.16411299  0.60691451  1
  Fe  Fe111  1  0.85763214  0.08194309  0.10970791  1
  Fe  Fe112  1  0.19372658  0.91592797  0.11140415  1
  Si  Si113  1  0.19649781  0.08911823  0.11437599  1
  Si  Si114  1  0.52932829  0.91866349  0.61372352  1
  Si  Si115  1  0.14417473  0.41220821  0.88224938  1
  Si  Si116  1  0.69119601  0.66963824  0.11793565  1
  Si  Si117  1  0.97471704  0.33334133  0.88430170  1
  Si  Si118  1  0.14166685  0.09171872  0.38930131  1
  Si  Si119  1  0.64729313  0.33904424  0.88760469  1
  Si  Si120  1  0.63969421  0.66275781  0.88154476  1
  Si  Si121  1  0.47546408  0.42075078  0.88285093  1
  Si  Si122  1  0.80479919  0.91849221  0.38698786  1
  Si  Si123  1  0.86759399  0.57552842  0.61063561  1
  Si  Si124  1  0.63997954  0.83521677  0.38649696  1
  Si  Si125  1  0.19381814  0.41391121  0.11210873  1
  Si  Si126  1  0.64045783  0.66887337  0.38750957  1
  Si  Si127  1  0.47463788  0.08476763  0.38688452  1
  Si  Si128  1  0.69548602  0.83273812  0.11527427  1
  Si  Si129  1  0.85509000  0.08689265  0.61557742  1
  Si  Si130  1  0.30992327  0.66437513  0.38623521  1
  Si  Si131  1  0.31023566  0.17079516  0.38541248  1
  Si  Si132  1  0.97274259  0.66488395  0.38755015  1
  Si  Si133  1  0.30908335  0.33697921  0.38595785  1
  Si  Si134  1  0.97275167  0.33781146  0.38695036  1
  Si  Si135  1  0.02070122  0.83359669  0.11601693  1
  Si  Si136  1  0.02809045  0.16023201  0.11232725  1
  Si  Si137  1  0.69018560  0.33393645  0.61446062  1
  Si  Si138  1  0.97144189  0.17037155  0.38748251  1
  Si  Si139  1  0.80851367  0.08491725  0.38722776  1
  Si  Si140  1  0.85987097  0.41010890  0.61445692  1
  Si  Si141  1  0.81011328  0.07825286  0.88780625  1
  Si  Si142  1  0.85574840  0.91318158  0.11597406  1
  Si  Si143  1  0.97273663  0.83709205  0.88758711  1
  Si  Si144  1  0.36218187  0.82535035  0.11252976  1
  Si  Si145  1  0.19240153  0.91401974  0.61371905  1
  Si  Si146  1  0.47458500  0.91770814  0.38651627  1
  Si  Si147  1  0.96914490  0.83177409  0.39014006  1
  Si  Si148  1  0.47767189  0.41693655  0.38786352  1
  Si  Si149  1  0.47537447  0.58375921  0.88301351  1
  Si  Si150  1  0.80513820  0.91264586  0.88334791  1
  Si  Si151  1  0.64199124  0.82771122  0.88068944  1
  Si  Si152  1  0.85499605  0.92330897  0.61159424  1
  Si  Si153  1  0.18481257  0.41305125  0.60940627  1
  Si  Si154  1  0.30814656  0.66173732  0.88381266  1
  Si  Si155  1  0.85294399  0.58809068  0.11479247  1
  Si  Si156  1  0.30819849  0.82691686  0.88596618  1
  Si  Si157  1  0.14026256  0.58387533  0.38624055  1
  Si  Si158  1  0.53176989  0.58022844  0.60687219  1
  Si  Si159  1  0.35988406  0.84049068  0.61201409  1
  Si  Si160  1  0.80599083  0.58290819  0.38832327  1
  Si  Si161  1  0.02344205  0.32588648  0.61272736  1
  Si  Si162  1  0.80682367  0.41821657  0.38857653  1
  Si  Si163  1  0.01873791  0.67109676  0.11536853  1
  Si  Si164  1  0.69389880  0.16992920  0.11335042  1
  Si  Si165  1  0.69356246  0.83498382  0.61037442  1
  Si  Si166  1  0.53063506  0.08287519  0.61151233  1
  Si  Si167  1  0.69379420  0.16947170  0.61584758  1
  Si  Si168  1  0.52643330  0.41865434  0.11681539  1
  Si  Si169  1  0.52435406  0.41708054  0.61329951  1
  Si  Si170  1  0.14058700  0.09040547  0.88723584  1
  Si  Si171  1  0.36035582  0.34028734  0.11735893  1
  Si  Si172  1  0.35324639  0.33508135  0.60994546  1
  Si  Si173  1  0.14109205  0.41746609  0.38694552  1
  Si  Si174  1  0.02212562  0.66526739  0.61012457  1
  Si  Si175  1  0.80541395  0.58428190  0.88664336  1
  Si  Si176  1  0.35980896  0.17690681  0.11466442  1
  Si  Si177  1  0.30540369  0.17002606  0.88646519  1
  Si  Si178  1  0.14339314  0.57752827  0.88641306  1
  Si  Si179  1  0.52924862  0.58422558  0.11724058  1
  Si  Si180  1  0.02031414  0.16273170  0.61517220  1
  Si  Si181  1  0.64280541  0.33203737  0.38875559  1
  Si  Si182  1  0.68672747  0.33241451  0.11446593  1
  Si  Si183  1  0.31380728  0.82998768  0.39041071  1
  Si  Si184  1  0.31225414  0.33429900  0.88413447  1
  Si  Si185  1  0.47724972  0.90671308  0.88538021  1
  Si  Si186  1  0.81120928  0.41961650  0.88431334  1
  Si  Si187  1  0.47618926  0.58256540  0.38706896  1
  Si  Si188  1  0.36133327  0.66131972  0.11444796  1
  Si  Si189  1  0.18671608  0.07691186  0.61300061  1
  Si  Si190  1  0.64179555  0.16722891  0.38705082  1
  Si  Si191  1  0.97218410  0.16765955  0.88685073  1
  O  O192  1  0.27955454  0.12354371  0.08763979  1
  O  O193  1  0.25726540  0.10946476  0.57335698  1
  O  O194  1  0.29133408  0.60399241  0.08155660  1
  O  O195  1  0.27596217  0.61017043  0.56357786  1
  O  O196  1  0.62308809  0.11149312  0.08193648  1
  O  O197  1  0.61399243  0.11811333  0.58450103  1
  O  O198  1  0.61354661  0.61323718  0.08959975  1
  O  O199  1  0.61500459  0.59956576  0.57561844  1
  O  O200  1  0.96129259  0.09791243  0.08132384  1
  O  O201  1  0.93535859  0.11595293  0.58311759  1
  O  O202  1  0.93774587  0.61803354  0.08859141  1
  O  O203  1  0.95561405  0.59829710  0.58471077  1
  O  O204  1  0.13507330  0.34799061  0.08081867  1
  O  O205  1  0.10472281  0.35684997  0.58220187  1
  O  O206  1  0.10052396  0.85440154  0.08198775  1
  O  O207  1  0.12166735  0.85717268  0.58011288  1
  O  O208  1  0.44434649  0.36800462  0.08834302  1
  O  O209  1  0.43749852  0.37152498  0.58476836  1
  O  O210  1  0.44921601  0.83741408  0.08457997  1
  O  O211  1  0.44130645  0.87710188  0.58391505  1
  O  O212  1  0.76163997  0.35915590  0.07751680  1
  O  O213  1  0.76934278  0.36796627  0.58256681  1
  O  O214  1  0.78805494  0.84611943  0.09304720  1
  O  O215  1  0.76902810  0.87794015  0.58011029  1
  O  O216  1  0.28871460  0.40037082  0.09041832  1
  O  O217  1  0.26882413  0.38433053  0.57985952  1
  O  O218  1  0.28781668  0.87932639  0.07945549  1
  O  O219  1  0.28201159  0.89738476  0.58715167  1
  O  O220  1  0.60527283  0.38776950  0.08573175  1
  O  O221  1  0.60316059  0.37807807  0.58288241  1
  O  O222  1  0.62719857  0.88868846  0.07868173  1
  O  O223  1  0.60535942  0.88064872  0.58232224  1
  O  O224  1  0.94613477  0.39606872  0.06569836  1
  O  O225  1  0.93539967  0.36951316  0.58150582  1
  O  O226  1  0.94258469  0.88918156  0.08891739  1
  O  O227  1  0.93262764  0.89921183  0.57624810  1
  O  O228  1  0.11941232  0.14474161  0.08635229  1
  O  O229  1  0.09922512  0.12485909  0.58765350  1
  O  O230  1  0.09880238  0.64959109  0.08175283  1
  O  O231  1  0.10391927  0.65087889  0.57535829  1
  O  O232  1  0.44043975  0.15941184  0.08159270  1
  O  O233  1  0.44897737  0.12567586  0.57366717  1
  O  O234  1  0.45143886  0.63886296  0.08917213  1
  O  O235  1  0.45697091  0.63355202  0.57239230  1
  O  O236  1  0.77844916  0.15471397  0.08153521  1
  O  O237  1  0.77610522  0.14064425  0.58529725  1
  O  O238  1  0.77684392  0.64826373  0.09020172  1
  O  O239  1  0.79195408  0.62375727  0.56957803  1
  O  O240  1  0.06507971  0.13563792  0.41805653  1
  O  O241  1  0.05843141  0.12381020  0.91668451  1
  O  O242  1  0.06277388  0.62379427  0.41572933  1
  O  O243  1  0.07215602  0.61057222  0.92394458  1
  O  O244  1  0.39752082  0.12586938  0.41638413  1
  O  O245  1  0.37164236  0.11302916  0.92543139  1
  O  O246  1  0.39439863  0.61548621  0.41472918  1
  O  O247  1  0.39596841  0.61805326  0.91347951  1
  O  O248  1  0.73030615  0.12421187  0.41783487  1
  O  O249  1  0.73535576  0.10711563  0.92295202  1
  O  O250  1  0.72933518  0.62640239  0.41599461  1
  O  O251  1  0.71852527  0.61094034  0.91470599  1
  O  O252  1  0.23138548  0.37541094  0.41592599  1
  O  O253  1  0.23198958  0.36836302  0.91445875  1
  O  O254  1  0.24178774  0.86463333  0.42608979  1
  O  O255  1  0.23482996  0.86109846  0.92068976  1
  O  O256  1  0.56403248  0.37163962  0.41775378  1
  O  O257  1  0.56425397  0.37891559  0.91167485  1
  O  O258  1  0.56442298  0.87658517  0.41634572  1
  O  O259  1  0.55973460  0.85393636  0.91160323  1
  O  O260  1  0.89760675  0.37975188  0.42008620  1
  O  O261  1  0.89831831  0.37421457  0.91394839  1
  O  O262  1  0.88717635  0.86905230  0.41643839  1
  O  O263  1  0.88292033  0.85945168  0.91320394  1
  O  O264  1  0.06494669  0.37741445  0.41827711  1
  O  O265  1  0.06558516  0.37393819  0.91210661  1
  O  O266  1  0.05183800  0.87358458  0.42633508  1
  O  O267  1  0.04201968  0.89746768  0.91789751  1
  O  O268  1  0.39711412  0.38134058  0.41626211  1
  O  O269  1  0.39751018  0.38255691  0.91395620  1
  O  O270  1  0.40302170  0.87390836  0.41864917  1
  O  O271  1  0.39927725  0.86620600  0.91354683  1
  O  O272  1  0.73134427  0.37492375  0.41913429  1
  O  O273  1  0.73121998  0.38909721  0.91687442  1
  O  O274  1  0.72620259  0.88006186  0.41666112  1
  O  O275  1  0.72242053  0.88021968  0.91141683  1
  O  O276  1  0.23003681  0.13851494  0.41536675  1
  O  O277  1  0.21205867  0.15398095  0.90707984  1
  O  O278  1  0.22863926  0.62811996  0.41315492  1
  O  O279  1  0.23403000  0.62000518  0.91455356  1
  O  O280  1  0.56459235  0.12573829  0.41736790  1
  O  O281  1  0.55448544  0.13645355  0.93186357  1
  O  O282  1  0.56178831  0.62961006  0.41569751  1
  O  O283  1  0.55796848  0.63329284  0.91402609  1
  O  O284  1  0.89690049  0.12782740  0.42070235  1
  O  O285  1  0.89597738  0.12621562  0.91515484  1
  O  O286  1  0.89706257  0.62158462  0.41662132  1
  O  O287  1  0.88207005  0.63364659  0.92425474  1
  O  O288  1  0.17513049  0.01104708  0.08092440  1
  O  O289  1  0.16221603  -0.00523338  0.58477415  1
  O  O290  1  0.15790265  0.48988738  0.07929327  1
  O  O291  1  0.15601356  0.48855202  0.57388580  1
  O  O292  1  0.48081299  -0.00020514  0.07235902  1
  O  O293  1  0.52399945  -0.00020305  0.58184794  1
  O  O294  1  0.50747936  0.50211714  0.08906562  1
  O  O295  1  0.50687367  0.49652574  0.57924180  1
  O  O296  1  0.82009071  -0.01272449  0.08139177  1
  O  O297  1  0.82892752  0.00691105  0.58602565  1
  O  O298  1  0.82060496  0.51431007  0.07905706  1
  O  O299  1  0.85100638  0.49109996  0.58201702  1
  O  O300  1  -0.00614878  0.23727546  0.08132379  1
  O  O301  1  0.00770199  0.24355288  0.58121495  1
  O  O302  1  -0.01415170  0.75247718  0.09167329  1
  O  O303  1  -0.02174034  0.74040206  0.58026833  1
  O  O304  1  0.32989591  0.26037645  0.09011480  1
  O  O305  1  0.33968705  0.25844418  0.57155540  1
  O  O306  1  0.33202915  0.74196608  0.08835148  1
  O  O307  1  0.34109233  0.76480902  0.57421735  1
  O  O308  1  0.65596975  0.25145634  0.08867126  1
  O  O309  1  0.67508310  0.25108584  0.58519459  1
  O  O310  1  0.66375523  0.74999210  0.09002324  1
  O  O311  1  0.68118162  0.75808706  0.57338020  1
  O  O312  1  0.15357640  0.01468639  0.42648516  1
  O  O313  1  0.17048865  0.01658810  0.92614763  1
  O  O314  1  0.15012061  0.50108978  0.41597749  1
  O  O315  1  0.15979257  0.49358529  0.91364601  1
  O  O316  1  0.48140952  0.00112476  0.41585577  1
  O  O317  1  0.49537977  -0.01668978  0.92063560  1
  O  O318  1  0.49098963  0.49994250  0.41599731  1
  O  O319  1  0.48864519  0.50251408  0.91577033  1
  O  O320  1  0.81592270  0.00097538  0.41762023  1
  O  O321  1  0.82955028  -0.00625251  0.91208820  1
  O  O322  1  0.80926097  0.50119111  0.41984345  1
  O  O323  1  0.82474330  0.50120503  0.91469903  1
  O  O324  1  0.32410914  0.25414135  0.41399011  1
  O  O325  1  0.32929364  0.25329052  0.91499793  1
  O  O326  1  0.32898694  0.74526641  0.41653221  1
  O  O327  1  0.32121173  0.74302888  0.91441916  1
  O  O328  1  0.65112692  0.24987722  0.41978194  1
  O  O329  1  0.66238625  0.26337011  0.92591791  1
  O  O330  1  0.64886674  0.75189073  0.41603102  1
  O  O331  1  0.66205580  0.74532076  0.90997102  1
  O  O332  1  0.97461398  0.25430347  0.41640002  1
  O  O333  1  0.98144974  0.25067736  0.91578266  1
  O  O334  1  0.97365578  0.74688190  0.41646826  1
  O  O335  1  1.00052536  0.76002838  0.92184865  1
  O  O336  1  0.21394871  0.08566808  0.19610342  1
  O  O337  1  0.21305833  0.07520563  0.69247369  1
  O  O338  1  0.21038567  0.58370241  0.20180123  1
  O  O339  1  0.21063312  0.58195175  0.69805537  1
  O  O340  1  0.54186538  0.08362749  0.20184350  1
  O  O341  1  0.54559121  0.08010563  0.69170291  1
  O  O342  1  0.54576247  0.58351678  0.19811033  1
  O  O343  1  0.54406995  0.58173255  0.68828552  1
  O  O344  1  0.87784798  0.08321058  0.20165720  1
  O  O345  1  0.87362120  0.08528073  0.69583220  1
  O  O346  1  0.87234297  0.58640014  0.19640735  1
  O  O347  1  0.87757518  0.58156719  0.68997747  1
  O  O348  1  0.05066241  0.34472639  0.19687192  1
  O  O349  1  0.04283585  0.32687340  0.69174912  1
  O  O350  1  0.04089022  0.83347920  0.19750317  1
  O  O351  1  0.04195873  0.83197935  0.70018227  1
  O  O352  1  0.38099298  0.33767679  0.19834052  1
  O  O353  1  0.36678010  0.33337629  0.68956628  1
  O  O354  1  0.37656369  0.82998314  0.19487744  1
  O  O355  1  0.37777081  0.83417660  0.69288273  1
  O  O356  1  0.70210333  0.33576642  0.19495261  1
  O  O357  1  0.70908956  0.33317832  0.69429889  1
  O  O358  1  0.70940426  0.83309024  0.19692028  1
  O  O359  1  0.71288190  0.83715644  0.69027621  1
  O  O360  1  0.21300673  0.41775138  0.19437584  1
  O  O361  1  0.20630812  0.41546421  0.69013379  1
  O  O362  1  0.21387551  0.91673783  0.20347928  1
  O  O363  1  0.21102162  0.91387335  0.69451761  1
  O  O364  1  0.54393107  0.41901919  0.19773227  1
  O  O365  1  0.54823013  0.42157780  0.69223441  1
  O  O366  1  0.54456644  0.91593922  0.20142439  1
  O  O367  1  0.54526727  0.91694239  0.69391346  1
  O  O368  1  0.87744033  0.42199386  0.19885156  1
  O  O369  1  0.87609830  0.40936828  0.69284736  1
  O  O370  1  0.87585534  0.91585804  0.19762153  1
  O  O371  1  0.87427784  0.91882343  0.69241941  1
  O  O372  1  0.04924412  0.15824153  0.19320246  1
  O  O373  1  0.02991868  0.16635282  0.69409091  1
  O  O374  1  0.04007941  0.66815851  0.19700966  1
  O  O375  1  0.04404019  0.66511814  0.69145642  1
  O  O376  1  0.37837265  0.17209960  0.19622452  1
  O  O377  1  0.37706337  0.16554076  0.69746173  1
  O  O378  1  0.37895352  0.66298275  0.19611179  1
  O  O379  1  0.37821950  0.66564363  0.69761140  1
  O  O380  1  0.70999962  0.16921643  0.19427813  1
  O  O381  1  0.71301678  0.16675062  0.69570350  1
  O  O382  1  0.70825146  0.66733102  0.19889154  1
  O  O383  1  0.71563983  0.66472332  0.69787155  1
  O  O384  1  0.12469624  0.08691841  0.30869311  1
  O  O385  1  0.11663866  0.07772374  0.80801695  1
  O  O386  1  0.12086481  0.58430199  0.30612857  1
  O  O387  1  0.12381388  0.58134915  0.80600360  1
  O  O388  1  0.45587731  0.08552899  0.30711632  1
  O  O389  1  0.45653621  0.07909650  0.79994483  1
  O  O390  1  0.45869996  0.58296755  0.30652472  1
  O  O391  1  0.45780780  0.58238565  0.80293217  1
  O  O392  1  0.79200296  0.08378506  0.30838743  1
  O  O393  1  0.79095885  0.08170098  0.80634743  1
  O  O394  1  0.78852475  0.58409428  0.30789534  1
  O  O395  1  0.78854723  0.58623628  0.80706320  1
  O  O396  1  0.29298777  0.33720819  0.30579196  1
  O  O397  1  0.29244809  0.33502999  0.80397442  1
  O  O398  1  0.29461102  0.83120120  0.30950495  1
  O  O399  1  0.29050847  0.82939205  0.80485163  1
  O  O400  1  0.62407422  0.33532968  0.30875214  1
  O  O401  1  0.63468249  0.33517788  0.80774886  1
  O  O402  1  0.62281907  0.83156772  0.30666603  1
  O  O403  1  0.62318742  0.83214325  0.80107769  1
  O  O404  1  0.95507268  0.34337130  0.30908220  1
  O  O405  1  0.95376647  0.33020533  0.80504534  1
  O  O406  1  0.95440864  0.83271651  0.30905481  1
  O  O407  1  0.95404442  0.83509419  0.80611602  1
  O  O408  1  0.12586189  0.41921852  0.30709685  1
  O  O409  1  0.12937799  0.41512226  0.80293910  1
  O  O410  1  0.12129003  0.91716069  0.30353510  1
  O  O411  1  0.12329030  0.91776287  0.79925578  1
  O  O412  1  0.45948452  0.41737263  0.30746548  1
  O  O413  1  0.45247468  0.42467475  0.80376383  1
  O  O414  1  0.45475249  0.91579435  0.30660735  1
  O  O415  1  0.45811791  0.91074321  0.80419697  1
  O  O416  1  0.78567852  0.42277235  0.30963068  1
  O  O417  1  0.79025510  0.41496576  0.80492822  1
  O  O418  1  0.78783562  0.91709860  0.30689180  1
  O  O419  1  0.78807440  0.91498687  0.80266343  1
  O  O420  1  0.29432335  0.16864590  0.30537691  1
  O  O421  1  0.29872474  0.16758891  0.80716166  1
  O  O422  1  0.29266104  0.66617703  0.30588729  1
  O  O423  1  0.29023412  0.66422434  0.80396537  1
  O  O424  1  0.62107456  0.17270544  0.30833301  1
  O  O425  1  0.62266929  0.16586416  0.80056844  1
  O  O426  1  0.62288684  0.66705057  0.30706608  1
  O  O427  1  0.61827172  0.66068358  0.80225247  1
  O  O428  1  0.95265228  0.16348176  0.30891646  1
  O  O429  1  0.95484882  0.16717228  0.80621399  1
  O  O430  1  0.95495544  0.66596210  0.30698302  1
  O  O431  1  0.95613258  0.66547099  0.79731066  1
  F  F432  1  0.04572836  0.00105783  0.20590484  1
  F  F433  1  0.04167886  0.00267605  0.70023952  1
  F  F434  1  0.04405278  0.50371162  0.20416979  1
  F  F435  1  0.04586852  0.50088761  0.69979284  1
  F  F436  1  0.37965987  0.00028721  0.20547637  1
  F  F437  1  0.37942908  -0.00498298  0.70110927  1
  F  F438  1  0.38229288  0.50063203  0.20507920  1
  F  F439  1  0.37868114  0.49929444  0.69747859  1
  F  F440  1  0.71235890  -0.00224058  0.20483108  1
  F  F441  1  0.71128927  0.00111264  0.70187936  1
  F  F442  1  0.70933833  0.50239077  0.20499327  1
  F  F443  1  0.70963652  0.49852496  0.69987597  1
  F  F444  1  0.21697097  0.25171455  0.20375086  1
  F  F445  1  0.21488443  0.25784691  0.69809166  1
  F  F446  1  0.21167730  0.75057931  0.20595752  1
  F  F447  1  0.21240022  0.74919384  0.70229531  1
  F  F448  1  0.54592417  0.25364465  0.20542571  1
  F  F449  1  0.55019793  0.24041030  0.69476803  1
  F  F450  1  0.54594682  0.74755913  0.20443886  1
  F  F451  1  0.53918098  0.75017318  0.69505672  1
  F  F452  1  0.86262052  0.24988041  0.19900897  1
  F  F453  1  0.87556850  0.24883778  0.70222120  1
  F  F454  1  0.87715434  0.75034488  0.20752174  1
  F  F455  1  0.87774769  0.75175612  0.69885251  1
  F  F456  1  0.29150339  0.00372419  0.30145652  1
  F  F457  1  0.28881211  -0.00245198  0.79743695  1
  F  F458  1  0.29037422  0.49900347  0.30059912  1
  F  F459  1  0.28905717  0.49766660  0.79508635  1
  F  F460  1  0.61860536  -0.00877152  0.30972573  1
  F  F461  1  0.62277014  -0.00320755  0.79675088  1
  F  F462  1  0.62151250  0.50095786  0.30186501  1
  F  F463  1  0.62044199  0.50109042  0.79683543  1
  F  F464  1  0.95429529  -0.00180903  0.30206834  1
  F  F465  1  0.95138843  0.00010142  0.79608537  1
  F  F466  1  0.95430624  0.50578192  0.30148070  1
  F  F467  1  0.95697683  0.50122973  0.80043152  1
  F  F468  1  0.13650387  0.25120072  0.30273140  1
  F  F469  1  0.11560498  0.25974016  0.80155253  1
  F  F470  1  0.12127320  0.74901906  0.30010557  1
  F  F471  1  0.12313486  0.74579127  0.79780878  1
  F  F472  1  0.45594470  0.25270567  0.30107835  1
  F  F473  1  0.45231369  0.24382310  0.80141088  1
  F  F474  1  0.45571719  0.74917134  0.29880255  1
  F  F475  1  0.45636610  0.74917368  0.79649623  1
  F  F476  1  0.78377932  0.24552888  0.30549039  1
  F  F477  1  0.78813784  0.25007257  0.79827295  1
  F  F478  1  0.78627242  0.75003642  0.30129158  1
  F  F479  1  0.79333927  0.75085166  0.79838784  1
