# generated using pymatgen
data_K24Na3Li5Mg64Fe17Si79(O5F)48
_symmetry_space_group_name_H-M   'P 1'
_cell_length_a   16.10564836
_cell_length_b   18.59913530
_cell_length_c   20.55909283
_cell_angle_alpha   89.99332409
_cell_angle_beta   100.02731561
_cell_angle_gamma   89.99250137
_symmetry_Int_Tables_number   1
_chemical_formula_structural   K24Na3Li5Mg64Fe17Si79(O5F)48
_chemical_formula_sum   'K24 Na3 Li5 Mg64 Fe17 Si79 O240 F48'
_cell_volume   6064.42746051
_cell_formula_units_Z   1
loop_
 _symmetry_equiv_pos_site_id
 _symmetry_equiv_pos_as_xyz
  1  'x, y, z'
loop_
 _atom_site_type_symbol
 _atom_site_label
 _atom_site_symmetry_multiplicity
 _atom_site_fract_x
 _atom_site_fract_y
 _atom_site_fract_z
 _atom_site_occupancy
  K  K0  1  0.00514792  -0.00584625  -0.01542957  1
  K  K1  1  0.00021270  -0.00370159  0.51553200  1
  K  K2  1  0.00073653  0.51008838  -0.00856707  1
  K  K3  1  0.01352537  0.50357651  0.50499469  1
  K  K4  1  0.32941509  -0.01387920  -0.01305591  1
  K  K5  1  0.34485461  -0.00634130  0.50134638  1
  K  K6  1  0.32530892  0.50202215  -0.00120714  1
  K  K7  1  0.34550376  0.51022799  0.50077321  1
  K  K8  1  0.66175573  -0.00799488  -0.01207530  1
  K  K9  1  0.66789264  0.00391361  0.51210261  1
  K  K10  1  0.66691019  0.49964247  -0.01222693  1
  K  K11  1  0.65890049  0.49921880  0.50428509  1
  K  K12  1  0.17420610  0.25672329  -0.01318080  1
  K  K13  1  0.18339683  0.24943303  0.50991623  1
  K  K14  1  0.16537527  0.76102893  0.00068790  1
  K  K15  1  0.16660266  0.74747791  0.50310951  1
  K  K16  1  0.50053240  0.24539534  -0.01536214  1
  K  K17  1  0.50107881  0.25069197  0.50693392  1
  K  K18  1  0.48101234  0.75460853  -0.00520745  1
  K  K19  1  0.49584270  0.75316455  0.49623398  1
  K  K20  1  0.82532803  0.25357256  -0.01901237  1
  K  K21  1  0.83376112  0.24628575  0.52146485  1
  K  K22  1  0.84230733  0.74811638  -0.01183760  1
  K  K23  1  0.83974470  0.75123862  0.51065478  1
  Na  Na24  1  -0.00797470  0.24966124  0.74738803  1
  Na  Na25  1  0.33251273  0.58567977  0.24841194  1
  Na  Na26  1  0.83541135  0.83351705  0.74371559  1
  Li  Li27  1  0.33632128  0.75131484  0.25119724  1
  Li  Li28  1  0.83495475  -0.00217644  0.74488607  1
  Li  Li29  1  0.50308019  0.16645490  0.75708175  1
  Li  Li30  1  0.66561725  0.58114309  0.74367312  1
  Li  Li31  1  0.83119187  0.32694714  0.75054765  1
  Mg  Mg32  1  0.33562582  0.24882380  0.75719860  1
  Mg  Mg33  1  0.83058982  0.49546537  0.74927789  1
  Mg  Mg34  1  0.16538381  0.00156237  0.75190039  1
  Mg  Mg35  1  0.50004074  0.00064270  0.75471256  1
  Mg  Mg36  1  0.83171824  0.00103781  0.24855471  1
  Mg  Mg37  1  0.66546482  0.24902048  0.75394714  1
  Mg  Mg38  1  0.49892868  -0.00054979  0.25321006  1
  Mg  Mg39  1  0.16705321  -0.00045117  0.25082962  1
  Mg  Mg40  1  0.33322511  0.25019147  0.25603729  1
  Mg  Mg41  1  0.33562244  0.74958209  0.74811112  1
  Mg  Mg42  1  0.16536225  0.50098175  0.24857343  1
  Mg  Mg43  1  -0.00199630  0.25143896  0.25005031  1
  Mg  Mg44  1  0.50600608  0.50045007  0.75065925  1
  Mg  Mg45  1  0.66516552  0.25174478  0.25536688  1
  Mg  Mg46  1  0.16722006  0.49825491  0.74824721  1
  Mg  Mg47  1  0.49871215  0.50087494  0.25228640  1
  Mg  Mg48  1  0.66591170  0.74976768  0.25085093  1
  Mg  Mg49  1  0.67002391  0.74629021  0.74722131  1
  Mg  Mg50  1  0.83206380  0.50186192  0.24932114  1
  Mg  Mg51  1  0.00161061  0.74930780  0.74497500  1
  Mg  Mg52  1  -0.00017035  0.75063552  0.24292381  1
  Mg  Mg53  1  0.67005296  0.91655138  0.74829963  1
  Mg  Mg54  1  0.66540860  0.58555791  0.25044605  1
  Mg  Mg55  1  0.50267331  0.33116369  0.75487847  1
  Mg  Mg56  1  0.16811075  0.33483717  0.25364344  1
  Mg  Mg57  1  -0.00179535  0.91602302  0.74474657  1
  Mg  Mg58  1  0.83259973  0.83477480  0.24678323  1
  Mg  Mg59  1  0.50196472  0.83410041  0.74955729  1
  Mg  Mg60  1  0.33732865  0.08579300  0.75803482  1
  Mg  Mg61  1  0.33493004  0.91275145  0.25202894  1
  Mg  Mg62  1  0.33661393  0.58392747  0.74398310  1
  Mg  Mg63  1  0.16426472  0.83438594  0.74734479  1
  Mg  Mg64  1  0.50177106  0.33508828  0.25626542  1
  Mg  Mg65  1  0.83124487  0.16712278  0.24968134  1
  Mg  Mg66  1  0.66826536  0.41513694  0.75313992  1
  Mg  Mg67  1  0.83229830  0.66318195  0.74470386  1
  Mg  Mg68  1  0.49773163  0.83277683  0.25165952  1
  Mg  Mg69  1  -0.00103374  0.08532738  0.24987331  1
  Mg  Mg70  1  0.16718739  0.16767260  0.75601766  1
  Mg  Mg71  1  -0.00094572  0.58330127  0.74514756  1
  Mg  Mg72  1  0.83025111  0.16582390  0.74982902  1
  Mg  Mg73  1  -0.00346094  0.41390073  0.75192056  1
  Mg  Mg74  1  0.16656392  0.66435949  0.74412575  1
  Mg  Mg75  1  0.66507116  0.91604501  0.24819985  1
  Mg  Mg76  1  0.33426448  0.41563854  0.25581658  1
  Mg  Mg77  1  0.83278167  0.66638764  0.24633061  1
  Mg  Mg78  1  0.66684375  0.08210625  0.75194568  1
  Mg  Mg79  1  0.16806530  0.16664664  0.25465778  1
  Mg  Mg80  1  0.83083737  0.33550954  0.25078240  1
  Mg  Mg81  1  -0.00139629  0.41676448  0.25022309  1
  Mg  Mg82  1  0.16768064  0.33235477  0.75444688  1
  Mg  Mg83  1  0.00040534  0.91686505  0.24785794  1
  Mg  Mg84  1  -0.00014928  0.58612799  0.24421837  1
  Mg  Mg85  1  0.16955680  0.83304135  0.24614490  1
  Mg  Mg86  1  -0.00351316  0.08262078  0.75240226  1
  Mg  Mg87  1  0.33678933  0.41471941  0.75443876  1
  Mg  Mg88  1  0.50305008  0.66514028  0.74660799  1
  Mg  Mg89  1  0.16668604  0.66854955  0.24394993  1
  Mg  Mg90  1  0.66581081  0.41640949  0.25282164  1
  Mg  Mg91  1  0.33399388  0.91637694  0.75162154  1
  Mg  Mg92  1  0.33638271  0.08372045  0.25598871  1
  Mg  Mg93  1  0.66542248  0.08533206  0.25273515  1
  Mg  Mg94  1  0.50116064  0.16561010  0.25620084  1
  Mg  Mg95  1  0.49889716  0.66835960  0.25004992  1
  Fe  Fe96  1  0.64780264  0.33678437  0.39430250  1
  Fe  Fe97  1  0.48068014  0.08315977  0.39441748  1
  Fe  Fe98  1  0.47962041  0.90800710  0.89009094  1
  Fe  Fe99  1  0.31083886  0.34264192  0.89450152  1
  Fe  Fe100  1  0.85724551  0.08413714  0.61081825  1
  Fe  Fe101  1  0.64535172  0.66599466  0.39038095  1
  Fe  Fe102  1  0.31225054  0.16844907  0.89701243  1
  Fe  Fe103  1  0.02550748  0.83264346  0.60297834  1
  Fe  Fe104  1  0.36046793  0.67447136  0.60670984  1
  Fe  Fe105  1  0.64179262  0.33335073  0.89379730  1
  Fe  Fe106  1  0.02657029  0.66784817  0.10374603  1
  Fe  Fe107  1  0.30723146  0.83056563  0.39003726  1
  Fe  Fe108  1  0.02670131  0.65946770  0.60490842  1
  Fe  Fe109  1  0.52927314  0.58469371  0.60751741  1
  Fe  Fe110  1  0.30545373  0.33508384  0.39388968  1
  Fe  Fe111  1  0.35623690  0.83051794  0.11000549  1
  Fe  Fe112  1  0.13660652  0.91654662  0.88746284  1
  Si  Si113  1  0.36060290  0.66255406  0.11078026  1
  Si  Si114  1  0.19935388  0.57502119  0.60798172  1
  Si  Si115  1  0.36191224  0.32764334  0.61909582  1
  Si  Si116  1  0.52522074  0.41715434  0.11598850  1
  Si  Si117  1  0.85453896  0.41310064  0.61622942  1
  Si  Si118  1  0.69972447  0.66590818  0.60977650  1
  Si  Si119  1  0.52290177  0.41399615  0.61426465  1
  Si  Si120  1  0.80646784  0.91787454  0.88175352  1
  Si  Si121  1  0.02547399  0.33626101  0.61675243  1
  Si  Si122  1  0.35972704  0.16794093  0.11892820  1
  Si  Si123  1  0.52534594  0.08091472  0.61969732  1
  Si  Si124  1  0.97378870  0.66770118  0.88164815  1
  Si  Si125  1  0.85619848  0.92084802  0.11227701  1
  Si  Si126  1  0.85358868  0.58179588  0.10891156  1
  Si  Si127  1  0.35657416  0.84227238  0.61287855  1
  Si  Si128  1  0.97173362  0.83209573  0.88453955  1
  Si  Si129  1  0.64935178  0.82835578  0.88687503  1
  Si  Si130  1  0.18887863  0.92442999  0.11203265  1
  Si  Si131  1  0.96980948  0.83518903  0.38012617  1
  Si  Si132  1  0.13482462  0.91807630  0.38586554  1
  Si  Si133  1  0.47681468  0.42630284  0.89115941  1
  Si  Si134  1  0.48396162  0.91436123  0.39084487  1
  Si  Si135  1  0.52599555  0.58214136  0.11246077  1
  Si  Si136  1  0.64881735  0.83472301  0.38544111  1
  Si  Si137  1  0.19244840  0.57813310  0.10943934  1
  Si  Si138  1  0.85553966  0.08626684  0.11388451  1
  Si  Si139  1  0.64465946  0.16187557  0.89029595  1
  Si  Si140  1  0.19385455  0.08879111  0.61868957  1
  Si  Si141  1  0.52817987  0.91834658  0.11329834  1
  Si  Si142  1  0.02206428  0.84140313  0.10922282  1
  Si  Si143  1  0.96925144  0.33421371  0.88609906  1
  Si  Si144  1  0.80776964  0.91875105  0.38184364  1
  Si  Si145  1  0.13923477  0.58369018  0.88286539  1
  Si  Si146  1  0.69015917  0.66751615  0.11186567  1
  Si  Si147  1  0.13479077  0.08417580  0.38600366  1
  Si  Si148  1  0.65106094  0.16834664  0.39152019  1
  Si  Si149  1  0.68910443  0.83099536  0.61230969  1
  Si  Si150  1  0.13623582  0.08833419  0.89259979  1
  Si  Si151  1  0.80631821  0.08073481  0.88663216  1
  Si  Si152  1  0.81189348  0.58164295  0.88181745  1
  Si  Si153  1  0.52825282  0.91590313  0.61491736  1
  Si  Si154  1  0.30877561  0.65875208  0.88207219  1
  Si  Si155  1  0.81210038  0.42232367  0.38632342  1
  Si  Si156  1  0.47502954  0.42037980  0.39210354  1
  Si  Si157  1  0.36215806  0.16307272  0.62149948  1
  Si  Si158  1  0.97380904  0.67067452  0.38038866  1
  Si  Si159  1  0.02997728  0.16806647  0.61545211  1
  Si  Si160  1  0.69037927  0.33306980  0.11577348  1
  Si  Si161  1  0.80978914  0.41930408  0.88997635  1
  Si  Si162  1  0.48237311  0.58883532  0.88427559  1
  Si  Si163  1  0.30524111  0.16218806  0.39295597  1
  Si  Si164  1  0.68593466  0.16791517  0.61525932  1
  Si  Si165  1  0.19388492  0.40997333  0.61572979  1
  Si  Si166  1  0.19093993  0.08977034  0.11738602  1
  Si  Si167  1  0.64842246  0.66698108  0.88159683  1
  Si  Si168  1  0.30420046  0.82527117  0.88636668  1
  Si  Si169  1  0.68919672  0.33191442  0.61897505  1
  Si  Si170  1  0.19598094  0.92474303  0.61303348  1
  Si  Si171  1  0.02271686  0.33421724  0.11485667  1
  Si  Si172  1  0.97067946  0.16820183  0.38485420  1
  Si  Si173  1  0.19098685  0.41250498  0.11485008  1
  Si  Si174  1  0.68957983  0.16856817  0.11590871  1
  Si  Si175  1  0.96809443  0.33280396  0.38463759  1
  Si  Si176  1  0.47505842  0.58554121  0.38485983  1
  Si  Si177  1  0.13386219  0.41859980  0.88972330  1
  Si  Si178  1  0.96664020  0.16661618  0.88735607  1
  Si  Si179  1  0.85500630  0.91769007  0.60513567  1
  Si  Si180  1  0.36112129  0.33302114  0.11862691  1
  Si  Si181  1  0.85530341  0.41580206  0.11427405  1
  Si  Si182  1  0.02237262  0.16893546  0.11541851  1
  Si  Si183  1  0.80933932  0.08171515  0.38436550  1
  Si  Si184  1  0.69356713  0.83403773  0.11312731  1
  Si  Si185  1  0.85873585  0.57564241  0.61070745  1
  Si  Si186  1  0.47949748  0.07748015  0.89407506  1
  Si  Si187  1  0.81509782  0.58253431  0.38468794  1
  Si  Si188  1  0.52566539  0.08451011  0.11706046  1
  Si  Si189  1  0.13120234  0.41726509  0.38736855  1
  Si  Si190  1  0.30315662  0.66230523  0.38318358  1
  Si  Si191  1  0.13666953  0.58313328  0.38240430  1
  O  O192  1  0.26911752  0.12904511  0.08963551  1
  O  O193  1  0.27488866  0.12076100  0.58873537  1
  O  O194  1  0.28106712  0.60553922  0.08814986  1
  O  O195  1  0.28069410  0.60227129  0.57883366  1
  O  O196  1  0.60192250  0.12613199  0.08718947  1
  O  O197  1  0.59769944  0.12292820  0.58705607  1
  O  O198  1  0.60276945  0.62388844  0.08321795  1
  O  O199  1  0.62610948  0.61332529  0.57453182  1
  O  O200  1  0.93610635  0.12263302  0.08638432  1
  O  O201  1  0.95007410  0.12408765  0.57572470  1
  O  O202  1  0.92640261  0.61384170  0.07283573  1
  O  O203  1  0.93861441  0.59346724  0.57588236  1
  O  O204  1  0.10272881  0.36798023  0.08542200  1
  O  O205  1  0.10437192  0.36953436  0.58360575  1
  O  O206  1  0.09727546  0.88622896  0.08296926  1
  O  O207  1  0.12079240  0.87579179  0.57416724  1
  O  O208  1  0.43579748  0.37542206  0.08809816  1
  O  O209  1  0.43949807  0.36169732  0.58730148  1
  O  O210  1  0.44761868  0.87477466  0.07684780  1
  O  O211  1  0.44135473  0.87213129  0.58540506  1
  O  O212  1  0.77050758  0.36798412  0.08661000  1
  O  O213  1  0.77155020  0.36239628  0.58832766  1
  O  O214  1  0.77299081  0.87155364  0.08419721  1
  O  O215  1  0.76726347  0.86810591  0.58359989  1
  O  O216  1  0.26963369  0.37102696  0.08894797  1
  O  O217  1  0.27100887  0.36688392  0.58870769  1
  O  O218  1  0.26024795  0.88835788  0.07713058  1
  O  O219  1  0.28594127  0.90560306  0.58860608  1
  O  O220  1  0.60311746  0.37647878  0.08752246  1
  O  O221  1  0.60505390  0.37883456  0.58675789  1
  O  O222  1  0.61193542  0.88423938  0.08611646  1
  O  O223  1  0.60280888  0.87751117  0.58128365  1
  O  O224  1  0.93625442  0.38004995  0.08636235  1
  O  O225  1  0.93643098  0.37917003  0.58580655  1
  O  O226  1  0.93595549  0.89032373  0.08212969  1
  O  O227  1  0.92599638  0.88218176  0.56658305  1
  O  O228  1  0.10371386  0.13528653  0.08847535  1
  O  O229  1  0.11525655  0.14126050  0.58585145  1
  O  O230  1  0.11381455  0.62273335  0.06791786  1
  O  O231  1  0.11669116  0.61719839  0.57087948  1
  O  O232  1  0.43611590  0.12611556  0.09060094  1
  O  O233  1  0.43643287  0.12259559  0.58960615  1
  O  O234  1  0.43885147  0.62224177  0.07958529  1
  O  O235  1  0.44913878  0.64869951  0.56647441  1
  O  O236  1  0.76934288  0.13221564  0.08682390  1
  O  O237  1  0.75803545  0.13686484  0.57726674  1
  O  O238  1  0.76503004  0.62625617  0.08131745  1
  O  O239  1  0.78547401  0.63579478  0.58364993  1
  O  O240  1  0.05273568  0.11864841  0.41329253  1
  O  O241  1  0.05169002  0.12214291  0.91976701  1
  O  O242  1  0.05777208  0.62333533  0.40950504  1
  O  O243  1  0.06614804  0.63057170  0.91108964  1
  O  O244  1  0.37743823  0.10455522  0.42232344  1
  O  O245  1  0.40396992  0.10780528  0.92987358  1
  O  O246  1  0.38207110  0.60465817  0.40394270  1
  O  O247  1  0.39887398  0.61867968  0.91334854  1
  O  O248  1  0.72587940  0.10546424  0.41324878  1
  O  O249  1  0.72703889  0.10969937  0.92100590  1
  O  O250  1  0.73532887  0.60019170  0.41911341  1
  O  O251  1  0.73001941  0.61476380  0.91112816  1
  O  O252  1  0.20707302  0.36787900  0.42373791  1
  O  O253  1  0.21838202  0.38223967  0.92931583  1
  O  O254  1  0.21238687  0.87103811  0.42220212  1
  O  O255  1  0.22684388  0.85506740  0.91936389  1
  O  O256  1  0.55009220  0.36581602  0.42501368  1
  O  O257  1  0.55109703  0.37356312  0.92811944  1
  O  O258  1  0.56393930  0.85779004  0.41369379  1
  O  O259  1  0.57336262  0.85007755  0.92502365  1
  O  O260  1  0.88501296  0.36075175  0.41235671  1
  O  O261  1  0.89536250  0.37211628  0.92095823  1
  O  O262  1  0.88519628  0.86270938  0.40774271  1
  O  O263  1  0.88788303  0.86634938  0.91020121  1
  O  O264  1  0.04510160  0.38704617  0.41302811  1
  O  O265  1  0.05584075  0.37847231  0.91867371  1
  O  O266  1  0.04627967  0.89002702  0.40917309  1
  O  O267  1  0.05086781  0.87435670  0.92684364  1
  O  O268  1  0.39089499  0.40127772  0.42247141  1
  O  O269  1  0.39194787  0.41439086  0.92209319  1
  O  O270  1  0.40440185  0.88648029  0.42268269  1
  O  O271  1  0.38863977  0.86681873  0.92205292  1
  O  O272  1  0.73203809  0.40733212  0.42103360  1
  O  O273  1  0.73751661  0.38929472  0.92904953  1
  O  O274  1  0.72312145  0.89668166  0.41019846  1
  O  O275  1  0.73000601  0.88175109  0.91587407  1
  O  O276  1  0.21530772  0.13417053  0.41569939  1
  O  O277  1  0.21328047  0.13931502  0.92676764  1
  O  O278  1  0.22368361  0.62362993  0.41374388  1
  O  O279  1  0.23349666  0.61665358  0.91293713  1
  O  O280  1  0.56945980  0.14857809  0.42412231  1
  O  O281  1  0.56440035  0.12791292  0.91981107  1
  O  O282  1  0.54601243  0.64112754  0.42119869  1
  O  O283  1  0.56511762  0.63996689  0.91326932  1
  O  O284  1  0.88872669  0.13570457  0.41226690  1
  O  O285  1  0.88881395  0.13047910  0.92021411  1
  O  O286  1  0.89341909  0.63920033  0.41028840  1
  O  O287  1  0.89852615  0.62720785  0.91334314  1
  O  O288  1  0.17613578  0.00933452  0.08678097  1
  O  O289  1  0.17414450  0.00842494  0.58700336  1
  O  O290  1  0.18235837  0.49274571  0.08223792  1
  O  O291  1  0.18583329  0.48965947  0.58282502  1
  O  O292  1  0.52232099  0.00313105  0.08741211  1
  O  O293  1  0.51706399  -0.00081043  0.58650641  1
  O  O294  1  0.52098757  0.49850260  0.08424465  1
  O  O295  1  0.50274053  0.48949401  0.57646728  1
  O  O296  1  0.83926798  0.00418454  0.08505045  1
  O  O297  1  0.83184741  -0.00468463  0.56879438  1
  O  O298  1  0.83668598  0.49676103  0.08443536  1
  O  O299  1  0.82894942  0.49315031  0.58416907  1
  O  O300  1  0.00675843  0.25137838  0.08682430  1
  O  O301  1  0.01456095  0.25314511  0.58974984  1
  O  O302  1  0.00795802  0.76398372  0.07364802  1
  O  O303  1  0.00748683  0.74504663  0.55976771  1
  O  O304  1  0.35547977  0.25035937  0.09007674  1
  O  O305  1  0.35164682  0.24500151  0.58995046  1
  O  O306  1  0.33949788  0.73750614  0.07077092  1
  O  O307  1  0.32418765  0.76813758  0.57679443  1
  O  O308  1  0.67948720  0.25071093  0.08694281  1
  O  O309  1  0.66828862  0.25120545  0.58749384  1
  O  O310  1  0.68207993  0.75128915  0.08410613  1
  O  O311  1  0.68089540  0.74923961  0.58066856  1
  O  O312  1  0.14603035  0.00218758  0.41370847  1
  O  O313  1  0.15094904  0.00861331  0.92563878  1
  O  O314  1  0.13954045  0.50123009  0.41307721  1
  O  O315  1  0.13323729  0.50366264  0.91540220  1
  O  O316  1  0.51717514  -0.00865664  0.42343880  1
  O  O317  1  0.50527783  -0.00126984  0.92691928  1
  O  O318  1  0.50129444  0.50402847  0.41422650  1
  O  O319  1  0.50844306  0.50960674  0.91536485  1
  O  O320  1  0.83748478  -0.00017406  0.40878761  1
  O  O321  1  0.82577495  -0.00177418  0.91678244  1
  O  O322  1  0.85409581  0.50176768  0.40708880  1
  O  O323  1  0.83035874  0.50283365  0.91789651  1
  O  O324  1  0.32583785  0.24044510  0.42682894  1
  O  O325  1  0.33898668  0.25695192  0.93787712  1
  O  O326  1  0.32570172  0.73648454  0.42361169  1
  O  O327  1  0.31715755  0.73993283  0.91151092  1
  O  O328  1  0.69197510  0.24458350  0.41917985  1
  O  O329  1  0.66352476  0.23915539  0.92731161  1
  O  O330  1  0.68476651  0.75928147  0.41717202  1
  O  O331  1  0.67848242  0.74604572  0.91334012  1
  O  O332  1  0.98861429  0.25048047  0.41253402  1
  O  O333  1  0.97755146  0.25062462  0.91576021  1
  O  O334  1  0.99139689  0.75344537  0.40704008  1
  O  O335  1  0.97645654  0.74814998  0.91345748  1
  O  O336  1  0.20824224  0.08743051  0.19811770  1
  O  O337  1  0.21111595  0.08515695  0.69870187  1
  O  O338  1  0.19529308  0.58003190  0.18854460  1
  O  O339  1  0.21135432  0.57910157  0.68963302  1
  O  O340  1  0.54608183  0.08541517  0.19745406  1
  O  O341  1  0.54363243  0.07886291  0.69894502  1
  O  O342  1  0.54483166  0.58143908  0.19248041  1
  O  O343  1  0.54227120  0.58227700  0.69791278  1
  O  O344  1  0.87520302  0.08571151  0.19453419  1
  O  O345  1  0.87825551  0.08546597  0.70034026  1
  O  O346  1  0.87336470  0.58325797  0.19008893  1
  O  O347  1  0.87704914  0.57740180  0.69162025  1
  O  O348  1  0.04064296  0.33343513  0.19548162  1
  O  O349  1  0.04862247  0.34226066  0.69563929  1
  O  O350  1  0.03843515  0.83839063  0.19032684  1
  O  O351  1  0.04513885  0.83061560  0.69493832  1
  O  O352  1  0.37934117  0.33214618  0.19883444  1
  O  O353  1  0.37930801  0.33186384  0.69891032  1
  O  O354  1  0.38142544  0.83744088  0.19984918  1
  O  O355  1  0.37610945  0.83521434  0.69353611  1
  O  O356  1  0.71086383  0.33328725  0.19606551  1
  O  O357  1  0.70574552  0.33250924  0.69804625  1
  O  O358  1  0.71214439  0.83410609  0.19363671  1
  O  O359  1  0.69882350  0.83102283  0.69146306  1
  O  O360  1  0.20475831  0.41415824  0.19482973  1
  O  O361  1  0.21044333  0.41441864  0.69577701  1
  O  O362  1  0.20573924  0.92177412  0.19287251  1
  O  O363  1  0.21201951  0.91934491  0.69369704  1
  O  O364  1  0.54403975  0.41699465  0.19619442  1
  O  O365  1  0.54029709  0.41551723  0.69477697  1
  O  O366  1  0.54532080  0.91835432  0.19446623  1
  O  O367  1  0.54551027  0.91566779  0.69490604  1
  O  O368  1  0.87488304  0.41581224  0.19490058  1
  O  O369  1  0.87799013  0.41696529  0.69531851  1
  O  O370  1  0.87463412  0.92030034  0.19288537  1
  O  O371  1  0.88378071  0.92170218  0.68407427  1
  O  O372  1  0.03948409  0.16836406  0.19606331  1
  O  O373  1  0.04903323  0.16016988  0.69478093  1
  O  O374  1  0.04106950  0.66714279  0.19531171  1
  O  O375  1  0.04713526  0.66323912  0.69719400  1
  O  O376  1  0.37559241  0.16798602  0.19936637  1
  O  O377  1  0.37704231  0.16547298  0.70060612  1
  O  O378  1  0.38648682  0.67114178  0.18918238  1
  O  O379  1  0.38006197  0.66859743  0.69910017  1
  O  O380  1  0.70948893  0.16781612  0.19650939  1
  O  O381  1  0.70448419  0.16498446  0.69553531  1
  O  O382  1  0.71124425  0.66711741  0.19213746  1
  O  O383  1  0.71362450  0.66779285  0.68973461  1
  O  O384  1  0.11868265  0.08500128  0.30495402  1
  O  O385  1  0.12178232  0.08587556  0.81124265  1
  O  O386  1  0.11893291  0.58156659  0.30195008  1
  O  O387  1  0.12491433  0.58140549  0.80296294  1
  O  O388  1  0.45760140  0.08347797  0.30200128  1
  O  O389  1  0.45678500  0.07712770  0.81364459  1
  O  O390  1  0.46869242  0.58389060  0.30513010  1
  O  O391  1  0.45936658  0.58532008  0.80468360  1
  O  O392  1  0.79136755  0.08423807  0.30329061  1
  O  O393  1  0.78605016  0.08514228  0.80774842  1
  O  O394  1  0.79281877  0.58477867  0.30288623  1
  O  O395  1  0.79700455  0.58066538  0.80276637  1
  O  O396  1  0.28646768  0.33165913  0.30152827  1
  O  O397  1  0.28926244  0.33546082  0.80270950  1
  O  O398  1  0.28338930  0.83687548  0.29961547  1
  O  O399  1  0.28982389  0.82994895  0.80502604  1
  O  O400  1  0.62388440  0.33484857  0.30157437  1
  O  O401  1  0.62245388  0.33333178  0.80318134  1
  O  O402  1  0.62862169  0.83531952  0.30394220  1
  O  O403  1  0.62689727  0.83155738  0.80642129  1
  O  O404  1  0.95304983  0.33263075  0.30356905  1
  O  O405  1  0.95236740  0.33972033  0.80795620  1
  O  O406  1  0.95330251  0.83545075  0.29921803  1
  O  O407  1  0.96703697  0.83094219  0.80575271  1
  O  O408  1  0.11714326  0.41505529  0.30602914  1
  O  O409  1  0.12243043  0.41743702  0.80914806  1
  O  O410  1  0.11933909  0.91930475  0.30434388  1
  O  O411  1  0.12285695  0.91728186  0.79668191  1
  O  O412  1  0.45847449  0.41611604  0.31004618  1
  O  O413  1  0.45966345  0.41978110  0.80994536  1
  O  O414  1  0.46239053  0.91771407  0.30905440  1
  O  O415  1  0.45615652  0.91398492  0.79883830  1
  O  O416  1  0.79153971  0.41789971  0.30462520  1
  O  O417  1  0.78889261  0.41944921  0.81054507  1
  O  O418  1  0.79003775  0.91845728  0.30081027  1
  O  O419  1  0.78451816  0.92175422  0.80359450  1
  O  O420  1  0.28817424  0.16555124  0.31069751  1
  O  O421  1  0.28984285  0.16691631  0.80493642  1
  O  O422  1  0.27728495  0.67197087  0.30451132  1
  O  O423  1  0.28911073  0.66053972  0.80201427  1
  O  O424  1  0.62816669  0.16672376  0.30910750  1
  O  O425  1  0.62875550  0.16394990  0.81052294  1
  O  O426  1  0.62511386  0.66734180  0.29804157  1
  O  O427  1  0.62411464  0.66872742  0.80269802  1
  O  O428  1  0.95392622  0.16779341  0.30386041  1
  O  O429  1  0.94919578  0.16119702  0.80874863  1
  O  O430  1  0.95396136  0.66844389  0.29973796  1
  O  O431  1  0.95657942  0.66442902  0.80208853  1
  F  F432  1  0.04312153  0.00368980  0.20100405  1
  F  F433  1  0.04742877  0.00449308  0.70002135  1
  F  F434  1  0.04148377  0.49648580  0.19929902  1
  F  F435  1  0.04668611  0.49751484  0.70251826  1
  F  F436  1  0.37727135  0.00079854  0.20422874  1
  F  F437  1  0.37776485  0.00338416  0.70497693  1
  F  F438  1  0.38293224  0.48740856  0.20102739  1
  F  F439  1  0.38093428  0.49638166  0.70406289  1
  F  F440  1  0.71182207  0.00301636  0.20026667  1
  F  F441  1  0.70181381  0.00085269  0.69770333  1
  F  F442  1  0.71176191  0.49951865  0.20134325  1
  F  F443  1  0.71302695  0.49285707  0.70101082  1
  F  F444  1  0.20867115  0.24773866  0.20358029  1
  F  F445  1  0.21150418  0.25040135  0.70251065  1
  F  F446  1  0.19545946  0.75139390  0.19081011  1
  F  F447  1  0.21428307  0.74930517  0.70087254  1
  F  F448  1  0.54457202  0.24803292  0.20488506  1
  F  F449  1  0.54432176  0.24933848  0.70480377  1
  F  F450  1  0.54910771  0.75447668  0.19916338  1
  F  F451  1  0.54584880  0.75121525  0.70156167  1
  F  F452  1  0.87680848  0.25063085  0.20035799  1
  F  F453  1  0.86094049  0.24536749  0.69375317  1
  F  F454  1  0.87564806  0.75181246  0.19656221  1
  F  F455  1  0.88464188  0.73794344  0.69493320  1
  F  F456  1  0.28533295  0.00111520  0.29840484  1
  F  F457  1  0.28736424  -0.00119355  0.80035442  1
  F  F458  1  0.27860403  0.49115636  0.29967251  1
  F  F459  1  0.28779439  0.50166618  0.79577498  1
  F  F460  1  0.62442563  0.00006114  0.29679129  1
  F  F461  1  0.62180057  -0.00274605  0.80056707  1
  F  F462  1  0.62316178  0.50054805  0.29652551  1
  F  F463  1  0.62154850  0.49474802  0.80212411  1
  F  F464  1  0.95281249  0.00181488  0.29569402  1
  F  F465  1  0.96355854  -0.00443161  0.80020435  1
  F  F466  1  0.95351847  0.50200154  0.29364088  1
  F  F467  1  0.95610587  0.50138139  0.79755780  1
  F  F468  1  0.11685565  0.24993667  0.29886909  1
  F  F469  1  0.12974152  0.25155337  0.80409963  1
  F  F470  1  0.11582959  0.75451882  0.29416077  1
  F  F471  1  0.12589339  0.74641980  0.79688165  1
  F  F472  1  0.45531771  0.24985965  0.30139332  1
  F  F473  1  0.45406312  0.25478911  0.80606044  1
  F  F474  1  0.46479143  0.74985836  0.30098175  1
  F  F475  1  0.45680907  0.75128039  0.79838455  1
  F  F476  1  0.79024678  0.25007369  0.29734033  1
  F  F477  1  0.78522586  0.24458788  0.80272213  1
  F  F478  1  0.79050691  0.75102369  0.29390747  1
  F  F479  1  0.78708190  0.73888824  0.79849436  1
