# generated using pymatgen
data_K24Na3Li5Mg64Fe17Si79(O5F)48
_symmetry_space_group_name_H-M   'P 1'
_cell_length_a   16.09858463
_cell_length_b   18.59035927
_cell_length_c   20.55381364
_cell_angle_alpha   89.99698210
_cell_angle_beta   100.00791555
_cell_angle_gamma   89.98744157
_symmetry_Int_Tables_number   1
_chemical_formula_structural   K24Na3Li5Mg64Fe17Si79(O5F)48
_chemical_formula_sum   'K24 Na3 Li5 Mg64 Fe17 Si79 O240 F48'
_cell_volume   6057.71386086
_cell_formula_units_Z   1
loop_
 _symmetry_equiv_pos_site_id
 _symmetry_equiv_pos_as_xyz
  1  'x, y, z'
loop_
 _atom_site_type_symbol
 _atom_site_label
 _atom_site_symmetry_multiplicity
 _atom_site_fract_x
 _atom_site_fract_y
 _atom_site_fract_z
 _atom_site_occupancy
  K  K0  1  0.00102802  -0.00262009  -0.00438504  1
  K  K1  1  -0.00915833  -0.00743903  0.50523588  1
  K  K2  1  -0.00830988  0.49394836  -0.00367760  1
  K  K3  1  -0.00112681  0.50478675  0.50405496  1
  K  K4  1  0.33070651  -0.00543952  -0.01042712  1
  K  K5  1  0.33400970  0.00139627  0.50302383  1
  K  K6  1  0.33947147  0.49139242  -0.00757596  1
  K  K7  1  0.33675244  0.50983888  0.52033419  1
  K  K8  1  0.66395127  -0.00350901  -0.00161828  1
  K  K9  1  0.67616042  -0.00205913  0.50672181  1
  K  K10  1  0.65379011  0.50240419  -0.00590137  1
  K  K11  1  0.66170346  0.50400667  0.50218565  1
  K  K12  1  0.15861505  0.25415510  -0.00741812  1
  K  K13  1  0.16601828  0.25584819  0.50821600  1
  K  K14  1  0.17513259  0.75551786  -0.00759723  1
  K  K15  1  0.17620975  0.74624278  0.50776319  1
  K  K16  1  0.51046935  0.24794031  -0.00038391  1
  K  K17  1  0.50371375  0.25969751  0.51439899  1
  K  K18  1  0.50044012  0.74960208  -0.00532777  1
  K  K19  1  0.49397832  0.75356889  0.50521163  1
  K  K20  1  0.83316083  0.25698460  0.00071174  1
  K  K21  1  0.83212557  0.24568469  0.50363439  1
  K  K22  1  0.80946226  0.74609176  -0.00394124  1
  K  K23  1  0.83937820  0.75067407  0.50056840  1
  Na  Na24  1  0.49501262  0.49865916  0.74979845  1
  Na  Na25  1  0.66781656  0.41863791  0.24881825  1
  Na  Na26  1  0.16557332  0.33061573  0.75362194  1
  Li  Li27  1  0.16703833  0.00010226  0.25209283  1
  Li  Li28  1  0.49720352  0.00128051  0.74915548  1
  Li  Li29  1  0.34026483  0.58275609  0.74766933  1
  Li  Li30  1  0.17512534  0.83297918  0.74563897  1
  Li  Li31  1  0.49441053  0.33615894  0.74941973  1
  Mg  Mg32  1  0.00086723  0.75143269  0.25632336  1
  Mg  Mg33  1  0.50022209  0.00147080  0.24417686  1
  Mg  Mg34  1  0.83396469  -0.00217430  0.24693353  1
  Mg  Mg35  1  0.83062635  0.49956351  0.75440960  1
  Mg  Mg36  1  0.17088154  0.49908256  0.75224976  1
  Mg  Mg37  1  -0.00162413  0.25058707  0.75016348  1
  Mg  Mg38  1  0.66198742  0.25185888  0.74381080  1
  Mg  Mg39  1  0.33451098  0.24983041  0.24814347  1
  Mg  Mg40  1  0.66725711  0.75017922  0.25036199  1
  Mg  Mg41  1  0.83643695  -0.00105644  0.74476861  1
  Mg  Mg42  1  0.33252836  0.74864854  0.75325765  1
  Mg  Mg43  1  0.00340824  0.74923470  0.74811607  1
  Mg  Mg44  1  0.50299026  0.50109047  0.25073108  1
  Mg  Mg45  1  0.33224668  0.74979666  0.25422013  1
  Mg  Mg46  1  0.83299270  0.50133506  0.25327313  1
  Mg  Mg47  1  0.16782747  0.49977648  0.25176556  1
  Mg  Mg48  1  0.33430636  0.25078575  0.74858030  1
  Mg  Mg49  1  0.66921660  0.24881787  0.24430190  1
  Mg  Mg50  1  0.16698542  -0.00421270  0.75030071  1
  Mg  Mg51  1  0.66404362  0.75063894  0.75174468  1
  Mg  Mg52  1  0.00257352  0.24898724  0.24733323  1
  Mg  Mg53  1  0.83406191  0.83329998  0.25126858  1
  Mg  Mg54  1  0.16591187  0.33388943  0.24784036  1
  Mg  Mg55  1  0.16795548  0.16441978  0.24788049  1
  Mg  Mg56  1  0.83298976  0.33347031  0.75052837  1
  Mg  Mg57  1  0.83218096  0.16419087  0.74583154  1
  Mg  Mg58  1  0.66596899  0.91834031  0.74898504  1
  Mg  Mg59  1  0.49826481  0.66747861  0.75072640  1
  Mg  Mg60  1  0.66470394  0.08278419  0.74634501  1
  Mg  Mg61  1  0.33568531  0.41669744  0.24983322  1
  Mg  Mg62  1  0.49834986  0.83969915  0.75024857  1
  Mg  Mg63  1  0.83388859  0.83400842  0.74629145  1
  Mg  Mg64  1  0.50072741  0.66504702  0.25222357  1
  Mg  Mg65  1  0.16913227  0.66674866  0.25542792  1
  Mg  Mg66  1  0.66239364  0.41595005  0.75149388  1
  Mg  Mg67  1  0.83278771  0.33437452  0.24738496  1
  Mg  Mg68  1  0.66531018  0.08411867  0.24303228  1
  Mg  Mg69  1  0.00323676  0.91638011  0.25273438  1
  Mg  Mg70  1  0.83324396  0.66529447  0.25479546  1
  Mg  Mg71  1  0.50111238  0.16518973  0.24478756  1
  Mg  Mg72  1  0.50294180  0.33328002  0.24877965  1
  Mg  Mg73  1  -0.00044225  0.41458239  0.24826373  1
  Mg  Mg74  1  0.33323874  0.91713119  0.74893689  1
  Mg  Mg75  1  0.00389224  0.08126873  0.24716915  1
  Mg  Mg76  1  0.33416724  0.58570327  0.25337346  1
  Mg  Mg77  1  0.00101558  0.58265116  0.75259087  1
  Mg  Mg78  1  0.83152174  0.66583133  0.75268343  1
  Mg  Mg79  1  0.17162196  0.66647133  0.75223528  1
  Mg  Mg80  1  0.66694917  0.58356251  0.25155325  1
  Mg  Mg81  1  0.00226845  0.91243190  0.74554317  1
  Mg  Mg82  1  0.00087620  0.41550535  0.75359922  1
  Mg  Mg83  1  0.33255774  0.08372387  0.24873592  1
  Mg  Mg84  1  0.16514341  0.16540981  0.74754853  1
  Mg  Mg85  1  0.83268468  0.16456586  0.24422041  1
  Mg  Mg86  1  0.33118890  0.91904877  0.25288796  1
  Mg  Mg87  1  0.00172000  0.58464151  0.25568694  1
  Mg  Mg88  1  0.33451781  0.41621921  0.74973063  1
  Mg  Mg89  1  0.16829829  0.83761000  0.25558906  1
  Mg  Mg90  1  -0.00202946  0.08309297  0.74663685  1
  Mg  Mg91  1  0.66531467  0.91478264  0.24701254  1
  Mg  Mg92  1  0.49942290  0.16677025  0.74655124  1
  Mg  Mg93  1  0.49815407  0.83465613  0.24866866  1
  Mg  Mg94  1  0.33331927  0.08253458  0.74842264  1
  Mg  Mg95  1  0.66082826  0.58428724  0.75249169  1
  Fe  Fe96  1  0.35819011  0.67476572  0.61214329  1
  Fe  Fe97  1  0.97711259  0.33483037  0.89129409  1
  Fe  Fe98  1  0.02324193  0.33155495  0.10841733  1
  Fe  Fe99  1  0.98067575  0.83489669  0.39314304  1
  Fe  Fe100  1  0.80618517  0.58263899  0.39487157  1
  Fe  Fe101  1  0.30760544  0.66535995  0.39439570  1
  Fe  Fe102  1  0.68866256  0.83289751  0.10980086  1
  Fe  Fe103  1  0.46706260  0.57439214  0.89291659  1
  Fe  Fe104  1  0.86085854  0.91007538  0.60599043  1
  Fe  Fe105  1  0.52286529  0.58137805  0.11068710  1
  Fe  Fe106  1  0.31399383  0.83298539  0.89053955  1
  Fe  Fe107  1  0.85805531  0.08510751  0.60466201  1
  Fe  Fe108  1  0.69786915  0.16585930  0.10273125  1
  Fe  Fe109  1  0.51987734  0.41751424  0.61027370  1
  Fe  Fe110  1  0.18971864  0.91990481  0.60987552  1
  Fe  Fe111  1  0.51903659  0.08319573  0.10356764  1
  Fe  Fe112  1  0.63357018  0.66884581  0.89239987  1
  Si  Si113  1  0.47714451  0.92616393  0.88626583  1
  Si  Si114  1  0.14552167  0.08764540  0.38386339  1
  Si  Si115  1  0.19618465  0.08299052  0.11473493  1
  Si  Si116  1  0.97715490  0.32799901  0.38521275  1
  Si  Si117  1  0.35579446  0.66939540  0.11560034  1
  Si  Si118  1  0.64268891  0.16555557  0.38343513  1
  Si  Si119  1  0.64379160  0.32762850  0.38378785  1
  Si  Si120  1  0.35510733  0.16310939  0.61274545  1
  Si  Si121  1  0.14524685  0.92377144  0.38920814  1
  Si  Si122  1  0.13958801  0.58635194  0.88733879  1
  Si  Si123  1  0.19630904  0.41861807  0.11388986  1
  Si  Si124  1  0.30994115  0.83856408  0.38981904  1
  Si  Si125  1  0.64240034  0.84196614  0.88663742  1
  Si  Si126  1  0.80832850  0.08232742  0.38187692  1
  Si  Si127  1  0.35452006  0.83180794  0.11813078  1
  Si  Si128  1  0.03024972  0.66866165  0.11895777  1
  Si  Si129  1  0.35660993  0.33285008  0.11546754  1
  Si  Si130  1  0.69213990  0.66533784  0.61648942  1
  Si  Si131  1  0.47271687  0.92220735  0.38427533  1
  Si  Si132  1  0.97860651  0.66523189  0.39185348  1
  Si  Si133  1  0.64469949  0.16610140  0.88194031  1
  Si  Si134  1  0.80815811  0.08163705  0.88218470  1
  Si  Si135  1  0.02988462  0.82353567  0.61042911  1
  Si  Si136  1  0.85641688  0.41854033  0.61583693  1
  Si  Si137  1  0.69209597  0.33692233  0.61162437  1
  Si  Si138  1  0.69127285  0.33706495  0.11027825  1
  Si  Si139  1  0.64273182  0.32891590  0.88334364  1
  Si  Si140  1  0.36229312  0.84495987  0.61007393  1
  Si  Si141  1  0.80654000  0.58369415  0.88927890  1
  Si  Si142  1  0.47435821  0.57977999  0.38900828  1
  Si  Si143  1  0.13706250  0.91455075  0.88627250  1
  Si  Si144  1  0.31069442  0.16997072  0.38460383  1
  Si  Si145  1  0.02930864  0.16061855  0.11161918  1
  Si  Si146  1  0.53156378  0.91932960  0.61461681  1
  Si  Si147  1  0.80985924  0.91732781  0.88263046  1
  Si  Si148  1  0.51466031  0.91489293  0.11029226  1
  Si  Si149  1  0.51765487  0.41230462  0.11333076  1
  Si  Si150  1  0.02083379  0.33951923  0.61479259  1
  Si  Si151  1  0.47403858  0.09155325  0.88244267  1
  Si  Si152  1  0.97498441  0.16397207  0.88571987  1
  Si  Si153  1  0.35388856  0.17113876  0.11096368  1
  Si  Si154  1  0.81439514  0.41063910  0.38902192  1
  Si  Si155  1  0.47536022  0.08646515  0.38352041  1
  Si  Si156  1  0.63503563  0.83700719  0.38548733  1
  Si  Si157  1  0.02701564  0.17447252  0.61050766  1
  Si  Si158  1  0.86838730  0.07830049  0.11082367  1
  Si  Si159  1  0.18997051  0.41670607  0.61515247  1
  Si  Si160  1  0.48106219  0.41493327  0.38510803  1
  Si  Si161  1  0.97660287  0.16263561  0.38273529  1
  Si  Si162  1  0.03256937  0.83400328  0.11739092  1
  Si  Si163  1  0.13893185  0.07910157  0.88298680  1
  Si  Si164  1  0.18653547  0.08741318  0.61223486  1
  Si  Si165  1  0.30355752  0.16527281  0.88438150  1
  Si  Si166  1  0.19298740  0.58362990  0.11716695  1
  Si  Si167  1  0.47388702  0.40245152  0.88808940  1
  Si  Si168  1  0.02326205  0.65880101  0.61583651  1
  Si  Si169  1  0.14388273  0.41207051  0.38608299  1
  Si  Si170  1  0.52722469  0.58911453  0.61042910  1
  Si  Si171  1  0.13705301  0.57735173  0.38972372  1
  Si  Si172  1  0.31286331  0.33496160  0.38500737  1
  Si  Si173  1  0.69023269  0.82882029  0.61279880  1
  Si  Si174  1  0.97293334  0.83077181  0.88444192  1
  Si  Si175  1  0.86425448  0.58938411  0.11907652  1
  Si  Si176  1  0.80343840  0.91658103  0.38611441  1
  Si  Si177  1  0.30811524  0.32958388  0.88631302  1
  Si  Si178  1  0.80314218  0.41642491  0.88805932  1
  Si  Si179  1  0.18985025  0.58064348  0.61492100  1
  Si  Si180  1  0.63563907  0.67075409  0.39017657  1
  Si  Si181  1  0.86391460  0.91301170  0.11223314  1
  Si  Si182  1  0.69377355  0.66260942  0.11506223  1
  Si  Si183  1  0.35040911  0.32929776  0.61053309  1
  Si  Si184  1  0.14601180  0.42302237  0.88979999  1
  Si  Si185  1  0.30360151  0.66478759  0.89183256  1
  Si  Si186  1  0.52428054  0.08499066  0.61330902  1
  Si  Si187  1  0.68692948  0.17005316  0.60935449  1
  Si  Si188  1  0.85555131  0.58276016  0.61788376  1
  Si  Si189  1  0.97269015  0.66504224  0.88633576  1
  Si  Si190  1  0.19527860  0.91819917  0.11807645  1
  Si  Si191  1  0.85536269  0.42438749  0.11303172  1
  O  O192  1  0.27550648  0.11526608  0.08313321  1
  O  O193  1  0.27212383  0.11422313  0.58319234  1
  O  O194  1  0.27269244  0.61779998  0.08852465  1
  O  O195  1  0.26164439  0.61788591  0.58054465  1
  O  O196  1  0.61144816  0.10525592  0.06498978  1
  O  O197  1  0.59680946  0.12780622  0.58060829  1
  O  O198  1  0.62750665  0.60005933  0.08615587  1
  O  O199  1  0.61756448  0.61067007  0.58380609  1
  O  O200  1  0.95957341  0.09715838  0.08778817  1
  O  O201  1  0.95028832  0.12724736  0.57133937  1
  O  O202  1  0.94575586  0.62203002  0.08918311  1
  O  O203  1  0.93821852  0.60985780  0.58817175  1
  O  O204  1  0.12141831  0.36646710  0.07983788  1
  O  O205  1  0.09968103  0.37531148  0.58514974  1
  O  O206  1  0.11254353  0.86853378  0.08725762  1
  O  O207  1  0.11459107  0.84402184  0.58187004  1
  O  O208  1  0.44228098  0.35155171  0.08636324  1
  O  O209  1  0.42212821  0.36265097  0.57317639  1
  O  O210  1  0.43917546  0.85301825  0.08913650  1
  O  O211  1  0.44880714  0.87314716  0.58180188  1
  O  O212  1  0.76510451  0.38554766  0.08363702  1
  O  O213  1  0.77905847  0.36452018  0.58491815  1
  O  O214  1  0.78671107  0.86358484  0.07742661  1
  O  O215  1  0.76753622  0.84911277  0.57617758  1
  O  O216  1  0.28450252  0.39362822  0.08878981  1
  O  O217  1  0.25955893  0.37113039  0.58098159  1
  O  O218  1  0.27659750  0.88679989  0.08803655  1
  O  O219  1  0.29139397  0.90376540  0.57934844  1
  O  O220  1  0.60313210  0.38333648  0.08787861  1
  O  O221  1  0.61550546  0.38503571  0.57366504  1
  O  O222  1  0.59575760  0.89272767  0.07770922  1
  O  O223  1  0.61053457  0.88321838  0.58403596  1
  O  O224  1  0.92947438  0.39029812  0.07842202  1
  O  O225  1  0.93796043  0.38981627  0.58424163  1
  O  O226  1  0.95061866  0.88306450  0.08670492  1
  O  O227  1  0.95256367  0.87235276  0.57232831  1
  O  O228  1  0.11431307  0.13242030  0.08389216  1
  O  O229  1  0.11659089  0.15186973  0.58701169  1
  O  O230  1  0.10877718  0.63223413  0.08900489  1
  O  O231  1  0.09801904  0.62023038  0.58375067  1
  O  O232  1  0.43280250  0.15317170  0.07581720  1
  O  O233  1  0.43429514  0.12596500  0.58264158  1
  O  O234  1  0.43429555  0.64760441  0.08108363  1
  O  O235  1  0.45519048  0.64618083  0.57816140  1
  O  O236  1  0.79840963  0.13330961  0.07443400  1
  O  O237  1  0.75874379  0.13870844  0.57142615  1
  O  O238  1  0.78579102  0.64256611  0.09178954  1
  O  O239  1  0.77761143  0.63733171  0.58873194  1
  O  O240  1  0.06352308  0.11890850  0.41394585  1
  O  O241  1  0.05996183  0.11465016  0.91290865  1
  O  O242  1  0.04870145  0.59974671  0.41365525  1
  O  O243  1  0.05551060  0.61607042  0.91608071  1
  O  O244  1  0.39648697  0.12340334  0.41381993  1
  O  O245  1  0.39574729  0.12841941  0.91433145  1
  O  O246  1  0.39514874  0.59986678  0.42389897  1
  O  O247  1  0.36739398  0.60128140  0.92243618  1
  O  O248  1  0.73035709  0.12128381  0.41141473  1
  O  O249  1  0.72663060  0.11443316  0.91128498  1
  O  O250  1  0.71571885  0.62606544  0.42791252  1
  O  O251  1  0.73669036  0.61957697  0.92590232  1
  O  O252  1  0.23196024  0.36792151  0.41453739  1
  O  O253  1  0.23450297  0.37677304  0.91441498  1
  O  O254  1  0.23096589  0.87651591  0.41767030  1
  O  O255  1  0.21911383  0.87219743  0.92319697  1
  O  O256  1  0.56470571  0.36550005  0.41328361  1
  O  O257  1  0.55889713  0.35106430  0.91352859  1
  O  O258  1  0.55652352  0.87512058  0.41493810  1
  O  O259  1  0.57031452  0.88982915  0.91426657  1
  O  O260  1  0.89977731  0.36075158  0.41832736  1
  O  O261  1  0.88282078  0.36982221  0.92420090  1
  O  O262  1  0.88093789  0.86785514  0.42122978  1
  O  O263  1  0.89321154  0.86816391  0.91284316  1
  O  O264  1  0.06665929  0.37038396  0.41442485  1
  O  O265  1  0.07402207  0.38877892  0.92708269  1
  O  O266  1  0.06788285  0.90060835  0.42508890  1
  O  O267  1  0.05551833  0.87880498  0.91618293  1
  O  O268  1  0.39923716  0.38031002  0.41361335  1
  O  O269  1  0.39956481  0.36112207  0.92301327  1
  O  O270  1  0.39237302  0.89185882  0.41458012  1
  O  O271  1  0.40831637  0.89108799  0.92558384  1
  O  O272  1  0.73270686  0.36894448  0.41253512  1
  O  O273  1  0.71915340  0.38465993  0.91517304  1
  O  O274  1  0.71774357  0.88694946  0.41268058  1
  O  O275  1  0.73125982  0.88664793  0.91435811  1
  O  O276  1  0.22882499  0.13850826  0.41342661  1
  O  O277  1  0.22847593  0.12047366  0.91318505  1
  O  O278  1  0.21224324  0.62830404  0.42479782  1
  O  O279  1  0.21255528  0.64332296  0.91755619  1
  O  O280  1  0.56329357  0.12912231  0.41307763  1
  O  O281  1  0.56106724  0.13777726  0.91065691  1
  O  O282  1  0.55199624  0.63611537  0.41565066  1
  O  O283  1  0.55365123  0.63234162  0.93665003  1
  O  O284  1  0.89605448  0.12688372  0.41080849  1
  O  O285  1  0.89403026  0.12614631  0.91322831  1
  O  O286  1  0.89820912  0.64328228  0.42559333  1
  O  O287  1  0.89587158  0.62801377  0.91714798  1
  O  O288  1  0.17775863  -0.00007344  0.08745716  1
  O  O289  1  0.15273624  0.01345065  0.57633066  1
  O  O290  1  0.17647358  0.50196703  0.08744159  1
  O  O291  1  0.17869869  0.49773060  0.58270529  1
  O  O292  1  0.47409257  -0.00932621  0.08120902  1
  O  O293  1  0.51972634  0.00224168  0.58348296  1
  O  O294  1  0.48792799  0.48838153  0.07931312  1
  O  O295  1  0.50139462  0.51113543  0.57692125  1
  O  O296  1  0.84870719  -0.00439865  0.08316799  1
  O  O297  1  0.83548371  -0.00249269  0.56385411  1
  O  O298  1  0.84544933  0.50897873  0.08781984  1
  O  O299  1  0.83346487  0.50100351  0.58805408  1
  O  O300  1  0.00015859  0.23662557  0.07745664  1
  O  O301  1  0.00823350  0.25836226  0.58262123  1
  O  O302  1  0.01921478  0.75099817  0.08906213  1
  O  O303  1  0.00476977  0.73905231  0.58532601  1
  O  O304  1  0.31971792  0.25373447  0.08867406  1
  O  O305  1  0.33706048  0.24437019  0.58162145  1
  O  O306  1  0.32298675  0.75158068  0.09193370  1
  O  O307  1  0.33765086  0.76748869  0.57593631  1
  O  O308  1  0.68053123  0.26171477  0.07014067  1
  O  O309  1  0.67218691  0.25408233  0.58394188  1
  O  O310  1  0.66452590  0.73890790  0.07987757  1
  O  O311  1  0.66311179  0.74576645  0.58799948  1
  O  O312  1  0.17084234  0.00772161  0.41309267  1
  O  O313  1  0.14633016  -0.00155741  0.91579963  1
  O  O314  1  0.15393722  0.49311101  0.41649936  1
  O  O315  1  0.16368183  0.50621620  0.91932218  1
  O  O316  1  0.48794890  0.00465715  0.41339704  1
  O  O317  1  0.48902167  0.01081966  0.91352124  1
  O  O318  1  0.50256172  0.49616712  0.41342213  1
  O  O319  1  0.49225334  0.47899483  0.92492301  1
  O  O320  1  0.81666673  0.00110151  0.41248120  1
  O  O321  1  0.82700370  -0.00038655  0.91183073  1
  O  O322  1  0.82713968  0.48690138  0.42724958  1
  O  O323  1  0.82094078  0.49968836  0.91524811  1
  O  O324  1  0.32759681  0.25222272  0.41375924  1
  O  O325  1  0.30125591  0.24651124  0.91577268  1
  O  O326  1  0.33157468  0.76085694  0.42301120  1
  O  O327  1  0.33128770  0.74100761  0.92908435  1
  O  O328  1  0.65471189  0.24612450  0.41665128  1
  O  O329  1  0.66851847  0.24679575  0.91235106  1
  O  O330  1  0.64430696  0.75577691  0.41682934  1
  O  O331  1  0.65271495  0.76524085  0.92301313  1
  O  O332  1  0.99063146  0.24476931  0.41290957  1
  O  O333  1  0.99302562  0.24001621  0.92294608  1
  O  O334  1  1.01701343  0.74162131  0.42134261  1
  O  O335  1  0.98577667  0.74830757  0.91520621  1
  O  O336  1  0.21446999  0.08668120  0.19450321  1
  O  O337  1  0.20722158  0.08366491  0.69310814  1
  O  O338  1  0.20899817  0.58253779  0.19775447  1
  O  O339  1  0.20119389  0.58151281  0.69459862  1
  O  O340  1  0.54350995  0.08393747  0.19692570  1
  O  O341  1  0.54446710  0.08580811  0.69266714  1
  O  O342  1  0.54367826  0.58436941  0.20292427  1
  O  O343  1  0.54811975  0.59140996  0.69044410  1
  O  O344  1  0.88001573  0.08095875  0.19215488  1
  O  O345  1  0.87820753  0.08353248  0.69722404  1
  O  O346  1  0.88401271  0.58565442  0.19940822  1
  O  O347  1  0.87478918  0.58219526  0.69828080  1
  O  O348  1  0.04575377  0.33285688  0.20053717  1
  O  O349  1  0.03272062  0.33533881  0.69370285  1
  O  O350  1  0.04865741  0.83344358  0.19751335  1
  O  O351  1  0.03806516  0.82855875  0.69081520  1
  O  O352  1  0.37556448  0.33285979  0.19637805  1
  O  O353  1  0.36726880  0.33046743  0.69001613  1
  O  O354  1  0.37336874  0.83456962  0.19892774  1
  O  O355  1  0.38145014  0.84102579  0.69086257  1
  O  O356  1  0.71561785  0.32702256  0.19004084  1
  O  O357  1  0.71175209  0.33555725  0.69241485  1
  O  O358  1  0.71194098  0.83305005  0.20203698  1
  O  O359  1  0.71002014  0.83275910  0.69383092  1
  O  O360  1  0.21182932  0.41722703  0.19529647  1
  O  O361  1  0.20936792  0.41930445  0.69396584  1
  O  O362  1  0.21254397  0.91571984  0.19769930  1
  O  O363  1  0.21222752  0.92096583  0.70008321  1
  O  O364  1  0.53101674  0.41551476  0.19347245  1
  O  O365  1  0.54900097  0.40765790  0.69725343  1
  O  O366  1  0.53902330  0.91545300  0.19247679  1
  O  O367  1  0.54843230  0.91822474  0.69415795  1
  O  O368  1  0.87675820  0.41866477  0.19421924  1
  O  O369  1  0.87418170  0.41898533  0.69599297  1
  O  O370  1  0.87848201  0.91542964  0.19321785  1
  O  O371  1  0.87966145  0.91464501  0.69852185  1
  O  O372  1  0.04686826  0.16509066  0.19290122  1
  O  O373  1  0.03996969  0.16894259  0.69133663  1
  O  O374  1  0.04695831  0.66759894  0.19959848  1
  O  O375  1  0.04093735  0.66155089  0.69607592  1
  O  O376  1  0.37463740  0.16746089  0.19242853  1
  O  O377  1  0.37505847  0.16441310  0.69252669  1
  O  O378  1  0.37591444  0.66734851  0.19675817  1
  O  O379  1  0.37949451  0.67228936  0.70189324  1
  O  O380  1  0.71284965  0.16517294  0.19601959  1
  O  O381  1  0.70838259  0.16565015  0.69006586  1
  O  O382  1  0.71046345  0.66796422  0.19661350  1
  O  O383  1  0.71255322  0.66656311  0.69679520  1
  O  O384  1  0.12402997  0.08918111  0.30423854  1
  O  O385  1  0.12153648  0.08111294  0.80275457  1
  O  O386  1  0.12465041  0.58002503  0.30832381  1
  O  O387  1  0.12142957  0.58333572  0.80710021  1
  O  O388  1  0.45559200  0.08620038  0.30340669  1
  O  O389  1  0.45378189  0.09056025  0.80317103  1
  O  O390  1  0.45424604  0.58246223  0.30812224  1
  O  O391  1  0.45704417  0.59120932  0.80669699  1
  O  O392  1  0.79135765  0.08229824  0.30164234  1
  O  O393  1  0.78945384  0.08270067  0.80202968  1
  O  O394  1  0.78951042  0.58336372  0.30330551  1
  O  O395  1  0.79058528  0.58504794  0.80830717  1
  O  O396  1  0.29204945  0.33388866  0.30454485  1
  O  O397  1  0.29770225  0.32848061  0.80752052  1
  O  O398  1  0.29144769  0.83633127  0.30861732  1
  O  O399  1  0.29572271  0.83431799  0.80057356  1
  O  O400  1  0.62164367  0.32356417  0.30453553  1
  O  O401  1  0.63107248  0.32912261  0.80421669  1
  O  O402  1  0.61787511  0.83577053  0.30514027  1
  O  O403  1  0.62585339  0.83832289  0.80586389  1
  O  O404  1  0.95861877  0.33085373  0.30503684  1
  O  O405  1  0.95348121  0.33291343  0.79982318  1
  O  O406  1  0.95634476  0.83536060  0.30084327  1
  O  O407  1  0.95675570  0.82972837  0.80454545  1
  O  O408  1  0.12607179  0.41446565  0.30574187  1
  O  O409  1  0.11854873  0.42452847  0.81043788  1
  O  O410  1  0.12386622  0.91683487  0.30901043  1
  O  O411  1  0.11731904  0.91793742  0.80669010  1
  O  O412  1  0.45838056  0.41416729  0.30484142  1
  O  O413  1  0.44914245  0.40558018  0.80950584  1
  O  O414  1  0.45669432  0.92020633  0.30390228  1
  O  O415  1  0.45610771  0.92027891  0.80641933  1
  O  O416  1  0.80384828  0.41419935  0.30922891  1
  O  O417  1  0.78986679  0.41492522  0.80708315  1
  O  O418  1  0.78927619  0.91802770  0.30526013  1
  O  O419  1  0.79131512  0.91672143  0.80256487  1
  O  O420  1  0.29268218  0.16871677  0.30429122  1
  O  O421  1  0.28740499  0.16485741  0.80438145  1
  O  O422  1  0.28866333  0.66662121  0.30218271  1
  O  O423  1  0.28546095  0.67091118  0.81186077  1
  O  O424  1  0.62361423  0.16606493  0.30349881  1
  O  O425  1  0.62604748  0.16595989  0.80178440  1
  O  O426  1  0.62320949  0.67074357  0.30938366  1
  O  O427  1  0.62216753  0.66906319  0.80070095  1
  O  O428  1  0.95898717  0.16432941  0.30222807  1
  O  O429  1  0.95532799  0.16570122  0.80500093  1
  O  O430  1  0.95907824  0.66616986  0.30980120  1
  O  O431  1  0.95493893  0.66533053  0.80600027  1
  F  F432  1  0.04524734  -0.00208425  0.20272696  1
  F  F433  1  0.04470915  -0.00030583  0.70073716  1
  F  F434  1  0.04713678  0.50064659  0.20408952  1
  F  F435  1  0.04244863  0.49911695  0.70405004  1
  F  F436  1  0.37672825  0.00044419  0.20176162  1
  F  F437  1  0.37568414  0.00249252  0.70177828  1
  F  F438  1  0.37715373  0.50133340  0.20523120  1
  F  F439  1  0.36399184  0.49460360  0.69397553  1
  F  F440  1  0.71295488  -0.00190958  0.20014357  1
  F  F441  1  0.71285439  0.00000812  0.69844463  1
  F  F442  1  0.71890196  0.50775673  0.20022209  1
  F  F443  1  0.71375566  0.50096687  0.70401709  1
  F  F444  1  0.21302812  0.25038704  0.20245287  1
  F  F445  1  0.21513918  0.24060289  0.69865311  1
  F  F446  1  0.21018461  0.75288931  0.20515938  1
  F  F447  1  0.21338307  0.74359927  0.70106104  1
  F  F448  1  0.54488779  0.24968182  0.19946925  1
  F  F449  1  0.54701555  0.24149003  0.69374604  1
  F  F450  1  0.54402233  0.75009130  0.20462109  1
  F  F451  1  0.54629037  0.75739729  0.70249009  1
  F  F452  1  0.88199585  0.24961662  0.20133748  1
  F  F453  1  0.87620363  0.24877858  0.69928314  1
  F  F454  1  0.88097826  0.74699214  0.20485432  1
  F  F455  1  0.87846912  0.74650745  0.70291609  1
  F  F456  1  0.29531726  0.00372298  0.30131809  1
  F  F457  1  0.28724444  0.00500653  0.80145892  1
  F  F458  1  0.28825770  0.49743359  0.29982543  1
  F  F459  1  0.28473489  0.49098064  0.80277940  1
  F  F460  1  0.62163598  -0.00055860  0.29543492  1
  F  F461  1  0.63026375  0.00217814  0.79847368  1
  F  F462  1  0.61871119  0.50607862  0.30492407  1
  F  F463  1  0.63481351  0.49996658  0.80392007  1
  F  F464  1  0.95424141  0.00174330  0.29747129  1
  F  F465  1  0.95672912  -0.00070961  0.79830807  1
  F  F466  1  0.95831860  0.49712642  0.29900410  1
  F  F467  1  0.95236679  0.50048376  0.80065754  1
  F  F468  1  0.12516684  0.24818964  0.29881846  1
  F  F469  1  0.11458474  0.23748042  0.80150983  1
  F  F470  1  0.12366889  0.75097304  0.30144931  1
  F  F471  1  0.11612447  0.74298539  0.80009506  1
  F  F472  1  0.45511741  0.24818915  0.29624247  1
  F  F473  1  0.45368019  0.24461131  0.79469199  1
  F  F474  1  0.45454667  0.75182168  0.29924177  1
  F  F475  1  0.45808825  0.75771973  0.79941888  1
  F  F476  1  0.79161317  0.24901671  0.29682461  1
  F  F477  1  0.78570275  0.24736878  0.79317372  1
  F  F478  1  0.78887815  0.74968289  0.30136823  1
  F  F479  1  0.78894945  0.75227646  0.79837195  1
