# generated using pymatgen
data_K24Na3Li5Mg64Fe17Si79(O5F)48
_symmetry_space_group_name_H-M   'P 1'
_cell_length_a   16.12555256
_cell_length_b   18.65107463
_cell_length_c   20.62276569
_cell_angle_alpha   89.98862873
_cell_angle_beta   100.06446955
_cell_angle_gamma   90.00198784
_symmetry_Int_Tables_number   1
_chemical_formula_structural   K24Na3Li5Mg64Fe17Si79(O5F)48
_chemical_formula_sum   'K24 Na3 Li5 Mg64 Fe17 Si79 O240 F48'
_cell_volume   6107.03450050
_cell_formula_units_Z   1
loop_
 _symmetry_equiv_pos_site_id
 _symmetry_equiv_pos_as_xyz
  1  'x, y, z'
loop_
 _atom_site_type_symbol
 _atom_site_label
 _atom_site_symmetry_multiplicity
 _atom_site_fract_x
 _atom_site_fract_y
 _atom_site_fract_z
 _atom_site_occupancy
  K  K0  1  0.01205528  0.00771319  0.00454741  1
  K  K1  1  0.00046552  0.01668971  0.49570990  1
  K  K2  1  0.00844402  0.48901879  -0.00392707  1
  K  K3  1  0.00254718  0.48453598  0.50536833  1
  K  K4  1  0.33185889  0.00971414  0.00372027  1
  K  K5  1  0.34125934  0.00982687  0.50616835  1
  K  K6  1  0.33025900  0.48580007  -0.00288865  1
  K  K7  1  0.34112670  0.48057487  0.50791886  1
  K  K8  1  0.65772600  0.01704977  0.00164551  1
  K  K9  1  0.66686986  0.01468025  0.49493017  1
  K  K10  1  0.65900885  0.49077323  -0.01112516  1
  K  K11  1  0.66095735  0.48369636  0.50761235  1
  K  K12  1  0.17380360  0.25373952  0.01126102  1
  K  K13  1  0.18749447  0.24037387  0.49660303  1
  K  K14  1  0.17590378  0.76570185  -0.00128441  1
  K  K15  1  0.17422905  0.76283976  0.50197526  1
  K  K16  1  0.51499368  0.24004738  -0.00119560  1
  K  K17  1  0.49296778  0.24720802  0.50090509  1
  K  K18  1  0.49780074  0.75047132  -0.00639682  1
  K  K19  1  0.49872424  0.74983670  0.50411341  1
  K  K20  1  0.82436615  0.23719032  -0.00389687  1
  K  K21  1  0.82490281  0.24493554  0.49945952  1
  K  K22  1  0.82723861  0.74930286  -0.00501037  1
  K  K23  1  0.83295170  0.75487117  0.50280967  1
  Na  Na24  1  0.49461286  -0.00025205  0.74716685  1
  Na  Na25  1  0.16878766  0.17225421  0.24299977  1
  Na  Na26  1  0.66332197  0.41736252  0.75422465  1
  Li  Li27  1  0.33925450  0.24734167  0.25883552  1
  Li  Li28  1  0.50377140  0.49313428  0.75600505  1
  Li  Li29  1  0.33836638  0.08357334  0.74372752  1
  Li  Li30  1  0.00396203  0.08839292  0.24373560  1
  Li  Li31  1  0.49578944  0.17197133  0.25929409  1
  Mg  Mg32  1  -0.00195865  0.25016899  0.24860512  1
  Mg  Mg33  1  0.16823836  0.00562064  0.24058216  1
  Mg  Mg34  1  0.83779059  0.00292534  0.24722840  1
  Mg  Mg35  1  -0.00091972  0.74886433  0.74955159  1
  Mg  Mg36  1  0.83275354  0.50175967  0.25178899  1
  Mg  Mg37  1  0.33681581  0.24681626  0.75070417  1
  Mg  Mg38  1  0.66173039  0.24932497  0.25115320  1
  Mg  Mg39  1  0.33174249  0.75037441  0.74817030  1
  Mg  Mg40  1  0.33355811  0.75326171  0.24617688  1
  Mg  Mg41  1  0.00091188  0.24841421  0.75107144  1
  Mg  Mg42  1  0.16555597  0.49762757  0.75411625  1
  Mg  Mg43  1  0.16671558  0.49861523  0.25395867  1
  Mg  Mg44  1  0.50318923  0.00331722  0.24802545  1
  Mg  Mg45  1  0.83075220  0.49768820  0.75523988  1
  Mg  Mg46  1  0.66713857  0.75408171  0.24818821  1
  Mg  Mg47  1  0.00260467  0.75272695  0.24757404  1
  Mg  Mg48  1  0.83377578  -0.00049301  0.74630834  1
  Mg  Mg49  1  0.66562370  0.74714760  0.75221553  1
  Mg  Mg50  1  0.66252905  0.24752914  0.75173259  1
  Mg  Mg51  1  0.49970062  0.50080047  0.25420410  1
  Mg  Mg52  1  0.17009007  0.00106218  0.74324199  1
  Mg  Mg53  1  0.16549633  0.83457582  0.74555645  1
  Mg  Mg54  1  0.49764897  0.83245498  0.74834680  1
  Mg  Mg55  1  -0.00020007  0.41362204  0.75481795  1
  Mg  Mg56  1  0.83133491  0.16283190  0.74727063  1
  Mg  Mg57  1  0.49732190  0.83726556  0.24486682  1
  Mg  Mg58  1  0.66403027  0.08135830  0.74856842  1
  Mg  Mg59  1  0.16580451  0.66503733  0.75268009  1
  Mg  Mg60  1  0.49830332  0.66858259  0.24829506  1
  Mg  Mg61  1  0.50065582  0.33164069  0.25548690  1
  Mg  Mg62  1  0.66494241  0.41654180  0.25266708  1
  Mg  Mg63  1  -0.00054084  0.91571502  0.74328189  1
  Mg  Mg64  1  0.33700383  0.41545050  0.75298834  1
  Mg  Mg65  1  0.33250915  0.58490301  0.25096375  1
  Mg  Mg66  1  0.00051265  0.58534596  0.25080119  1
  Mg  Mg67  1  0.49981329  0.66226898  0.75320786  1
  Mg  Mg68  1  0.00383475  0.92045080  0.24615557  1
  Mg  Mg69  1  0.66636297  0.91944687  0.24729516  1
  Mg  Mg70  1  0.16672694  0.33130997  0.24864725  1
  Mg  Mg71  1  0.66356875  0.08895363  0.24840257  1
  Mg  Mg72  1  0.33333485  0.58173457  0.75178187  1
  Mg  Mg73  1  0.16860714  0.83811167  0.24497318  1
  Mg  Mg74  1  0.66576223  0.91424225  0.74877805  1
  Mg  Mg75  1  -0.00030581  0.08376411  0.74502827  1
  Mg  Mg76  1  0.33331702  0.91815898  0.24463789  1
  Mg  Mg77  1  0.32985773  0.91892283  0.74505660  1
  Mg  Mg78  1  0.33470461  0.41324344  0.25644935  1
  Mg  Mg79  1  0.83171579  0.33060812  0.75721992  1
  Mg  Mg80  1  0.83231831  0.66279857  0.75400142  1
  Mg  Mg81  1  0.16708355  0.66682163  0.25013016  1
  Mg  Mg82  1  0.33670191  0.08813210  0.24825956  1
  Mg  Mg83  1  0.83477238  0.16538986  0.24639357  1
  Mg  Mg84  1  0.66625556  0.58659230  0.25088588  1
  Mg  Mg85  1  -0.00030092  0.58248327  0.75543709  1
  Mg  Mg86  1  0.17038347  0.16562402  0.74540442  1
  Mg  Mg87  1  0.16882631  0.33433432  0.75356174  1
  Mg  Mg88  1  0.82948592  0.33506039  0.25093212  1
  Mg  Mg89  1  0.83398159  0.66869040  0.25023760  1
  Mg  Mg90  1  -0.00134606  0.41609160  0.25145693  1
  Mg  Mg91  1  0.49844141  0.16346875  0.75001739  1
  Mg  Mg92  1  0.83300670  0.83200011  0.74685270  1
  Mg  Mg93  1  0.66571862  0.58015355  0.75554551  1
  Mg  Mg94  1  0.49893660  0.33433578  0.75179997  1
  Mg  Mg95  1  0.83531692  0.83612080  0.24771055  1
  Fe  Fe96  1  0.35971649  0.33321788  0.61271097  1
  Fe  Fe97  1  0.64241337  0.33785361  0.39351204  1
  Fe  Fe98  1  0.36204902  0.82932124  0.10470992  1
  Fe  Fe99  1  0.30603000  0.32931016  0.38983765  1
  Fe  Fe100  1  0.69441479  0.16863372  0.11075047  1
  Fe  Fe101  1  0.19497384  0.92354760  0.10368978  1
  Fe  Fe102  1  0.52908255  0.91859556  0.10765197  1
  Fe  Fe103  1  0.64189510  0.33504543  0.89432700  1
  Fe  Fe104  1  0.14111086  0.41310538  0.89343447  1
  Fe  Fe105  1  0.68923406  0.32845573  0.61554468  1
  Fe  Fe106  1  0.02169977  0.16987751  0.10794870  1
  Fe  Fe107  1  0.81385635  0.58401544  0.89551232  1
  Fe  Fe108  1  0.18521622  0.91721662  0.60488809  1
  Fe  Fe109  1  0.36250305  0.15909795  0.60882257  1
  Fe  Fe110  1  0.64074664  0.16331698  0.39124487  1
  Fe  Fe111  1  0.64086155  0.16114057  0.88998386  1
  Fe  Fe112  1  0.86007867  0.08376238  0.60688787  1
  Si  Si113  1  0.19122274  0.42101682  0.61672844  1
  Si  Si114  1  0.85788747  0.57862809  0.61864293  1
  Si  Si115  1  0.35688870  0.66569870  0.61568300  1
  Si  Si116  1  0.14107497  0.58314757  0.38676172  1
  Si  Si117  1  0.18944449  0.58544966  0.61781248  1
  Si  Si118  1  0.18998136  0.57905980  0.11691759  1
  Si  Si119  1  0.18989205  0.41574240  0.11869757  1
  Si  Si120  1  0.36126565  0.33992886  0.11963816  1
  Si  Si121  1  0.97793896  0.67030504  0.38525655  1
  Si  Si122  1  0.14263479  0.08410585  0.88044507  1
  Si  Si123  1  0.97793714  0.83383427  0.38308537  1
  Si  Si124  1  0.14249569  0.58576794  0.89011195  1
  Si  Si125  1  0.81490930  0.07983072  0.38521865  1
  Si  Si126  1  0.52914338  0.90700641  0.61350833  1
  Si  Si127  1  0.81215964  0.91505740  0.38274014  1
  Si  Si128  1  0.02570731  0.66573140  0.11505166  1
  Si  Si129  1  0.01953702  0.82546136  0.61006903  1
  Si  Si130  1  0.85517057  0.91158566  0.60934733  1
  Si  Si131  1  0.86007933  0.07605305  0.10910905  1
  Si  Si132  1  0.02691857  0.33710324  0.61795884  1
  Si  Si133  1  0.14081623  0.91876188  0.38291182  1
  Si  Si134  1  0.96947343  0.33391303  0.38498047  1
  Si  Si135  1  0.63886437  0.83334094  0.88477527  1
  Si  Si136  1  0.69063208  0.66989074  0.11562728  1
  Si  Si137  1  0.81273527  0.58834001  0.38599114  1
  Si  Si138  1  0.13519930  0.41688847  0.38827030  1
  Si  Si139  1  0.47085572  0.07351539  0.38824753  1
  Si  Si140  1  0.69200767  0.66237084  0.61670658  1
  Si  Si141  1  0.97970618  0.67338419  0.88874526  1
  Si  Si142  1  0.36514189  0.17484418  0.11901478  1
  Si  Si143  1  0.13819432  0.08151500  0.37915001  1
  Si  Si144  1  0.81037367  0.42405324  0.38834621  1
  Si  Si145  1  0.02813993  0.83124958  0.11049569  1
  Si  Si146  1  0.46772157  0.58640116  0.88668559  1
  Si  Si147  1  0.18602623  0.08478418  0.60905684  1
  Si  Si148  1  0.63719650  0.66671462  0.89026789  1
  Si  Si149  1  0.69146002  0.34118467  0.11485448  1
  Si  Si150  1  0.30671149  0.16570244  0.88343363  1
  Si  Si151  1  0.97163242  0.32460810  0.89042980  1
  Si  Si152  1  0.35343625  0.66095250  0.11292063  1
  Si  Si153  1  0.14060473  0.92000336  0.87929978  1
  Si  Si154  1  0.30540886  0.83303122  0.38424060  1
  Si  Si155  1  0.69241082  0.82610922  0.61354906  1
  Si  Si156  1  0.01891064  0.33912988  0.11357604  1
  Si  Si157  1  0.53237421  0.07422554  0.61090120  1
  Si  Si158  1  0.97545096  0.15959099  0.88320043  1
  Si  Si159  1  0.46967072  0.91385922  0.88204114  1
  Si  Si160  1  0.64524188  0.66960178  0.38552159  1
  Si  Si161  1  0.81127738  0.07385869  0.88468774  1
  Si  Si162  1  0.30531992  0.83418924  0.88214882  1
  Si  Si163  1  0.02968657  0.17306135  0.61123169  1
  Si  Si164  1  0.47222541  0.42602384  0.39198871  1
  Si  Si165  1  0.81783417  0.41608962  0.89302681  1
  Si  Si166  1  0.52326786  0.42184070  0.61579284  1
  Si  Si167  1  0.97481329  0.16880678  0.38235415  1
  Si  Si168  1  0.86274284  0.91122509  0.11347710  1
  Si  Si169  1  0.19913616  0.09205998  0.10650932  1
  Si  Si170  1  0.35858321  0.83128019  0.61024908  1
  Si  Si171  1  0.85732375  0.58781914  0.11658378  1
  Si  Si172  1  0.97864726  0.83617776  0.88135926  1
  Si  Si173  1  0.02108438  0.66176301  0.61705221  1
  Si  Si174  1  0.52453619  0.58619064  0.61772836  1
  Si  Si175  1  0.85979979  0.41353778  0.61776985  1
  Si  Si176  1  0.52459710  0.42202372  0.11720157  1
  Si  Si177  1  0.30561027  0.66859196  0.38531368  1
  Si  Si178  1  0.30520622  0.67024435  0.88586131  1
  Si  Si179  1  0.69836731  0.83459105  0.11220858  1
  Si  Si180  1  0.52107920  0.08512904  0.11105168  1
  Si  Si181  1  0.68808555  0.16266087  0.61184403  1
  Si  Si182  1  0.47590921  0.59204063  0.38636363  1
  Si  Si183  1  0.85705983  0.42416403  0.11635412  1
  Si  Si184  1  0.80949061  0.90967783  0.88215011  1
  Si  Si185  1  0.47456132  0.90984973  0.38529349  1
  Si  Si186  1  0.64529512  0.83442680  0.38460873  1
  Si  Si187  1  0.30916959  0.15782621  0.38532164  1
  Si  Si188  1  0.52528675  0.58579432  0.11613996  1
  Si  Si189  1  0.46713207  0.08067498  0.88525277  1
  Si  Si190  1  0.47032196  0.41973601  0.89089052  1
  Si  Si191  1  0.30988651  0.32935832  0.89082704  1
  O  O192  1  0.28308901  0.12858040  0.08185743  1
  O  O193  1  0.26713710  0.10211480  0.57561728  1
  O  O194  1  0.27489636  0.60368719  0.08930261  1
  O  O195  1  0.26937821  0.62024843  0.58772961  1
  O  O196  1  0.59940938  0.11407346  0.07794275  1
  O  O197  1  0.61972788  0.09774628  0.58514233  1
  O  O198  1  0.60544951  0.62278362  0.08797469  1
  O  O199  1  0.60345115  0.62184927  0.58522886  1
  O  O200  1  0.94124889  0.09793782  0.07640214  1
  O  O201  1  0.95339312  0.12300756  0.57508758  1
  O  O202  1  0.93906643  0.61985191  0.08823592  1
  O  O203  1  0.93872123  0.61153799  0.58782761  1
  O  O204  1  0.10366616  0.37245138  0.08775466  1
  O  O205  1  0.10439608  0.37510870  0.58869032  1
  O  O206  1  0.10168994  0.85996924  0.07434060  1
  O  O207  1  0.09530523  0.85117057  0.57443479  1
  O  O208  1  0.43616146  0.38072742  0.08643441  1
  O  O209  1  0.44519348  0.37641503  0.57459787  1
  O  O210  1  0.46193418  0.84214611  0.07420103  1
  O  O211  1  0.44481888  0.85884028  0.58375563  1
  O  O212  1  0.77085281  0.38104731  0.08680469  1
  O  O213  1  0.78557692  0.36300830  0.58169382  1
  O  O214  1  0.78890004  0.85141360  0.08798585  1
  O  O215  1  0.77142458  0.86005477  0.58376840  1
  O  O216  1  0.27177016  0.38375538  0.09011818  1
  O  O217  1  0.26552250  0.39401705  0.58117033  1
  O  O218  1  0.27831328  0.88811585  0.06107131  1
  O  O219  1  0.27958580  0.87679626  0.57259321  1
  O  O220  1  0.60584874  0.39031322  0.08888420  1
  O  O221  1  0.60977688  0.40042650  0.59031677  1
  O  O222  1  0.63152831  0.89195309  0.07767742  1
  O  O223  1  0.60543339  0.86777065  0.58135220  1
  O  O224  1  0.94074642  0.39754323  0.08837381  1
  O  O225  1  0.94650407  0.38921487  0.59016959  1
  O  O226  1  0.94301100  0.87903940  0.08340570  1
  O  O227  1  0.93177428  0.86892101  0.58152237  1
  O  O228  1  0.12228400  0.14658864  0.07856726  1
  O  O229  1  0.11564894  0.14962221  0.58417129  1
  O  O230  1  0.10619893  0.62876030  0.08791080  1
  O  O231  1  0.10454248  0.63349032  0.58830978  1
  O  O232  1  0.44505278  0.14483485  0.08751074  1
  O  O233  1  0.45208814  0.11711505  0.57204580  1
  O  O234  1  0.43856830  0.62938080  0.08711472  1
  O  O235  1  0.43812846  0.63308709  0.58704919  1
  O  O236  1  0.78075111  0.12461868  0.07483285  1
  O  O237  1  0.76999752  0.14467518  0.57771363  1
  O  O238  1  0.77334914  0.63664020  0.08874890  1
  O  O239  1  0.77238402  0.62563368  0.58867159  1
  O  O240  1  0.06367381  0.12593829  0.40936919  1
  O  O241  1  0.06194056  0.11408654  0.91115662  1
  O  O242  1  0.06422592  0.62565943  0.41498755  1
  O  O243  1  0.06368357  0.62522649  0.91723495  1
  O  O244  1  0.38714009  0.10282109  0.41600575  1
  O  O245  1  0.38404076  0.11217040  0.91445437  1
  O  O246  1  0.39925404  0.63496558  0.41457774  1
  O  O247  1  0.39192735  0.62797981  0.91762610  1
  O  O248  1  0.74040609  0.10718162  0.42100812  1
  O  O249  1  0.73792284  0.10336770  0.92047641  1
  O  O250  1  0.73171740  0.62335835  0.41468051  1
  O  O251  1  0.71933127  0.62462440  0.92762713  1
  O  O252  1  0.21458133  0.37227720  0.42396187  1
  O  O253  1  0.23548402  0.35784976  0.92858144  1
  O  O254  1  0.23072731  0.87695044  0.41293640  1
  O  O255  1  0.22407723  0.87110050  0.90809737  1
  O  O256  1  0.55604184  0.38541202  0.42730722  1
  O  O257  1  0.55562238  0.38425326  0.92984139  1
  O  O258  1  0.56425390  0.86616047  0.41405340  1
  O  O259  1  0.56123540  0.87414661  0.91182449  1
  O  O260  1  0.89265052  0.37245171  0.41564442  1
  O  O261  1  0.88831053  0.35195822  0.91896266  1
  O  O262  1  0.89577732  0.86501330  0.41163182  1
  O  O263  1  0.89385834  0.86038910  0.91030837  1
  O  O264  1  0.05099335  0.38451461  0.41432347  1
  O  O265  1  0.05093621  0.37172225  0.92678666  1
  O  O266  1  0.06504329  0.87629595  0.41323439  1
  O  O267  1  0.05844322  0.88935984  0.90937835  1
  O  O268  1  0.39012015  0.39820061  0.41901874  1
  O  O269  1  0.39139905  0.38081271  0.91969779  1
  O  O270  1  0.39952867  0.86492893  0.41468335  1
  O  O271  1  0.39393403  0.87354601  0.91355423  1
  O  O272  1  0.73338954  0.40322032  0.42334980  1
  O  O273  1  0.73401728  0.39751561  0.92255062  1
  O  O274  1  0.73241917  0.87941283  0.41362734  1
  O  O275  1  0.73031170  0.87313052  0.91203356  1
  O  O276  1  0.22592272  0.12167103  0.41154795  1
  O  O277  1  0.22378509  0.13315593  0.91208689  1
  O  O278  1  0.23134339  0.62413928  0.41457349  1
  O  O279  1  0.22630146  0.63627059  0.91567828  1
  O  O280  1  0.55326276  0.11541136  0.42520976  1
  O  O281  1  0.55027223  0.11990385  0.92487544  1
  O  O282  1  0.56387171  0.63732303  0.41436314  1
  O  O283  1  0.55392380  0.63209718  0.91647279  1
  O  O284  1  0.90258705  0.12510052  0.41436667  1
  O  O285  1  0.90031268  0.11761495  0.91181161  1
  O  O286  1  0.89596154  0.63868194  0.41413559  1
  O  O287  1  0.90239978  0.65145149  0.92449403  1
  O  O288  1  0.17707947  0.01596350  0.06720147  1
  O  O289  1  0.14583533  0.00860137  0.57781523  1
  O  O290  1  0.17068791  0.49795619  0.08819773  1
  O  O291  1  0.16814129  0.50483182  0.58911172  1
  O  O292  1  0.48884424  0.00878137  0.07553821  1
  O  O293  1  0.51834581  -0.01164807  0.58533593  1
  O  O294  1  0.51328842  0.50461051  0.08654577  1
  O  O295  1  0.50611767  0.50690737  0.58708271  1
  O  O296  1  0.83706756  -0.00959652  0.08415648  1
  O  O297  1  0.83925932  -0.01185185  0.57400186  1
  O  O298  1  0.83918730  0.50701219  0.08852177  1
  O  O299  1  0.84322982  0.49758920  0.58948530  1
  O  O300  1  -0.00805909  0.26520489  0.07617338  1
  O  O301  1  0.00987014  0.25705931  0.58613480  1
  O  O302  1  0.00784917  0.74646545  0.08547875  1
  O  O303  1  -0.00357077  0.74128223  0.58614908  1
  O  O304  1  0.34985065  0.25859845  0.09019310  1
  O  O305  1  0.33772185  0.24728720  0.56991235  1
  O  O306  1  0.32494565  0.73438934  0.07630832  1
  O  O307  1  0.34370465  0.74654827  0.58363267  1
  O  O308  1  0.67712415  0.26418679  0.08090592  1
  O  O309  1  0.64736221  0.23839154  0.58390067  1
  O  O310  1  0.67500192  0.75084503  0.08583116  1
  O  O311  1  0.68266987  0.74364470  0.58396571  1
  O  O312  1  0.14325215  -0.00046126  0.41350813  1
  O  O313  1  0.15877048  0.00116666  0.90807174  1
  O  O314  1  0.14301061  0.50214359  0.41624006  1
  O  O315  1  0.15840855  0.50894072  0.92583613  1
  O  O316  1  0.48154911  -0.01112742  0.41846398  1
  O  O317  1  0.47466534  -0.00496739  0.91036373  1
  O  O318  1  0.48575754  0.51258831  0.41754737  1
  O  O319  1  0.47131125  0.50550914  0.91762423  1
  O  O320  1  0.83455559  -0.00494598  0.41172868  1
  O  O321  1  0.83105679  -0.01024075  0.91117596  1
  O  O322  1  0.83814281  0.50810352  0.41375770  1
  O  O323  1  0.85406853  0.49316488  0.92553325  1
  O  O324  1  0.32556855  0.23511853  0.42183302  1
  O  O325  1  0.33001698  0.24566576  0.91606761  1
  O  O326  1  0.30430696  0.75047612  0.41500319  1
  O  O327  1  0.31415298  0.75281790  0.91372858  1
  O  O328  1  0.66795477  0.25073384  0.43264421  1
  O  O329  1  0.66467758  0.24675251  0.93404346  1
  O  O330  1  0.66182334  0.75171066  0.41488412  1
  O  O331  1  0.64411955  0.75200432  0.91657339  1
  O  O332  1  0.98243736  0.25160171  0.41384228  1
  O  O333  1  0.98640966  0.24010360  0.91464136  1
  O  O334  1  0.99222327  0.75192805  0.41408759  1
  O  O335  1  1.00730291  0.75690360  0.91100280  1
  O  O336  1  0.21875705  0.07885974  0.18573519  1
  O  O337  1  0.20178888  0.08375448  0.68955913  1
  O  O338  1  0.20726186  0.58344505  0.19739196  1
  O  O339  1  0.20761321  0.58576650  0.69797090  1
  O  O340  1  0.54624493  0.07703558  0.19074760  1
  O  O341  1  0.54764335  0.08257453  0.68989164  1
  O  O342  1  0.54400131  0.58697992  0.19670519  1
  O  O343  1  0.54654203  0.59127369  0.69657648  1
  O  O344  1  0.87333016  0.07979780  0.18968907  1
  O  O345  1  0.87946345  0.08041032  0.69848340  1
  O  O346  1  0.87654221  0.58783813  0.19717592  1
  O  O347  1  0.87917546  0.58373514  0.69832143  1
  O  O348  1  0.03751235  0.33929285  0.19429468  1
  O  O349  1  0.04335167  0.33354122  0.69801827  1
  O  O350  1  0.04494762  0.83099766  0.19165401  1
  O  O351  1  0.03957416  0.82906253  0.69099944  1
  O  O352  1  0.38410617  0.34578725  0.19811953  1
  O  O353  1  0.37523827  0.33325722  0.70443403  1
  O  O354  1  0.37733397  0.83210042  0.19818721  1
  O  O355  1  0.37418553  0.83005529  0.69080704  1
  O  O356  1  0.71208142  0.34215045  0.19531562  1
  O  O357  1  0.71870252  0.32285953  0.70474235  1
  O  O358  1  0.71300772  0.83271801  0.19347903  1
  O  O359  1  0.71015897  0.82769086  0.69369628  1
  O  O360  1  0.20774344  0.42210137  0.19823907  1
  O  O361  1  0.20905109  0.41955285  0.69722189  1
  O  O362  1  0.21269056  0.91594737  0.19614355  1
  O  O363  1  0.20708901  0.91283919  0.69596164  1
  O  O364  1  0.54305004  0.42539622  0.19712425  1
  O  O365  1  0.52850388  0.41841794  0.69436491  1
  O  O366  1  0.54768819  0.91594808  0.20049368  1
  O  O367  1  0.54949269  0.90262783  0.69254561  1
  O  O368  1  0.87535596  0.42293122  0.19706728  1
  O  O369  1  0.87831779  0.41569252  0.69845559  1
  O  O370  1  0.88059567  0.91294588  0.19398540  1
  O  O371  1  0.87502086  0.91224144  0.69037563  1
  O  O372  1  0.03194964  0.17231172  0.19543397  1
  O  O373  1  0.04339745  0.16880752  0.69214012  1
  O  O374  1  0.04367323  0.66615923  0.19576859  1
  O  O375  1  0.04134582  0.66382495  0.69736685  1
  O  O376  1  0.37896961  0.16931255  0.19753523  1
  O  O377  1  0.37939500  0.16767235  0.69849148  1
  O  O378  1  0.37431938  0.66475860  0.19422669  1
  O  O379  1  0.37374995  0.66621924  0.69568672  1
  O  O380  1  0.71463259  0.16899802  0.20191229  1
  O  O381  1  0.71202036  0.16013968  0.69294260  1
  O  O382  1  0.71008716  0.66876747  0.19624461  1
  O  O383  1  0.70945256  0.66732999  0.69639653  1
  O  O384  1  0.12064470  0.07385911  0.30109197  1
  O  O385  1  0.12295559  0.08321357  0.80029555  1
  O  O386  1  0.12284108  0.58593312  0.30640199  1
  O  O387  1  0.12353748  0.58465312  0.80895003  1
  O  O388  1  0.45638022  0.07314141  0.30856998  1
  O  O389  1  0.45343338  0.08740220  0.80693031  1
  O  O390  1  0.45733094  0.59023963  0.30601205  1
  O  O391  1  0.44923449  0.58966811  0.80751932  1
  O  O392  1  0.79632552  0.08096296  0.30507691  1
  O  O393  1  0.79201599  0.07649220  0.80417156  1
  O  O394  1  0.79168580  0.58911348  0.30565808  1
  O  O395  1  0.79008736  0.58482291  0.80405070  1
  O  O396  1  0.28357470  0.33570160  0.30010230  1
  O  O397  1  0.28751265  0.33429739  0.81054911  1
  O  O398  1  0.28839651  0.83039554  0.30473576  1
  O  O399  1  0.28770114  0.83026050  0.80221030  1
  O  O400  1  0.62378836  0.33783994  0.30147498  1
  O  O401  1  0.61514414  0.32400030  0.80552737  1
  O  O402  1  0.62764642  0.83232125  0.30493372  1
  O  O403  1  0.62325189  0.83082852  0.80461854  1
  O  O404  1  0.95135694  0.33734388  0.30487658  1
  O  O405  1  0.95902931  0.32914935  0.80950767  1
  O  O406  1  0.95925552  0.83171650  0.30304472  1
  O  O407  1  0.95744313  0.83384920  0.80090501  1
  O  O408  1  0.11868565  0.42138824  0.30760616  1
  O  O409  1  0.12096854  0.41627688  0.80210113  1
  O  O410  1  0.12251666  0.91290567  0.30350067  1
  O  O411  1  0.11926472  0.91534648  0.79964520  1
  O  O412  1  0.45826673  0.42495186  0.31066031  1
  O  O413  1  0.45342585  0.41742725  0.81144918  1
  O  O414  1  0.45637257  0.91152347  0.30587969  1
  O  O415  1  0.44937934  0.90549308  0.80312806  1
  O  O416  1  0.79133125  0.42328423  0.30741307  1
  O  O417  1  0.80556419  0.41713624  0.81280873  1
  O  O418  1  0.79127224  0.91319744  0.30288149  1
  O  O419  1  0.79114912  0.91001844  0.80184814  1
  O  O420  1  0.29733843  0.16175967  0.30677388  1
  O  O421  1  0.28477409  0.17011069  0.80443403  1
  O  O422  1  0.28875631  0.66755009  0.30511663  1
  O  O423  1  0.28791316  0.66798233  0.80551226  1
  O  O424  1  0.62097957  0.16715680  0.30081328  1
  O  O425  1  0.62212700  0.16130420  0.79845626  1
  O  O426  1  0.62640031  0.66922762  0.30542025  1
  O  O427  1  0.62305308  0.66847292  0.80962660  1
  O  O428  1  0.95105776  0.17272892  0.30367082  1
  O  O429  1  0.95942305  0.16281150  0.80318097  1
  O  O430  1  0.95886518  0.66855595  0.30499461  1
  O  O431  1  0.95877388  0.66846762  0.80763217  1
  F  F432  1  0.04934594  -0.00846441  0.19388393  1
  F  F433  1  0.04353475  -0.00143406  0.69849958  1
  F  F434  1  0.04423174  0.50345847  0.20442807  1
  F  F435  1  0.04411111  0.50304161  0.70438486  1
  F  F436  1  0.38261257  -0.00074509  0.20167430  1
  F  F437  1  0.36448639  -0.00701343  0.69126110  1
  F  F438  1  0.37860971  0.50395187  0.20645541  1
  F  F439  1  0.36772496  0.50210130  0.70293068  1
  F  F440  1  0.71594714  -0.00054853  0.20345131  1
  F  F441  1  0.71411234  -0.00734256  0.69932569  1
  F  F442  1  0.71245518  0.50580614  0.20434755  1
  F  F443  1  0.71703994  0.50963497  0.70080490  1
  F  F444  1  0.20216558  0.26740334  0.18592895  1
  F  F445  1  0.21096025  0.25371034  0.70300661  1
  F  F446  1  0.21056315  0.74737749  0.20172958  1
  F  F447  1  0.20926029  0.74639060  0.70080135  1
  F  F448  1  0.54729734  0.26329508  0.19705269  1
  F  F449  1  0.54064156  0.24898168  0.70162245  1
  F  F450  1  0.54752533  0.74833466  0.20280177  1
  F  F451  1  0.54463170  0.74653409  0.70376526  1
  F  F452  1  0.87490477  0.25594107  0.20167445  1
  F  F453  1  0.88162528  0.24905084  0.70557955  1
  F  F454  1  0.88019852  0.74900586  0.20197977  1
  F  F455  1  0.87765498  0.74621884  0.70231960  1
  F  F456  1  0.28828649  -0.00111866  0.29457468  1
  F  F457  1  0.28242058  -0.00753930  0.79929444  1
  F  F458  1  0.28693190  0.50573081  0.30118504  1
  F  F459  1  0.28499419  0.50270004  0.80199527  1
  F  F460  1  0.62598753  0.00003333  0.29952559  1
  F  F461  1  0.63358246  -0.00592080  0.79913418  1
  F  F462  1  0.62259958  0.50696459  0.30001096  1
  F  F463  1  0.61673355  0.51232327  0.80776221  1
  F  F464  1  0.95304805  -0.00900594  0.29830734  1
  F  F465  1  0.95632872  -0.00574768  0.79506640  1
  F  F466  1  0.95419953  0.50509123  0.29952238  1
  F  F467  1  0.95702769  0.50034231  0.80059161  1
  F  F468  1  0.11207384  0.26351049  0.30188733  1
  F  F469  1  0.12135550  0.24772658  0.79735872  1
  F  F470  1  0.12175481  0.74979905  0.29732272  1
  F  F471  1  0.12033711  0.75090402  0.79609886  1
  F  F472  1  0.45880391  0.25701281  0.30548843  1
  F  F473  1  0.45517268  0.24871175  0.80233850  1
  F  F474  1  0.45583497  0.74841908  0.29816569  1
  F  F475  1  0.45243886  0.74875996  0.79681000  1
  F  F476  1  0.78870447  0.25493341  0.29936735  1
  F  F477  1  0.79357246  0.24068190  0.80266765  1
  F  F478  1  0.79022998  0.75135812  0.29787884  1
  F  F479  1  0.78862427  0.75041799  0.79811836  1
