# generated using pymatgen
data_K24Na3Li5Mg64Fe17Si79(O5F)48
_symmetry_space_group_name_H-M   'P 1'
_cell_length_a   16.10297047
_cell_length_b   18.62066869
_cell_length_c   20.57702819
_cell_angle_alpha   89.99706257
_cell_angle_beta   100.01850396
_cell_angle_gamma   90.00351042
_symmetry_Int_Tables_number   1
_chemical_formula_structural   K24Na3Li5Mg64Fe17Si79(O5F)48
_chemical_formula_sum   'K24 Na3 Li5 Mg64 Fe17 Si79 O240 F48'
_cell_volume   6075.90010732
_cell_formula_units_Z   1
loop_
 _symmetry_equiv_pos_site_id
 _symmetry_equiv_pos_as_xyz
  1  'x, y, z'
loop_
 _atom_site_type_symbol
 _atom_site_label
 _atom_site_symmetry_multiplicity
 _atom_site_fract_x
 _atom_site_fract_y
 _atom_site_fract_z
 _atom_site_occupancy
  K  K0  1  0.00050912  -0.00827219  -0.01299198  1
  K  K1  1  0.00250827  -0.00390226  0.50783261  1
  K  K2  1  -0.00791022  0.49689619  -0.00235677  1
  K  K3  1  -0.02271719  0.50381386  0.49252452  1
  K  K4  1  0.32811988  -0.00365096  -0.01255642  1
  K  K5  1  0.33634773  -0.00605412  0.50713002  1
  K  K6  1  0.33555346  0.49818536  0.00414276  1
  K  K7  1  0.33522700  0.51196609  0.49855775  1
  K  K8  1  0.67051510  -0.00450903  -0.00671753  1
  K  K9  1  0.66908165  -0.00298217  0.51003812  1
  K  K10  1  0.67440277  0.51304283  -0.00262329  1
  K  K11  1  0.67404856  0.49706596  0.49982882  1
  K  K12  1  0.15549221  0.25263391  -0.01089740  1
  K  K13  1  0.15325506  0.25850628  0.50571958  1
  K  K14  1  0.16474172  0.74626618  -0.00646708  1
  K  K15  1  0.15646566  0.74213285  0.50723530  1
  K  K16  1  0.50303056  0.25646177  0.00402453  1
  K  K17  1  0.51705510  0.25442291  0.50380433  1
  K  K18  1  0.51423442  0.74402301  -0.00363646  1
  K  K19  1  0.51563507  0.74624525  0.51283522  1
  K  K20  1  0.83798089  0.25749523  -0.01078293  1
  K  K21  1  0.82299042  0.26515513  0.50688234  1
  K  K22  1  0.83372064  0.73729845  -0.00622151  1
  K  K23  1  0.84842183  0.75238241  0.50932068  1
  Na  Na24  1  0.66311033  0.25110532  0.25564834  1
  Na  Na25  1  0.50361265  0.33007807  0.25128849  1
  Na  Na26  1  0.83559698  0.16931907  0.74671828  1
  Li  Li27  1  0.67581847  0.74278415  0.74893443  1
  Li  Li28  1  0.82850081  0.50561242  0.25587471  1
  Li  Li29  1  0.83321700  0.82984232  0.25222386  1
  Li  Li30  1  0.82543119  0.66923376  0.74964754  1
  Li  Li31  1  0.67118558  0.42059405  0.75024419  1
  Mg  Mg32  1  0.50249596  0.49868832  0.24901150  1
  Mg  Mg33  1  0.33492145  0.24946286  0.75151990  1
  Mg  Mg34  1  0.50538649  0.50078373  0.74874880  1
  Mg  Mg35  1  0.83053496  0.50381341  0.75295652  1
  Mg  Mg36  1  0.16398956  0.50080248  0.24562754  1
  Mg  Mg37  1  0.32969638  0.74773356  0.24589502  1
  Mg  Mg38  1  0.83579310  -0.00027905  0.74562035  1
  Mg  Mg39  1  -0.00066305  0.75017531  0.74792909  1
  Mg  Mg40  1  0.33596327  0.75076311  0.75089898  1
  Mg  Mg41  1  -0.00496838  0.74780898  0.24893770  1
  Mg  Mg42  1  0.83082055  -0.00230494  0.25098818  1
  Mg  Mg43  1  0.33376178  0.24944829  0.24968784  1
  Mg  Mg44  1  0.49791469  -0.00234116  0.25055710  1
  Mg  Mg45  1  0.50393531  -0.00089417  0.74958783  1
  Mg  Mg46  1  0.66998823  0.25389011  0.74858926  1
  Mg  Mg47  1  -0.00127189  0.25003626  0.75215743  1
  Mg  Mg48  1  0.16393957  -0.00006139  0.24892156  1
  Mg  Mg49  1  0.16810951  -0.00110213  0.75265494  1
  Mg  Mg50  1  0.66938173  0.75041230  0.24901589  1
  Mg  Mg51  1  -0.00381503  0.25084128  0.25018830  1
  Mg  Mg52  1  0.16768268  0.50012776  0.75199253  1
  Mg  Mg53  1  -0.00320031  0.08359181  0.24956914  1
  Mg  Mg54  1  0.16901355  0.83356424  0.75265225  1
  Mg  Mg55  1  0.33660624  0.91510882  0.75250050  1
  Mg  Mg56  1  0.16581396  0.33449551  0.75099605  1
  Mg  Mg57  1  0.49854185  0.83271124  0.24920819  1
  Mg  Mg58  1  0.16123606  0.66320826  0.24641678  1
  Mg  Mg59  1  0.50324675  0.33522482  0.74799351  1
  Mg  Mg60  1  0.32973296  0.91429123  0.24911831  1
  Mg  Mg61  1  0.50567097  0.66736273  0.74757921  1
  Mg  Mg62  1  0.33610367  0.41598594  0.74955790  1
  Mg  Mg63  1  0.33025926  0.58334252  0.24467178  1
  Mg  Mg64  1  -0.00534049  0.91442099  0.24886246  1
  Mg  Mg65  1  0.00202997  0.08478219  0.75005474  1
  Mg  Mg66  1  0.49945146  0.66505296  0.24605526  1
  Mg  Mg67  1  0.83419610  0.66673665  0.25194960  1
  Mg  Mg68  1  0.16080040  0.83306572  0.24684443  1
  Mg  Mg69  1  0.66942334  0.41957999  0.24968795  1
  Mg  Mg70  1  0.50659011  0.83284133  0.75171528  1
  Mg  Mg71  1  0.16450291  0.16612531  0.24906767  1
  Mg  Mg72  1  0.66481612  0.08278444  0.25224591  1
  Mg  Mg73  1  -0.00144621  0.41662055  0.75197237  1
  Mg  Mg74  1  -0.00245512  0.58564006  0.75002792  1
  Mg  Mg75  1  0.33376290  0.41571739  0.24737944  1
  Mg  Mg76  1  0.16497627  0.16529829  0.75193191  1
  Mg  Mg77  1  -0.00465249  0.58420877  0.25203305  1
  Mg  Mg78  1  0.00042293  0.91412894  0.75070502  1
  Mg  Mg79  1  0.82997520  0.16644044  0.25116624  1
  Mg  Mg80  1  0.33735080  0.58405168  0.75067475  1
  Mg  Mg81  1  0.82858802  0.33622928  0.25119296  1
  Mg  Mg82  1  0.49973978  0.16428333  0.25195563  1
  Mg  Mg83  1  0.83182330  0.82959609  0.74533554  1
  Mg  Mg84  1  0.66790605  0.91431339  0.25097584  1
  Mg  Mg85  1  0.66753743  0.58470425  0.74963189  1
  Mg  Mg86  1  0.66827705  0.58483920  0.25046237  1
  Mg  Mg87  1  0.33501244  0.08474998  0.75235639  1
  Mg  Mg88  1  -0.00761209  0.41751382  0.24877384  1
  Mg  Mg89  1  0.50442942  0.16670073  0.74738771  1
  Mg  Mg90  1  0.66911680  0.08394663  0.74641187  1
  Mg  Mg91  1  0.16438330  0.33406865  0.24617231  1
  Mg  Mg92  1  0.33164027  0.08305879  0.25040459  1
  Mg  Mg93  1  0.66828495  0.91193764  0.74780736  1
  Mg  Mg94  1  0.16827293  0.66618357  0.75074529  1
  Mg  Mg95  1  0.83278324  0.33677911  0.75165068  1
  Fe  Fe96  1  0.69391006  0.17067407  0.60937412  1
  Fe  Fe97  1  0.64052030  0.67092786  0.88964200  1
  Fe  Fe98  1  0.02917910  0.16852480  0.60994935  1
  Fe  Fe99  1  0.14375372  0.07898738  0.89260711  1
  Fe  Fe100  1  0.97589572  0.33409003  0.89223740  1
  Fe  Fe101  1  0.19760090  0.58188122  0.10554749  1
  Fe  Fe102  1  0.85851323  0.91711881  0.60908086  1
  Fe  Fe103  1  0.63624997  0.33404056  0.39582529  1
  Fe  Fe104  1  0.86200429  0.57728241  0.11320703  1
  Fe  Fe105  1  0.02658623  0.66877855  0.10638951  1
  Fe  Fe106  1  0.53228784  0.58319489  0.10937911  1
  Fe  Fe107  1  0.97722486  0.66976141  0.39371577  1
  Fe  Fe108  1  0.52509709  0.91437676  0.61021885  1
  Fe  Fe109  1  0.31734149  0.82763136  0.89155509  1
  Fe  Fe110  1  0.80504137  0.41894525  0.39081695  1
  Fe  Fe111  1  0.52144302  0.58382592  0.60642817  1
  Fe  Fe112  1  0.03261189  0.83276258  0.61047858  1
  Si  Si113  1  0.35791937  0.16396571  0.11491388  1
  Si  Si114  1  0.97423798  0.16448848  0.38488856  1
  Si  Si115  1  0.46450886  0.42369619  0.38703942  1
  Si  Si116  1  0.01846228  0.83974014  0.11071999  1
  Si  Si117  1  0.80561195  0.41886854  0.88769513  1
  Si  Si118  1  0.02244040  0.32852306  0.11344657  1
  Si  Si119  1  0.85452523  0.92107777  0.11535574  1
  Si  Si120  1  0.97957202  0.83912297  0.38657321  1
  Si  Si121  1  0.35411882  0.83483810  0.11362930  1
  Si  Si122  1  0.85968117  0.58494572  0.61749330  1
  Si  Si123  1  0.52287238  0.08047350  0.11554363  1
  Si  Si124  1  0.64500096  0.16793633  0.88494116  1
  Si  Si125  1  0.69479989  0.82881030  0.60957246  1
  Si  Si126  1  0.14196565  0.57643740  0.38705067  1
  Si  Si127  1  0.47887801  0.92524485  0.89008103  1
  Si  Si128  1  0.20120048  0.08503380  0.61413553  1
  Si  Si129  1  0.97163868  0.82987481  0.88540818  1
  Si  Si130  1  0.86323142  0.08321294  0.60940059  1
  Si  Si131  1  0.97552345  0.16267710  0.89217975  1
  Si  Si132  1  0.35679931  0.32884313  0.61454340  1
  Si  Si133  1  0.20051338  0.91976620  0.61512061  1
  Si  Si134  1  0.14300051  0.90785084  0.89190035  1
  Si  Si135  1  0.14708595  0.42051938  0.88842828  1
  Si  Si136  1  0.52226641  0.91585669  0.11422661  1
  Si  Si137  1  0.68942014  0.83611737  0.11558438  1
  Si  Si138  1  0.63959940  0.83626110  0.38547110  1
  Si  Si139  1  0.35312198  0.67184725  0.61393533  1
  Si  Si140  1  0.51662913  0.41587880  0.61169572  1
  Si  Si141  1  0.80793752  0.08114181  0.38666943  1
  Si  Si142  1  0.18935672  0.40970614  0.10938622  1
  Si  Si143  1  0.14185890  0.92210727  0.38405906  1
  Si  Si144  1  0.80803956  0.91632653  0.38472709  1
  Si  Si145  1  0.52439440  0.08410949  0.61041930  1
  Si  Si146  1  0.35731142  0.32896879  0.11438597  1
  Si  Si147  1  0.97509717  0.33092563  0.38661647  1
  Si  Si148  1  0.02761782  0.66008731  0.61382742  1
  Si  Si149  1  0.30495802  0.33349645  0.38304981  1
  Si  Si150  1  0.02308617  0.34006315  0.61341223  1
  Si  Si151  1  0.30842364  0.16868890  0.38455585  1
  Si  Si152  1  0.19027322  0.08415086  0.11451218  1
  Si  Si153  1  0.52455266  0.41493486  0.11099056  1
  Si  Si154  1  0.68899905  0.34054569  0.61493398  1
  Si  Si155  1  0.47917051  0.41319048  0.88428412  1
  Si  Si156  1  0.14364095  0.58621034  0.88493803  1
  Si  Si157  1  0.14276517  0.08636528  0.38470312  1
  Si  Si158  1  0.47901913  0.09081495  0.88583932  1
  Si  Si159  1  0.64291926  0.84096017  0.88946298  1
  Si  Si160  1  0.14055353  0.41184224  0.38215832  1
  Si  Si161  1  0.63659964  0.15604793  0.38937981  1
  Si  Si162  1  0.36034600  0.83322220  0.61568885  1
  Si  Si163  1  0.80937606  0.91698428  0.88446524  1
  Si  Si164  1  0.47361791  0.57702487  0.88591920  1
  Si  Si165  1  0.18886914  0.91884265  0.11361779  1
  Si  Si166  1  0.31198659  0.33665939  0.88549767  1
  Si  Si167  1  0.36580466  0.67056864  0.10963628  1
  Si  Si168  1  0.85371124  0.08425771  0.11451376  1
  Si  Si169  1  0.97651889  0.66509856  0.88369155  1
  Si  Si170  1  0.46903731  0.07730106  0.38606741  1
  Si  Si171  1  0.19422147  0.41615854  0.61537285  1
  Si  Si172  1  0.30169387  0.66704478  0.38293227  1
  Si  Si173  1  0.70033347  0.67153291  0.11283129  1
  Si  Si174  1  0.36352620  0.16631174  0.61627004  1
  Si  Si175  1  0.30183484  0.83132461  0.38345243  1
  Si  Si176  1  0.46807731  0.58867449  0.38315576  1
  Si  Si177  1  0.31377240  0.65929389  0.88660467  1
  Si  Si178  1  0.31185695  0.17075455  0.88911269  1
  Si  Si179  1  0.68870310  0.16331136  0.11635594  1
  Si  Si180  1  0.63445053  0.67134276  0.38526214  1
  Si  Si181  1  0.69425557  0.66272628  0.61265776  1
  Si  Si182  1  0.64209887  0.33187085  0.88316959  1
  Si  Si183  1  0.19514621  0.58008681  0.61630491  1
  Si  Si184  1  0.85682090  0.42266107  0.61780298  1
  Si  Si185  1  0.68988633  0.32910476  0.11365163  1
  Si  Si186  1  0.80642487  0.08039068  0.88336717  1
  Si  Si187  1  0.02190244  0.16345264  0.11478160  1
  Si  Si188  1  0.80151202  0.59330204  0.39168083  1
  Si  Si189  1  0.85398491  0.40657104  0.11065000  1
  Si  Si190  1  0.46902271  0.91274769  0.38471433  1
  Si  Si191  1  0.80937663  0.58364889  0.88732329  1
  O  O192  1  0.26912911  0.12112113  0.08583033  1
  O  O193  1  0.28969678  0.10848388  0.58761840  1
  O  O194  1  0.29733817  0.61211146  0.07626978  1
  O  O195  1  0.26894182  0.62150773  0.58561747  1
  O  O196  1  0.60262915  0.11606643  0.08642634  1
  O  O197  1  0.60274703  0.10854161  0.57574392  1
  O  O198  1  0.62620291  0.61835860  0.07718813  1
  O  O199  1  0.61783710  0.61301429  0.57313410  1
  O  O200  1  0.93583695  0.11753803  0.08634485  1
  O  O201  1  0.94854612  0.10003980  0.57764752  1
  O  O202  1  0.95014836  0.60000670  0.07003262  1
  O  O203  1  0.94313843  0.61158201  0.58748502  1
  O  O204  1  0.10550146  0.35759410  0.08506441  1
  O  O205  1  0.10378641  0.37911022  0.58482049  1
  O  O206  1  0.10088845  0.87791568  0.08396003  1
  O  O207  1  0.12879698  0.86704957  0.57767513  1
  O  O208  1  0.43826481  0.36343992  0.08683972  1
  O  O209  1  0.43822898  0.35689387  0.58402042  1
  O  O210  1  0.43507334  0.87109665  0.08607442  1
  O  O211  1  0.43721552  0.84943274  0.57692787  1
  O  O212  1  0.77197063  0.35343794  0.08067779  1
  O  O213  1  0.77096043  0.37819455  0.58865842  1
  O  O214  1  0.76823728  0.87522225  0.08677248  1
  O  O215  1  0.77496293  0.85026739  0.57522058  1
  O  O216  1  0.26877841  0.36924230  0.08126016  1
  O  O217  1  0.27026462  0.37476103  0.58569971  1
  O  O218  1  0.27018150  0.88451640  0.08607979  1
  O  O219  1  0.28896435  0.89559241  0.59059969  1
  O  O220  1  0.60186912  0.37169767  0.08195931  1
  O  O221  1  0.60397455  0.38972418  0.58721748  1
  O  O222  1  0.60246501  0.88254149  0.08486482  1
  O  O223  1  0.61538644  0.87853621  0.57389518  1
  O  O224  1  0.93686943  0.37150144  0.08113773  1
  O  O225  1  0.93869970  0.39034665  0.58852031  1
  O  O226  1  0.93716637  0.89425789  0.08516227  1
  O  O227  1  0.94713535  0.88910161  0.56762920  1
  O  O228  1  0.10257578  0.12770300  0.08684340  1
  O  O229  1  0.12917933  0.13907491  0.57856899  1
  O  O230  1  0.12192467  0.65053548  0.07011168  1
  O  O231  1  0.10470213  0.61643469  0.58642464  1
  O  O232  1  0.43536542  0.12429759  0.08578170  1
  O  O233  1  0.44799329  0.14533708  0.58708990  1
  O  O234  1  0.45340244  0.65781447  0.08314522  1
  O  O235  1  0.42773526  0.64649424  0.57598899  1
  O  O236  1  0.76862565  0.13058490  0.08418488  1
  O  O237  1  0.79693646  0.14824641  0.58406315  1
  O  O238  1  0.78567655  0.65284639  0.08515512  1
  O  O239  1  0.78171168  0.63705371  0.58523237  1
  O  O240  1  0.06078388  0.11745103  0.41307931  1
  O  O241  1  0.05141774  0.11092570  0.92914454  1
  O  O242  1  0.07024717  0.60725051  0.42515281  1
  O  O243  1  0.06521009  0.62226068  0.91447432  1
  O  O244  1  0.39238316  0.12062540  0.41362552  1
  O  O245  1  0.40337862  0.13071588  0.91648882  1
  O  O246  1  0.39241648  0.63016514  0.41321254  1
  O  O247  1  0.38287977  0.59488066  0.91053641  1
  O  O248  1  0.72755870  0.11380168  0.41575478  1
  O  O249  1  0.72634190  0.11652380  0.91401090  1
  O  O250  1  0.71656706  0.62611531  0.41897571  1
  O  O251  1  0.74239445  0.62398451  0.92499050  1
  O  O252  1  0.22088952  0.35903201  0.41166269  1
  O  O253  1  0.23673361  0.37682166  0.91552683  1
  O  O254  1  0.22810492  0.87601711  0.41285580  1
  O  O255  1  0.21908635  0.85382679  0.92327495  1
  O  O256  1  0.54108239  0.37673205  0.42544337  1
  O  O257  1  0.55944205  0.36117770  0.91384464  1
  O  O258  1  0.56148711  0.87781131  0.41326742  1
  O  O259  1  0.57086684  0.88906873  0.91968960  1
  O  O260  1  0.90542193  0.36462224  0.42404665  1
  O  O261  1  0.88556604  0.37395935  0.92662686  1
  O  O262  1  0.89511410  0.87265831  0.41210461  1
  O  O263  1  0.89448545  0.87006622  0.91517228  1
  O  O264  1  0.06413540  0.37523272  0.41353976  1
  O  O265  1  0.07668443  0.38583088  0.92536842  1
  O  O266  1  0.05940735  0.89618266  0.41347687  1
  O  O267  1  0.05692569  0.87486320  0.91683737  1
  O  O268  1  0.37861860  0.39032601  0.41254855  1
  O  O269  1  0.39901806  0.38023382  0.91503340  1
  O  O270  1  0.39428613  0.86780650  0.41222392  1
  O  O271  1  0.40621659  0.89155210  0.92628873  1
  O  O272  1  0.73127862  0.37914902  0.44055654  1
  O  O273  1  0.72116904  0.38376008  0.91311448  1
  O  O274  1  0.72788565  0.87918778  0.41344999  1
  O  O275  1  0.73181666  0.88528010  0.91790573  1
  O  O276  1  0.22638670  0.13569620  0.41330030  1
  O  O277  1  0.24168458  0.13543114  0.92610085  1
  O  O278  1  0.23096287  0.62160178  0.41400092  1
  O  O279  1  0.22682037  0.63470781  0.91340290  1
  O  O280  1  0.56143559  0.10864088  0.41744576  1
  O  O281  1  0.56502516  0.13591756  0.91672025  1
  O  O282  1  0.55302270  0.63529730  0.41196942  1
  O  O283  1  0.54751575  0.62832894  0.92207364  1
  O  O284  1  0.89508534  0.12733161  0.41317151  1
  O  O285  1  0.88736202  0.12996674  0.91415021  1
  O  O286  1  0.87980080  0.64407530  0.42613731  1
  O  O287  1  0.90271069  0.62225449  0.91298621  1
  O  O288  1  0.17932608  0.00201335  0.08604735  1
  O  O289  1  0.18240598  0.00250776  0.58616789  1
  O  O290  1  0.17294202  0.48605563  0.07340822  1
  O  O291  1  0.19387448  0.49806274  0.58662508  1
  O  O292  1  0.50868750  -0.00150787  0.08522914  1
  O  O293  1  0.48844071  0.00728604  0.57963038  1
  O  O294  1  0.50460880  0.49031239  0.07192632  1
  O  O295  1  0.48596166  0.49069730  0.57531558  1
  O  O296  1  0.83548570  0.00308861  0.08443378  1
  O  O297  1  0.82156978  0.00837535  0.57689132  1
  O  O298  1  0.83064649  0.48402533  0.07808798  1
  O  O299  1  0.84090029  0.50353871  0.58624486  1
  O  O300  1  0.00877988  0.24489398  0.08586553  1
  O  O301  1  0.00875155  0.26368092  0.57629136  1
  O  O302  1  -0.00420199  0.76455824  0.07514825  1
  O  O303  1  0.01810600  0.73676289  0.57779218  1
  O  O304  1  0.34920073  0.24548097  0.08500837  1
  O  O305  1  0.33415688  0.24676945  0.58718240  1
  O  O306  1  0.33399064  0.75426718  0.08534764  1
  O  O307  1  0.32042308  0.75371166  0.59103940  1
  O  O308  1  0.67055404  0.24470465  0.08757713  1
  O  O309  1  0.67100124  0.26489372  0.57652132  1
  O  O310  1  0.67423728  0.75548958  0.08597065  1
  O  O311  1  0.67211453  0.74495944  0.58495254  1
  O  O312  1  0.16361075  0.00449731  0.41229109  1
  O  O313  1  0.16219441  -0.01441351  0.92796908  1
  O  O314  1  0.16326560  0.49225535  0.41264393  1
  O  O315  1  0.16358287  0.50448182  0.91356139  1
  O  O316  1  0.46474040  -0.00553250  0.41365236  1
  O  O317  1  0.49078440  0.01000719  0.91695323  1
  O  O318  1  0.47309099  0.50796178  0.41513258  1
  O  O319  1  0.49712864  0.49403425  0.91297327  1
  O  O320  1  0.82208241  -0.00135057  0.41493766  1
  O  O321  1  0.82383476  -0.00081393  0.91643136  1
  O  O322  1  0.81853992  0.51382726  0.42392871  1
  O  O323  1  0.81674085  0.50100037  0.91774051  1
  O  O324  1  0.32580374  0.25100407  0.41195688  1
  O  O325  1  0.32549774  0.25510087  0.91544504  1
  O  O326  1  0.30208899  0.74961098  0.41237744  1
  O  O327  1  0.34766673  0.73358212  0.92183362  1
  O  O328  1  0.63907326  0.23412542  0.42150320  1
  O  O329  1  0.66238338  0.24995250  0.91501782  1
  O  O330  1  0.64282900  0.75453265  0.41500185  1
  O  O331  1  0.64928667  0.76452111  0.92661552  1
  O  O332  1  0.99373083  0.24601563  0.41251156  1
  O  O333  1  0.98929439  0.24109256  0.92821045  1
  O  O334  1  1.00613965  0.76463694  0.42397516  1
  O  O335  1  0.98174265  0.74734498  0.91529846  1
  O  O336  1  0.20822991  0.08330431  0.19522359  1
  O  O337  1  0.21625850  0.08578399  0.69503464  1
  O  O338  1  0.21022046  0.58257831  0.19839372  1
  O  O339  1  0.21277988  0.58093316  0.69672524  1
  O  O340  1  0.53966121  0.07803814  0.19570123  1
  O  O341  1  0.54187886  0.08371173  0.69225849  1
  O  O342  1  0.54481586  0.58388766  0.20112007  1
  O  O343  1  0.54137787  0.58242815  0.69723895  1
  O  O344  1  0.87413313  0.08331936  0.19495819  1
  O  O345  1  0.88550289  0.07644006  0.69039545  1
  O  O346  1  0.87675109  0.58148702  0.20359371  1
  O  O347  1  0.87961493  0.58159594  0.69685843  1
  O  O348  1  0.04182207  0.32948090  0.19399008  1
  O  O349  1  0.04743349  0.33817495  0.69400797  1
  O  O350  1  0.04074425  0.83838025  0.19186415  1
  O  O351  1  0.04993121  0.83280999  0.70271618  1
  O  O352  1  0.36640521  0.32982012  0.19363767  1
  O  O353  1  0.37445811  0.33174882  0.69499617  1
  O  O354  1  0.37343690  0.83542678  0.19444610  1
  O  O355  1  0.38119880  0.83473792  0.69648170  1
  O  O356  1  0.71156510  0.33640201  0.19220061  1
  O  O357  1  0.71012084  0.33540215  0.69471590  1
  O  O358  1  0.70326349  0.83669107  0.19500110  1
  O  O359  1  0.71192072  0.83618403  0.68989596  1
  O  O360  1  0.20816524  0.41293775  0.19061488  1
  O  O361  1  0.21196913  0.41573386  0.69586219  1
  O  O362  1  0.20742757  0.91813702  0.19438342  1
  O  O363  1  0.21311233  0.91933451  0.69603928  1
  O  O364  1  0.54572189  0.42259821  0.19022118  1
  O  O365  1  0.53056408  0.41652814  0.69156008  1
  O  O366  1  0.53933914  0.91620799  0.19479970  1
  O  O367  1  0.54549512  0.91677893  0.70181069  1
  O  O368  1  0.87939621  0.40363695  0.19012697  1
  O  O369  1  0.87714625  0.42226087  0.69771298  1
  O  O370  1  0.87566863  0.92261704  0.19486312  1
  O  O371  1  0.88064401  0.91485822  0.70126198  1
  O  O372  1  0.04149905  0.16384645  0.19529749  1
  O  O373  1  0.04662990  0.17051396  0.70163368  1
  O  O374  1  0.04370184  0.66734563  0.19935363  1
  O  O375  1  0.04742081  0.66343063  0.69452315  1
  O  O376  1  0.37263265  0.16186810  0.19508776  1
  O  O377  1  0.37866567  0.16755613  0.69694152  1
  O  O378  1  0.37588155  0.66939850  0.19159863  1
  O  O379  1  0.37492849  0.66630457  0.69465442  1
  O  O380  1  0.71126361  0.15678424  0.19535777  1
  O  O381  1  0.69972141  0.16921984  0.69898308  1
  O  O382  1  0.70920442  0.67039832  0.19394629  1
  O  O383  1  0.70909365  0.65985207  0.69161664  1
  O  O384  1  0.12356069  0.08476072  0.30405917  1
  O  O385  1  0.12770475  0.08162559  0.80135593  1
  O  O386  1  0.12359901  0.57988816  0.30671887  1
  O  O387  1  0.12555903  0.58357394  0.80448904  1
  O  O388  1  0.45143511  0.07782287  0.30536822  1
  O  O389  1  0.45984779  0.08816905  0.80564474  1
  O  O390  1  0.44990519  0.58725832  0.30300114  1
  O  O391  1  0.45627759  0.58010186  0.80521134  1
  O  O392  1  0.78985850  0.08173387  0.30585995  1
  O  O393  1  0.78694430  0.07544886  0.80460505  1
  O  O394  1  0.78295762  0.59416289  0.31128325  1
  O  O395  1  0.78864390  0.58200945  0.80782558  1
  O  O396  1  0.28702850  0.33112407  0.30258684  1
  O  O397  1  0.29264830  0.33495308  0.80513312  1
  O  O398  1  0.28567837  0.83391657  0.30300814  1
  O  O399  1  0.29210292  0.83260241  0.79997181  1
  O  O400  1  0.62992079  0.34598376  0.30882693  1
  O  O401  1  0.61958898  0.32966132  0.80411418  1
  O  O402  1  0.61982668  0.83586607  0.30508278  1
  O  O403  1  0.62330851  0.83986380  0.80994123  1
  O  O404  1  0.95796483  0.33123664  0.30570649  1
  O  O405  1  0.95900478  0.33513864  0.80118784  1
  O  O406  1  0.96452235  0.83615362  0.30652253  1
  O  O407  1  0.95678663  0.83080200  0.80598272  1
  O  O408  1  0.12313770  0.41294202  0.30180643  1
  O  O409  1  0.12749435  0.41761160  0.80741961  1
  O  O410  1  0.12396310  0.91951477  0.30348707  1
  O  O411  1  0.12753423  0.91442810  0.81089983  1
  O  O412  1  0.44868796  0.42473667  0.30701367  1
  O  O413  1  0.45690662  0.41351612  0.80413028  1
  O  O414  1  0.45210764  0.91435193  0.30404517  1
  O  O415  1  0.45786933  0.92096272  0.80970042  1
  O  O416  1  0.79018892  0.41714485  0.30043942  1
  O  O417  1  0.79608386  0.41880359  0.80823287  1
  O  O418  1  0.78654622  0.91984334  0.30513041  1
  O  O419  1  0.79022539  0.91640597  0.80489975  1
  O  O420  1  0.28705292  0.16492156  0.30410840  1
  O  O421  1  0.29312962  0.16851966  0.80816676  1
  O  O422  1  0.28681744  0.66852490  0.30273270  1
  O  O423  1  0.29274477  0.66388939  0.80549960  1
  O  O424  1  0.61566904  0.15258592  0.30923331  1
  O  O425  1  0.62245793  0.16741091  0.80544636  1
  O  O426  1  0.61919523  0.67280019  0.30510303  1
  O  O427  1  0.62165735  0.66612000  0.80024638  1
  O  O428  1  0.95734103  0.16357615  0.30430901  1
  O  O429  1  0.96853903  0.16615041  0.81252440  1
  O  O430  1  0.95631365  0.66875803  0.30310257  1
  O  O431  1  0.96539280  0.66750686  0.80469627  1
  F  F432  1  0.04394340  0.00187254  0.20172281  1
  F  F433  1  0.04981732  -0.00356784  0.70417267  1
  F  F434  1  0.04405403  0.49668411  0.20140686  1
  F  F435  1  0.04833692  0.49968981  0.70421501  1
  F  F436  1  0.37494295  -0.00155944  0.20166731  1
  F  F437  1  0.38056607  0.00184937  0.70637430  1
  F  F438  1  0.37753628  0.49902497  0.19972038  1
  F  F439  1  0.37664514  0.49892427  0.70222510  1
  F  F440  1  0.70850848  -0.00029203  0.20232065  1
  F  F441  1  0.71154415  -0.00164521  0.70099706  1
  F  F442  1  0.70696777  0.50415788  0.20233022  1
  F  F443  1  0.71419596  0.50187744  0.70245811  1
  F  F444  1  0.21004244  0.24647823  0.20065604  1
  F  F445  1  0.21451449  0.25123632  0.70466326  1
  F  F446  1  0.21029935  0.75329247  0.19997422  1
  F  F447  1  0.21323440  0.74694486  0.70266977  1
  F  F448  1  0.53276843  0.23245153  0.19190751  1
  F  F449  1  0.54267188  0.25125800  0.70049208  1
  F  F450  1  0.54408487  0.75362045  0.20222933  1
  F  F451  1  0.53751112  0.75223320  0.69871383  1
  F  F452  1  0.87925182  0.24421226  0.20046320  1
  F  F453  1  0.88410233  0.26296534  0.69871528  1
  F  F454  1  0.87691327  0.75297058  0.20285095  1
  F  F455  1  0.88443417  0.75218599  0.69744627  1
  F  F456  1  0.28541975  -0.00063664  0.29770616  1
  F  F457  1  0.29153484  0.00152027  0.80064492  1
  F  F458  1  0.28565298  0.49715667  0.29511205  1
  F  F459  1  0.28939385  0.49791952  0.79805032  1
  F  F460  1  0.61804001  -0.00380549  0.29817498  1
  F  F461  1  0.62281718  0.00471107  0.79878140  1
  F  F462  1  0.62019013  0.50337610  0.30108257  1
  F  F463  1  0.62043832  0.49935121  0.79939160  1
  F  F464  1  0.95453585  0.00130645  0.29796984  1
  F  F465  1  0.95793224  0.00074882  0.79999614  1
  F  F466  1  0.96506835  0.49675500  0.30297484  1
  F  F467  1  0.95855318  0.50191896  0.80036323  1
  F  F468  1  0.12044144  0.24836211  0.29638586  1
  F  F469  1  0.12703621  0.25409423  0.80142537  1
  F  F470  1  0.12308265  0.75298586  0.29686029  1
  F  F471  1  0.12471970  0.74629944  0.79991142  1
  F  F472  1  0.44595207  0.23606281  0.30294084  1
  F  F473  1  0.45585888  0.25056268  0.79770031  1
  F  F474  1  0.45021683  0.75161689  0.29607057  1
  F  F475  1  0.45591375  0.74945243  0.79848015  1
  F  F476  1  0.80170615  0.24772596  0.30169344  1
  F  F477  1  0.78491443  0.26127693  0.80401957  1
  F  F478  1  0.78383661  0.75186127  0.29951933  1
  F  F479  1  0.79241416  0.75324212  0.79780587  1
