# generated using pymatgen
data_K24Na3Li5Mg64Fe17Si79(O5F)48
_symmetry_space_group_name_H-M   'P 1'
_cell_length_a   16.09995627
_cell_length_b   18.60259548
_cell_length_c   20.56427119
_cell_angle_alpha   90.00532783
_cell_angle_beta   100.02191688
_cell_angle_gamma   89.98031814
_symmetry_Int_Tables_number   1
_chemical_formula_structural   K24Na3Li5Mg64Fe17Si79(O5F)48
_chemical_formula_sum   'K24 Na3 Li5 Mg64 Fe17 Si79 O240 F48'
_cell_volume   6065.03998963
_cell_formula_units_Z   1
loop_
 _symmetry_equiv_pos_site_id
 _symmetry_equiv_pos_as_xyz
  1  'x, y, z'
loop_
 _atom_site_type_symbol
 _atom_site_label
 _atom_site_symmetry_multiplicity
 _atom_site_fract_x
 _atom_site_fract_y
 _atom_site_fract_z
 _atom_site_occupancy
  K  K0  1  0.00859016  -0.00391201  0.00804495  1
  K  K1  1  0.00412779  -0.00284771  0.49795491  1
  K  K2  1  0.02033955  0.49508822  0.00629607  1
  K  K3  1  0.00296879  0.50755741  0.49968698  1
  K  K4  1  0.33131352  0.00010790  0.00103807  1
  K  K5  1  0.33272857  0.00492017  0.48183677  1
  K  K6  1  0.32816707  0.49724319  0.00855312  1
  K  K7  1  0.32463275  0.49817788  0.49021888  1
  K  K8  1  0.66264922  -0.00587762  0.00027289  1
  K  K9  1  0.65816591  -0.00821674  0.50099507  1
  K  K10  1  0.65823333  0.50681345  0.00983238  1
  K  K11  1  0.66434364  0.49507160  0.49144516  1
  K  K12  1  0.16641861  0.25166265  0.00894796  1
  K  K13  1  0.17781750  0.25666040  0.49192846  1
  K  K14  1  0.15359949  0.75167562  0.00370876  1
  K  K15  1  0.15255462  0.74353902  0.48959891  1
  K  K16  1  0.49438469  0.24363975  0.00223211  1
  K  K17  1  0.48808079  0.25480861  0.48821571  1
  K  K18  1  0.49702863  0.75174662  0.01123962  1
  K  K19  1  0.49381395  0.75540807  0.49225911  1
  K  K20  1  0.83723822  0.24746428  0.00287596  1
  K  K21  1  0.83334435  0.25500828  0.50011715  1
  K  K22  1  0.84043028  0.75520024  0.00318665  1
  K  K23  1  0.84570392  0.73852935  0.49995247  1
  Na  Na24  1  0.16687598  0.00356201  0.24877760  1
  Na  Na25  1  0.66438907  0.58155324  0.25513043  1
  Na  Na26  1  0.66646515  0.91627448  0.76064510  1
  Li  Li27  1  0.16767571  0.49792381  0.24637363  1
  Li  Li28  1  0.00091088  0.25030007  0.74644718  1
  Li  Li29  1  0.16774550  0.16500726  0.24621406  1
  Li  Li30  1  0.49941491  0.83210361  0.25758153  1
  Li  Li31  1  0.00144098  0.58349631  0.74483931  1
  Mg  Mg32  1  0.16479320  0.00181985  0.75253872  1
  Mg  Mg33  1  0.33291575  0.24999324  0.75056186  1
  Mg  Mg34  1  0.83248199  0.49955245  0.24990592  1
  Mg  Mg35  1  0.50199242  0.50113714  0.74868200  1
  Mg  Mg36  1  0.32877624  0.25029150  0.24871734  1
  Mg  Mg37  1  0.83891158  0.49759668  0.74575125  1
  Mg  Mg38  1  0.49960492  0.50011440  0.25172835  1
  Mg  Mg39  1  0.66733239  0.25161989  0.24856204  1
  Mg  Mg40  1  0.33329780  0.75302999  0.25242958  1
  Mg  Mg41  1  0.66839572  0.74953952  0.75361710  1
  Mg  Mg42  1  0.33186560  0.75093250  0.75279568  1
  Mg  Mg43  1  -0.00106767  0.74740487  0.75171033  1
  Mg  Mg44  1  0.50064303  -0.00191889  0.25591064  1
  Mg  Mg45  1  0.66706675  0.25102773  0.74583600  1
  Mg  Mg46  1  0.66311452  0.75155168  0.25455174  1
  Mg  Mg47  1  0.16511359  0.49983792  0.74363066  1
  Mg  Mg48  1  0.83085652  -0.00018466  0.75241561  1
  Mg  Mg49  1  0.49973678  -0.00258392  0.75726797  1
  Mg  Mg50  1  -0.00172274  0.74942904  0.25002061  1
  Mg  Mg51  1  0.00735970  0.24972666  0.24523970  1
  Mg  Mg52  1  0.83419500  0.00093342  0.24891766  1
  Mg  Mg53  1  0.50125598  0.83391058  0.75585652  1
  Mg  Mg54  1  0.83318715  0.16706639  0.74657779  1
  Mg  Mg55  1  0.00349997  0.41713028  0.24236727  1
  Mg  Mg56  1  0.66750288  0.08492756  0.25099907  1
  Mg  Mg57  1  0.33238129  0.58465499  0.74770873  1
  Mg  Mg58  1  0.33650552  0.91662335  0.25295765  1
  Mg  Mg59  1  0.66553955  0.08379671  0.74955785  1
  Mg  Mg60  1  0.83872776  0.66280327  0.74937045  1
  Mg  Mg61  1  0.16277920  0.66475034  0.74778784  1
  Mg  Mg62  1  0.83262161  0.83396873  0.25252741  1
  Mg  Mg63  1  0.16541925  0.33397690  0.74611775  1
  Mg  Mg64  1  0.33332169  0.08560068  0.75485531  1
  Mg  Mg65  1  0.66943095  0.41464239  0.74594747  1
  Mg  Mg66  1  0.83490616  0.33089381  0.74341044  1
  Mg  Mg67  1  0.33188897  0.41616922  0.74702560  1
  Mg  Mg68  1  0.50016424  0.16469770  0.75233462  1
  Mg  Mg69  1  0.33110575  0.58406524  0.25060405  1
  Mg  Mg70  1  0.00436183  0.08488378  0.24808119  1
  Mg  Mg71  1  0.66489400  0.41616894  0.25000863  1
  Mg  Mg72  1  0.83328455  0.83344412  0.75398637  1
  Mg  Mg73  1  0.33083830  0.08418140  0.25149522  1
  Mg  Mg74  1  0.83632480  0.16716212  0.24742536  1
  Mg  Mg75  1  0.49934256  0.16645471  0.25278868  1
  Mg  Mg76  1  -0.00309794  0.91519428  0.75136365  1
  Mg  Mg77  1  0.83108211  0.66509606  0.25339001  1
  Mg  Mg78  1  0.50363703  0.66771944  0.75328364  1
  Mg  Mg79  1  -0.00060318  0.58305306  0.24873444  1
  Mg  Mg80  1  0.66555480  0.91613628  0.25606243  1
  Mg  Mg81  1  0.16369653  0.66390018  0.24859401  1
  Mg  Mg82  1  0.50004510  0.67044819  0.25278665  1
  Mg  Mg83  1  0.67125921  0.58263467  0.75080187  1
  Mg  Mg84  1  0.16559561  0.33437835  0.24699543  1
  Mg  Mg85  1  -0.00031134  0.91624892  0.24996216  1
  Mg  Mg86  1  0.50029297  0.33504150  0.74657043  1
  Mg  Mg87  1  0.16456279  0.83519096  0.25033585  1
  Mg  Mg88  1  0.49739382  0.33640026  0.24832639  1
  Mg  Mg89  1  0.33076197  0.41805510  0.25051382  1
  Mg  Mg90  1  0.00121282  0.41435493  0.74334701  1
  Mg  Mg91  1  0.33439560  0.91648927  0.75529430  1
  Mg  Mg92  1  -0.00093710  0.08580271  0.74953319  1
  Mg  Mg93  1  0.16564091  0.16895349  0.75162457  1
  Mg  Mg94  1  0.83584760  0.33441743  0.24502538  1
  Mg  Mg95  1  0.16372536  0.83474946  0.75133090  1
  Fe  Fe96  1  0.97053940  0.66475303  0.38879095  1
  Fe  Fe97  1  0.64326242  0.82579023  0.89667448  1
  Fe  Fe98  1  0.02672589  0.67086366  0.61084235  1
  Fe  Fe99  1  0.02448888  0.16006812  0.10527747  1
  Fe  Fe100  1  0.30773260  0.16908365  0.89178789  1
  Fe  Fe101  1  0.96838570  0.83249741  0.89076402  1
  Fe  Fe102  1  0.19827311  0.41809133  0.10829559  1
  Fe  Fe103  1  0.52745288  0.41627507  0.10812848  1
  Fe  Fe104  1  0.47630309  0.42111862  0.38937687  1
  Fe  Fe105  1  0.02184834  0.33479720  0.10145366  1
  Fe  Fe106  1  0.47361591  0.91178197  0.89693132  1
  Fe  Fe107  1  0.68863064  0.33248230  0.60547876  1
  Fe  Fe108  1  0.64662045  0.66963027  0.39359886  1
  Fe  Fe109  1  0.30394768  0.16628423  0.38905954  1
  Fe  Fe110  1  0.02313749  0.83414628  0.11084567  1
  Fe  Fe111  1  0.19184181  0.41393259  0.60628286  1
  Fe  Fe112  1  0.47943135  0.91266869  0.39253594  1
  Si  Si113  1  0.30174670  0.83260567  0.38971492  1
  Si  Si114  1  0.97390297  0.16723244  0.38468708  1
  Si  Si115  1  0.85317921  0.07896070  0.11265745  1
  Si  Si116  1  0.19957558  0.91346744  0.11335984  1
  Si  Si117  1  0.36480276  0.83750366  0.11804612  1
  Si  Si118  1  0.69033370  0.83336153  0.11830889  1
  Si  Si119  1  0.47395455  0.59247509  0.39041741  1
  Si  Si120  1  0.86148389  0.41373311  0.60781257  1
  Si  Si121  1  0.85282561  0.91805152  0.61519921  1
  Si  Si122  1  0.13642303  0.91890942  0.88648775  1
  Si  Si123  1  0.48134522  0.08538065  0.39123321  1
  Si  Si124  1  0.64148404  0.17123540  0.88397809  1
  Si  Si125  1  0.02176814  0.16306133  0.61416278  1
  Si  Si126  1  0.36248270  0.66936470  0.61630625  1
  Si  Si127  1  0.36192358  0.16417872  0.61605801  1
  Si  Si128  1  0.80880046  0.57412460  0.39004595  1
  Si  Si129  1  0.30719673  0.66465363  0.88520220  1
  Si  Si130  1  0.47736512  0.58609531  0.88495961  1
  Si  Si131  1  0.80650258  0.92380231  0.89145412  1
  Si  Si132  1  0.52522456  0.58736929  0.61649605  1
  Si  Si133  1  0.19758956  0.58689240  0.60897444  1
  Si  Si134  1  0.51746184  0.58663702  0.11367735  1
  Si  Si135  1  0.36350280  0.32582052  0.11002245  1
  Si  Si136  1  0.13626365  0.41610214  0.38060272  1
  Si  Si137  1  0.64538782  0.16759141  0.38549801  1
  Si  Si138  1  0.14053980  0.41554031  0.88136143  1
  Si  Si139  1  0.80975640  0.08794950  0.38468946  1
  Si  Si140  1  0.65143475  0.65845300  0.88912039  1
  Si  Si141  1  0.52927496  0.08434707  0.11693345  1
  Si  Si142  1  0.47631416  0.42067830  0.88303783  1
  Si  Si143  1  0.02588435  0.32857510  0.60912934  1
  Si  Si144  1  0.13627860  0.91637252  0.38706924  1
  Si  Si145  1  0.68521464  0.16205637  0.61083177  1
  Si  Si146  1  0.19195186  0.59087319  0.11173063  1
  Si  Si147  1  0.97224197  0.16556470  0.88146124  1
  Si  Si148  1  0.81297846  0.41074707  0.88187066  1
  Si  Si149  1  0.35495073  0.83333583  0.61677097  1
  Si  Si150  1  0.68810323  0.67074107  0.11776827  1
  Si  Si151  1  0.14319505  0.57949803  0.88229918  1
  Si  Si152  1  0.31179692  0.33843736  0.88611024  1
  Si  Si153  1  0.65572810  0.83502671  0.39452794  1
  Si  Si154  1  0.52307692  0.07557231  0.61606327  1
  Si  Si155  1  0.85670747  0.58016681  0.61131744  1
  Si  Si156  1  0.97606485  0.66172917  0.88697190  1
  Si  Si157  1  0.53045209  0.92081902  0.11976200  1
  Si  Si158  1  0.97614132  0.33072080  0.38148274  1
  Si  Si159  1  0.35681941  0.67416182  0.11530087  1
  Si  Si160  1  0.81088649  0.92436946  0.38747467  1
  Si  Si161  1  0.36207137  0.16170525  0.11515478  1
  Si  Si162  1  0.69185023  0.82916534  0.61760441  1
  Si  Si163  1  0.19259367  0.92114150  0.61650357  1
  Si  Si164  1  0.85733679  0.42074945  0.11075923  1
  Si  Si165  1  0.30200571  0.66594161  0.38497476  1
  Si  Si166  1  0.29835546  0.83184380  0.88914248  1
  Si  Si167  1  0.52529496  0.42337315  0.61238448  1
  Si  Si168  1  0.97199505  0.83657848  0.38922461  1
  Si  Si169  1  0.36612341  0.33071148  0.61159577  1
  Si  Si170  1  0.13907178  0.58054867  0.38460181  1
  Si  Si171  1  0.64181022  0.33642036  0.88294662  1
  Si  Si172  1  0.30512570  0.33679567  0.38854983  1
  Si  Si173  1  0.48056600  0.08366607  0.89135666  1
  Si  Si174  1  0.69724018  0.33307251  0.11086483  1
  Si  Si175  1  0.80766387  0.08913459  0.88510449  1
  Si  Si176  1  0.81245337  0.41052657  0.38348734  1
  Si  Si177  1  0.13410652  0.08248693  0.38961223  1
  Si  Si178  1  0.19154152  0.08665565  0.61560413  1
  Si  Si179  1  0.52217795  0.91139768  0.61836941  1
  Si  Si180  1  0.97681215  0.32968705  0.87865423  1
  Si  Si181  1  0.64602162  0.33102284  0.38618509  1
  Si  Si182  1  0.85167325  0.91730915  0.11544214  1
  Si  Si183  1  0.13715642  0.08402525  0.88698944  1
  Si  Si184  1  0.69330531  0.16760007  0.11427727  1
  Si  Si185  1  0.81330055  0.57383704  0.88462028  1
  Si  Si186  1  0.02293044  0.84161210  0.61279857  1
  Si  Si187  1  0.20018218  0.08052287  0.11075021  1
  Si  Si188  1  0.01724648  0.66228297  0.11146260  1
  Si  Si189  1  0.69310314  0.66434604  0.61513637  1
  Si  Si190  1  0.84882976  0.58333665  0.11437921  1
  Si  Si191  1  0.85433166  0.08209039  0.61385961  1
  O  O192  1  0.28627431  0.10782959  0.08200040  1
  O  O193  1  0.26874990  0.12838979  0.58807143  1
  O  O194  1  0.26379800  0.64156359  0.08314775  1
  O  O195  1  0.28721892  0.61452752  0.58567603  1
  O  O196  1  0.60805883  0.12031321  0.08629772  1
  O  O197  1  0.60392474  0.10758025  0.58634353  1
  O  O198  1  0.60013322  0.62692834  0.08924412  1
  O  O199  1  0.60732739  0.61700273  0.58743267  1
  O  O200  1  0.92981539  0.09740573  0.07523228  1
  O  O201  1  0.93641844  0.11449948  0.58480767  1
  O  O202  1  0.93217961  0.61141480  0.08502061  1
  O  O203  1  0.93123875  0.61435798  0.57807125  1
  O  O204  1  0.10672924  0.37084806  0.06037733  1
  O  O205  1  0.10226937  0.35179649  0.57189088  1
  O  O206  1  0.11840902  0.86726765  0.07788876  1
  O  O207  1  0.10099474  0.88539383  0.58582138  1
  O  O208  1  0.44815329  0.34445613  0.07953628  1
  O  O209  1  0.44826660  0.36696743  0.58603997  1
  O  O210  1  0.44548437  0.87458241  0.09079491  1
  O  O211  1  0.43529778  0.86681243  0.58689724  1
  O  O212  1  0.78326391  0.36026503  0.08475804  1
  O  O213  1  0.78435371  0.36346088  0.57294197  1
  O  O214  1  0.77101766  0.86364452  0.08783835  1
  O  O215  1  0.76742606  0.87070874  0.58612576  1
  O  O216  1  0.28929365  0.37790759  0.07348560  1
  O  O217  1  0.28376321  0.37169078  0.57416039  1
  O  O218  1  0.28224399  0.88318826  0.08261465  1
  O  O219  1  0.26898159  0.87950177  0.58752867  1
  O  O220  1  0.62239948  0.38328478  0.07362699  1
  O  O221  1  0.60495027  0.40286463  0.57865407  1
  O  O222  1  0.60842055  0.88397717  0.08903625  1
  O  O223  1  0.60250064  0.87299527  0.59136647  1
  O  O224  1  0.93472620  0.40420315  0.07348282  1
  O  O225  1  0.94502933  0.38177710  0.58059795  1
  O  O226  1  0.92976384  0.89461559  0.08055426  1
  O  O227  1  0.93605277  0.88965152  0.58655595  1
  O  O228  1  0.11984083  0.12460201  0.07188016  1
  O  O229  1  0.10155109  0.12630897  0.58393562  1
  O  O230  1  0.09827247  0.62764320  0.08260418  1
  O  O231  1  0.12576532  0.64447979  0.57941230  1
  O  O232  1  0.44637977  0.13221227  0.08646666  1
  O  O233  1  0.43443528  0.11797139  0.58644365  1
  O  O234  1  0.43164647  0.63427891  0.08305187  1
  O  O235  1  0.44801021  0.64336027  0.58921879  1
  O  O236  1  0.77187142  0.13279698  0.08437071  1
  O  O237  1  0.76892195  0.12795059  0.58397345  1
  O  O238  1  0.76558191  0.63392837  0.08497688  1
  O  O239  1  0.76851384  0.62630420  0.58364903  1
  O  O240  1  0.04902812  0.11286929  0.41917929  1
  O  O241  1  0.04761010  0.10830700  0.91052570  1
  O  O242  1  0.06797110  0.61260192  0.42339776  1
  O  O243  1  0.06350304  0.61397448  0.91164368  1
  O  O244  1  0.40545304  0.11766202  0.42488478  1
  O  O245  1  0.40307428  0.11300628  0.92518564  1
  O  O246  1  0.38712706  0.62204112  0.41655657  1
  O  O247  1  0.39785198  0.62331806  0.91349722  1
  O  O248  1  0.72706897  0.11580715  0.41433463  1
  O  O249  1  0.72713607  0.12546204  0.91358778  1
  O  O250  1  0.72268999  0.59263623  0.41749792  1
  O  O251  1  0.72752664  0.59837033  0.91261712  1
  O  O252  1  0.21808589  0.36806188  0.41258312  1
  O  O253  1  0.22906893  0.37435704  0.91135853  1
  O  O254  1  0.22041071  0.86879398  0.41820026  1
  O  O255  1  0.21140908  0.85997021  0.91327791  1
  O  O256  1  0.57055572  0.35994557  0.42118283  1
  O  O257  1  0.56293725  0.37464348  0.91177655  1
  O  O258  1  0.57596588  0.85873150  0.42898595  1
  O  O259  1  0.55080311  0.84492418  0.93636295  1
  O  O260  1  0.89339120  0.35818658  0.41206501  1
  O  O261  1  0.89484035  0.35981645  0.91003549  1
  O  O262  1  0.89476219  0.87785490  0.41842319  1
  O  O263  1  0.88048980  0.87123895  0.92871838  1
  O  O264  1  0.05589384  0.38245602  0.41188767  1
  O  O265  1  0.06060952  0.37807732  0.90863525  1
  O  O266  1  0.05691286  0.88417822  0.41913498  1
  O  O267  1  0.05668348  0.89752440  0.91966260  1
  O  O268  1  0.38162638  0.38902720  0.42294749  1
  O  O269  1  0.39449682  0.39146011  0.91202468  1
  O  O270  1  0.38516161  0.87408868  0.42648668  1
  O  O271  1  0.37250311  0.88271890  0.92598340  1
  O  O272  1  0.73244882  0.37789967  0.41361995  1
  O  O273  1  0.72993658  0.37969072  0.91072780  1
  O  O274  1  0.73062482  0.89787052  0.41960490  1
  O  O275  1  0.71892893  0.90418395  0.91618493  1
  O  O276  1  0.21522733  0.12578346  0.42788503  1
  O  O277  1  0.21000300  0.13752516  0.92209937  1
  O  O278  1  0.22660784  0.62507999  0.41463232  1
  O  O279  1  0.23187945  0.62226726  0.91461195  1
  O  O280  1  0.56496907  0.13922632  0.41626098  1
  O  O281  1  0.56199109  0.13993389  0.91440248  1
  O  O282  1  0.54556571  0.64939834  0.42414688  1
  O  O283  1  0.56509256  0.62812575  0.91540941  1
  O  O284  1  0.88854759  0.14161057  0.41417123  1
  O  O285  1  0.88847479  0.14152880  0.91250903  1
  O  O286  1  0.88468153  0.62461416  0.42771549  1
  O  O287  1  0.89694386  0.62088069  0.91541180  1
  O  O288  1  0.18794737  -0.00392017  0.08445122  1
  O  O289  1  0.18819345  0.00374838  0.58673197  1
  O  O290  1  0.19284827  0.51448823  0.07492306  1
  O  O291  1  0.17648438  0.50880263  0.57496039  1
  O  O292  1  0.51739251  0.00233919  0.08692335  1
  O  O293  1  0.51165237  -0.00687800  0.58683657  1
  O  O294  1  0.50520863  0.51075857  0.07405057  1
  O  O295  1  0.49624126  0.50673538  0.58921732  1
  O  O296  1  0.81628201  -0.00211649  0.09094227  1
  O  O297  1  0.83614309  -0.00000850  0.58459644  1
  O  O298  1  0.82156341  0.50231580  0.08602455  1
  O  O299  1  0.84200889  0.49709131  0.58217624  1
  O  O300  1  -0.00930458  0.24630790  0.06359562  1
  O  O301  1  0.00053046  0.24411573  0.58443700  1
  O  O302  1  -0.00276006  0.74032927  0.07758800  1
  O  O303  1  0.00903089  0.76547322  0.57632461  1
  O  O304  1  0.33915717  0.24166813  0.08470002  1
  O  O305  1  0.36343006  0.24567808  0.58657641  1
  O  O306  1  0.35672185  0.75637449  0.08547467  1
  O  O307  1  0.34031245  0.75105220  0.58740807  1
  O  O308  1  0.67953374  0.24893717  0.08375461  1
  O  O309  1  0.66143348  0.23788928  0.57442564  1
  O  O310  1  0.67162929  0.75256235  0.08682363  1
  O  O311  1  0.67945290  0.74719471  0.58614542  1
  O  O312  1  0.14784669  -0.00196221  0.41803295  1
  O  O313  1  0.16419754  0.00130958  0.91230257  1
  O  O314  1  0.15501547  0.49702674  0.41148668  1
  O  O315  1  0.15228566  0.49723143  0.91239865  1
  O  O316  1  0.50666568  0.00713922  0.42415668  1
  O  O317  1  0.51043980  0.00610280  0.92234267  1
  O  O318  1  0.49734616  0.51410170  0.42416688  1
  O  O319  1  0.49169839  0.50299405  0.91201622  1
  O  O320  1  0.83311077  0.00729850  0.41460347  1
  O  O321  1  0.82774302  0.00923985  0.91614690  1
  O  O322  1  0.83507589  0.48986150  0.41484294  1
  O  O323  1  0.83258772  0.49146756  0.91252720  1
  O  O324  1  0.32067891  0.25912875  0.42511210  1
  O  O325  1  0.33396222  0.26299303  0.92316694  1
  O  O326  1  0.30683082  0.74798280  0.41622661  1
  O  O327  1  0.31338746  0.74683051  0.91461373  1
  O  O328  1  0.67148029  0.24823666  0.41359605  1
  O  O329  1  0.65509110  0.25433922  0.91249003  1
  O  O330  1  0.69383330  0.75921189  0.42597254  1
  O  O331  1  0.68323890  0.73182067  0.92603843  1
  O  O332  1  0.99635054  0.24921841  0.41267628  1
  O  O333  1  0.99666356  0.24773684  0.90770663  1
  O  O334  1  0.98508839  0.75886027  0.42342927  1
  O  O335  1  0.99182450  0.73841786  0.92413743  1
  O  O336  1  0.21843135  0.08683226  0.18948029  1
  O  O337  1  0.20784254  0.08413249  0.69574990  1
  O  O338  1  0.21143456  0.59050988  0.19170638  1
  O  O339  1  0.21360790  0.58487550  0.69091248  1
  O  O340  1  0.54680169  0.08481188  0.19720684  1
  O  O341  1  0.54046329  0.08132060  0.69627781  1
  O  O342  1  0.52907606  0.58369144  0.19307704  1
  O  O343  1  0.54537487  0.58552912  0.69729232  1
  O  O344  1  0.87285538  0.08380431  0.19364935  1
  O  O345  1  0.87449373  0.08266392  0.69395821  1
  O  O346  1  0.86980796  0.58348405  0.19430538  1
  O  O347  1  0.87156768  0.58101923  0.69161183  1
  O  O348  1  0.04280398  0.33378526  0.19388143  1
  O  O349  1  0.04639317  0.33358834  0.68911735  1
  O  O350  1  0.04251100  0.83268107  0.20210706  1
  O  O351  1  0.04387708  0.83817999  0.69345422  1
  O  O352  1  0.37742770  0.32941429  0.19112302  1
  O  O353  1  0.37908987  0.33302840  0.69292483  1
  O  O354  1  0.37370123  0.83391383  0.19696546  1
  O  O355  1  0.37233189  0.83255081  0.69704182  1
  O  O356  1  0.71100068  0.33172306  0.19184208  1
  O  O357  1  0.71031837  0.33232781  0.69754127  1
  O  O358  1  0.70900055  0.83536420  0.19863489  1
  O  O359  1  0.71532621  0.82593773  0.69667401  1
  O  O360  1  0.21360485  0.41569768  0.19854293  1
  O  O361  1  0.21364812  0.41589756  0.69828871  1
  O  O362  1  0.21666350  0.90856077  0.19326552  1
  O  O363  1  0.21012507  0.91891783  0.69703343  1
  O  O364  1  0.54651555  0.41627741  0.19909525  1
  O  O365  1  0.54415299  0.41931545  0.69374445  1
  O  O366  1  0.55060714  0.92435666  0.19879617  1
  O  O367  1  0.53314938  0.91551463  0.69716519  1
  O  O368  1  0.87665629  0.41753319  0.19171183  1
  O  O369  1  0.87677353  0.41327803  0.68885916  1
  O  O370  1  0.87235085  0.91563115  0.19647205  1
  O  O371  1  0.87197165  0.91838683  0.69522631  1
  O  O372  1  0.04035904  0.16504640  0.19614645  1
  O  O373  1  0.04458374  0.16159560  0.69365985  1
  O  O374  1  0.03966843  0.66539106  0.19193646  1
  O  O375  1  0.04557774  0.67033141  0.70129377  1
  O  O376  1  0.38207961  0.16359359  0.19520738  1
  O  O377  1  0.37971394  0.16491483  0.69641367  1
  O  O378  1  0.37417425  0.67043704  0.19536800  1
  O  O379  1  0.37850138  0.66847966  0.69694544  1
  O  O380  1  0.71059419  0.16693212  0.19480713  1
  O  O381  1  0.70600260  0.16562357  0.69185095  1
  O  O382  1  0.71333990  0.67431486  0.19652160  1
  O  O383  1  0.71094592  0.66432292  0.69583010  1
  O  O384  1  0.11501060  0.08602373  0.31102859  1
  O  O385  1  0.12197920  0.08471245  0.80561744  1
  O  O386  1  0.11892947  0.58645368  0.30483366  1
  O  O387  1  0.13222798  0.58059628  0.80303339  1
  O  O388  1  0.46314908  0.08508320  0.30976990  1
  O  O389  1  0.45746466  0.08537630  0.80944458  1
  O  O390  1  0.45554728  0.58773052  0.30892360  1
  O  O391  1  0.45816906  0.58496870  0.80440767  1
  O  O392  1  0.79124292  0.08657390  0.30435707  1
  O  O393  1  0.78839625  0.08715730  0.80446229  1
  O  O394  1  0.80141696  0.57912846  0.31003922  1
  O  O395  1  0.79392436  0.57818644  0.80409664  1
  O  O396  1  0.29179371  0.33390063  0.30771505  1
  O  O397  1  0.29495986  0.33454446  0.80515933  1
  O  O398  1  0.28698482  0.83412799  0.30910689  1
  O  O399  1  0.28668667  0.83307120  0.80780057  1
  O  O400  1  0.62692670  0.33007892  0.30549148  1
  O  O401  1  0.62174095  0.33505461  0.80263387  1
  O  O402  1  0.63558596  0.83660953  0.31385042  1
  O  O403  1  0.61613380  0.81971324  0.80586317  1
  O  O404  1  0.95559399  0.33138139  0.30155736  1
  O  O405  1  0.95514659  0.33351035  0.79910333  1
  O  O406  1  0.95295614  0.83579133  0.30862474  1
  O  O407  1  0.95496670  0.83220860  0.79874415  1
  O  O408  1  0.11782545  0.41563867  0.30158871  1
  O  O409  1  0.12320813  0.41612559  0.80134157  1
  O  O410  1  0.11795193  0.91168057  0.30802667  1
  O  O411  1  0.12111047  0.91820308  0.80507567  1
  O  O412  1  0.45243625  0.41652831  0.29833890  1
  O  O413  1  0.45891122  0.41845363  0.80244698  1
  O  O414  1  0.45685040  0.91663551  0.30258762  1
  O  O415  1  0.45288701  0.91451327  0.80387903  1
  O  O416  1  0.79230774  0.41205356  0.30313635  1
  O  O417  1  0.79252286  0.41394107  0.80164420  1
  O  O418  1  0.79189957  0.92090756  0.30707703  1
  O  O419  1  0.80245645  0.91963406  0.81131628  1
  O  O420  1  0.29193786  0.16728275  0.29929713  1
  O  O421  1  0.28840217  0.16843575  0.79958525  1
  O  O422  1  0.28663643  0.66767048  0.30479927  1
  O  O423  1  0.29025142  0.66535930  0.80460743  1
  O  O424  1  0.62691387  0.16704468  0.30494568  1
  O  O425  1  0.62384273  0.17042640  0.80337181  1
  O  O426  1  0.61699659  0.67543561  0.30413372  1
  O  O427  1  0.62809644  0.66081844  0.80791226  1
  O  O428  1  0.95430414  0.16614850  0.30477055  1
  O  O429  1  0.95201595  0.16331397  0.80174119  1
  O  O430  1  0.95367563  0.66656144  0.29746518  1
  O  O431  1  0.95434907  0.66657287  0.80719298  1
  F  F432  1  0.03076643  -0.00174045  0.19836884  1
  F  F433  1  0.04443277  0.00026671  0.70197022  1
  F  F434  1  0.03811220  0.50365101  0.19653453  1
  F  F435  1  0.04759715  0.49573192  0.69617504  1
  F  F436  1  0.38263032  0.00239592  0.20294129  1
  F  F437  1  0.37606248  0.00248227  0.70544260  1
  F  F438  1  0.37684093  0.50385890  0.20108274  1
  F  F439  1  0.38147242  0.50159906  0.70155143  1
  F  F440  1  0.71167751  0.00110446  0.20491385  1
  F  F441  1  0.71440441  0.00716445  0.70081074  1
  F  F442  1  0.71563595  0.49128357  0.20037072  1
  F  F443  1  0.71321204  0.49966574  0.70134258  1
  F  F444  1  0.21368206  0.25700593  0.19764322  1
  F  F445  1  0.21343319  0.25062858  0.69866938  1
  F  F446  1  0.21075663  0.75049338  0.20425780  1
  F  F447  1  0.21260542  0.75208393  0.70378951  1
  F  F448  1  0.54732482  0.24784847  0.20295428  1
  F  F449  1  0.54374504  0.24887491  0.70109892  1
  F  F450  1  0.54424116  0.75340249  0.20223421  1
  F  F451  1  0.54387265  0.74650066  0.70181296  1
  F  F452  1  0.87799263  0.24925349  0.19937600  1
  F  F453  1  0.87123900  0.24667327  0.69537644  1
  F  F454  1  0.87547776  0.75328413  0.20206071  1
  F  F455  1  0.87679176  0.74811316  0.70076969  1
  F  F456  1  0.30115137  -0.00044531  0.30362134  1
  F  F457  1  0.28567348  0.00114446  0.79972730  1
  F  F458  1  0.29168816  0.50347852  0.29949621  1
  F  F459  1  0.29151754  0.50199199  0.79657299  1
  F  F460  1  0.62580394  0.00412716  0.30239202  1
  F  F461  1  0.61679846  0.01336449  0.80344470  1
  F  F462  1  0.61724194  0.48891593  0.30493028  1
  F  F463  1  0.62343520  0.49802548  0.79694121  1
  F  F464  1  0.95169743  0.00096137  0.29866751  1
  F  F465  1  0.95427698  0.00191753  0.79580231  1
  F  F466  1  0.95468828  0.49750103  0.29500673  1
  F  F467  1  0.95484029  0.49280617  0.79436002  1
  F  F468  1  0.12056238  0.25652960  0.30025851  1
  F  F469  1  0.12514533  0.25246684  0.79591925  1
  F  F470  1  0.12056363  0.74723290  0.29883291  1
  F  F471  1  0.12379177  0.75177703  0.79975913  1
  F  F472  1  0.45568226  0.25089902  0.29705283  1
  F  F473  1  0.45658622  0.25221521  0.79689743  1
  F  F474  1  0.44862807  0.74831614  0.30194746  1
  F  F475  1  0.45164481  0.74713958  0.80000069  1
  F  F476  1  0.78950894  0.25026955  0.29508683  1
  F  F477  1  0.78757357  0.24834451  0.79646285  1
  F  F478  1  0.78993538  0.75159751  0.30042883  1
  F  F479  1  0.79054068  0.74516544  0.79909050  1
