# generated using pymatgen
data_K24Na3Li5Mg64Fe17Si79(O5F)48
_symmetry_space_group_name_H-M   'P 1'
_cell_length_a   16.08772621
_cell_length_b   18.57849691
_cell_length_c   20.54529113
_cell_angle_alpha   90.01129876
_cell_angle_beta   100.00451428
_cell_angle_gamma   89.98163017
_symmetry_Int_Tables_number   1
_chemical_formula_structural   K24Na3Li5Mg64Fe17Si79(O5F)48
_chemical_formula_sum   'K24 Na3 Li5 Mg64 Fe17 Si79 O240 F48'
_cell_volume   6047.31983228
_cell_formula_units_Z   1
loop_
 _symmetry_equiv_pos_site_id
 _symmetry_equiv_pos_as_xyz
  1  'x, y, z'
loop_
 _atom_site_type_symbol
 _atom_site_label
 _atom_site_symmetry_multiplicity
 _atom_site_fract_x
 _atom_site_fract_y
 _atom_site_fract_z
 _atom_site_occupancy
  K  K0  1  -0.00277828  0.00518078  0.00867022  1
  K  K1  1  -0.00383227  -0.00177140  0.49113129  1
  K  K2  1  -0.00471351  0.50669049  0.00504724  1
  K  K3  1  0.02046228  0.50442762  0.50170197  1
  K  K4  1  0.33412927  -0.00068884  -0.00445101  1
  K  K5  1  0.34332508  0.00079438  0.50590881  1
  K  K6  1  0.32785900  0.50309441  -0.01187499  1
  K  K7  1  0.32667870  0.49258887  0.50906707  1
  K  K8  1  0.66451634  -0.00287839  0.00414990  1
  K  K9  1  0.67202514  -0.01127172  0.49623678  1
  K  K10  1  0.67319324  0.49868037  -0.00199509  1
  K  K11  1  0.66073343  0.50339007  0.50387612  1
  K  K12  1  0.16486252  0.25177581  -0.00056720  1
  K  K13  1  0.16606552  0.25588384  0.50368080  1
  K  K14  1  0.16449359  0.74624851  -0.00255306  1
  K  K15  1  0.16225702  0.74079391  0.50487373  1
  K  K16  1  0.48911220  0.24291539  -0.00605290  1
  K  K17  1  0.48919330  0.25168587  0.50790223  1
  K  K18  1  0.49149045  0.74962746  -0.00322006  1
  K  K19  1  0.49401422  0.75369344  0.50369731  1
  K  K20  1  0.84406805  0.25174990  0.01116138  1
  K  K21  1  0.84320588  0.24948320  0.49770049  1
  K  K22  1  0.83687523  0.74645391  0.00228073  1
  K  K23  1  0.83806511  0.75900057  0.49316703  1
  Na  Na24  1  0.16773043  0.50074591  0.74966094  1
  Na  Na25  1  0.50076907  0.16996274  0.25030984  1
  Na  Na26  1  0.66654720  0.91824588  0.24631047  1
  Li  Li27  1  0.33334680  0.75050399  0.25113322  1
  Li  Li28  1  0.00086829  0.25050980  0.24368312  1
  Li  Li29  1  0.00549879  0.58317821  0.25497814  1
  Li  Li30  1  0.16728106  0.66448529  0.74996671  1
  Li  Li31  1  0.17029387  0.33634712  0.75335232  1
  Mg  Mg32  1  0.66894627  0.74853968  0.75107914  1
  Mg  Mg33  1  0.83438458  -0.00043938  0.74720627  1
  Mg  Mg34  1  0.50309802  0.00051093  0.24967872  1
  Mg  Mg35  1  0.83390975  0.49976214  0.75292272  1
  Mg  Mg36  1  0.33150203  0.74703777  0.74844762  1
  Mg  Mg37  1  0.32960870  0.24922381  0.75165891  1
  Mg  Mg38  1  0.49745564  0.50063287  0.25105593  1
  Mg  Mg39  1  0.00099491  0.74727547  0.25148243  1
  Mg  Mg40  1  0.00354591  0.25089338  0.75206554  1
  Mg  Mg41  1  0.16651270  0.00028401  0.24612650  1
  Mg  Mg42  1  0.16662434  -0.00060631  0.74907476  1
  Mg  Mg43  1  0.49909202  -0.00073205  0.75026280  1
  Mg  Mg44  1  0.83368832  -0.00047491  0.24568794  1
  Mg  Mg45  1  0.83787405  0.50124072  0.24796265  1
  Mg  Mg46  1  0.16139353  0.50129901  0.25131116  1
  Mg  Mg47  1  0.49990155  0.49921686  0.75199689  1
  Mg  Mg48  1  0.66533167  0.25055238  0.75100376  1
  Mg  Mg49  1  0.00423137  0.74828235  0.74852406  1
  Mg  Mg50  1  0.33325199  0.24955558  0.25224019  1
  Mg  Mg51  1  0.66661217  0.25237655  0.24895055  1
  Mg  Mg52  1  0.66697214  0.75122237  0.24849529  1
  Mg  Mg53  1  0.33228446  0.91396530  0.74933827  1
  Mg  Mg54  1  0.00012871  0.08431255  0.75017019  1
  Mg  Mg55  1  0.49969756  0.83231300  0.24885295  1
  Mg  Mg56  1  0.83204021  0.83585097  0.24746817  1
  Mg  Mg57  1  0.16444995  0.83042565  0.74714900  1
  Mg  Mg58  1  -0.00201373  0.91550474  0.24690877  1
  Mg  Mg59  1  -0.00046015  0.91479273  0.74717501  1
  Mg  Mg60  1  0.16959009  0.83257920  0.24797018  1
  Mg  Mg61  1  0.83499487  0.16821543  0.24743464  1
  Mg  Mg62  1  -0.00145401  0.08751324  0.24461995  1
  Mg  Mg63  1  0.83271735  0.16661575  0.74921102  1
  Mg  Mg64  1  0.66840553  0.58328551  0.75280669  1
  Mg  Mg65  1  0.33034236  0.41627224  0.25258988  1
  Mg  Mg66  1  0.16804846  0.66754094  0.25223313  1
  Mg  Mg67  1  0.33593494  0.91449211  0.24783155  1
  Mg  Mg68  1  0.66553056  0.58345419  0.24890985  1
  Mg  Mg69  1  0.49871096  0.33450031  0.25147745  1
  Mg  Mg70  1  0.33076200  0.58719616  0.25257272  1
  Mg  Mg71  1  0.83420527  0.66593434  0.24873732  1
  Mg  Mg72  1  0.66776234  0.91481653  0.74662288  1
  Mg  Mg73  1  0.49747135  0.33400192  0.74941814  1
  Mg  Mg74  1  0.66557444  0.41580360  0.75180365  1
  Mg  Mg75  1  0.33457573  0.58368803  0.75293484  1
  Mg  Mg76  1  0.66521989  0.08424227  0.74991267  1
  Mg  Mg77  1  0.00370281  0.41618625  0.75091457  1
  Mg  Mg78  1  0.49648964  0.16418731  0.75189901  1
  Mg  Mg79  1  0.00195047  0.58376193  0.74803299  1
  Mg  Mg80  1  0.16416539  0.16764631  0.24732169  1
  Mg  Mg81  1  0.66719441  0.41624437  0.24864849  1
  Mg  Mg82  1  0.49646698  0.66747671  0.25094566  1
  Mg  Mg83  1  0.49884013  0.83272732  0.74913427  1
  Mg  Mg84  1  0.00054888  0.41774575  0.24805009  1
  Mg  Mg85  1  0.33442908  0.08301909  0.24775184  1
  Mg  Mg86  1  0.33440530  0.08506502  0.75278977  1
  Mg  Mg87  1  0.66762422  0.08540582  0.25268911  1
  Mg  Mg88  1  0.16129456  0.33368855  0.24898348  1
  Mg  Mg89  1  0.49995559  0.66492395  0.75024950  1
  Mg  Mg90  1  0.16898531  0.16768059  0.75276456  1
  Mg  Mg91  1  0.33080955  0.41500349  0.75241974  1
  Mg  Mg92  1  0.83643047  0.83436165  0.74749964  1
  Mg  Mg93  1  0.83531913  0.66447253  0.75287921  1
  Mg  Mg94  1  0.83461839  0.33394517  0.75163067  1
  Mg  Mg95  1  0.83799512  0.33473631  0.24759853  1
  Fe  Fe96  1  0.85911885  0.92238760  0.60751182  1
  Fe  Fe97  1  0.85635871  0.41962267  0.10711531  1
  Fe  Fe98  1  0.80995345  0.58093819  0.89236885  1
  Fe  Fe99  1  0.35467239  0.15881665  0.60987197  1
  Fe  Fe100  1  0.30250368  0.16949743  0.89568335  1
  Fe  Fe101  1  0.47509393  0.07839995  0.89440077  1
  Fe  Fe102  1  0.35714936  0.83850371  0.61007486  1
  Fe  Fe103  1  0.52319464  0.41968521  0.61131599  1
  Fe  Fe104  1  0.47542673  0.58571378  0.89116335  1
  Fe  Fe105  1  0.80690357  0.91679717  0.38970312  1
  Fe  Fe106  1  0.85572028  0.91417663  0.10417160  1
  Fe  Fe107  1  0.14473174  0.41262398  0.39150248  1
  Fe  Fe108  1  0.02573249  0.83216211  0.60717922  1
  Fe  Fe109  1  0.02701087  0.16805881  0.10675599  1
  Fe  Fe110  1  0.68457666  0.82890600  0.10480707  1
  Fe  Fe111  1  0.14791839  0.58667101  0.39160347  1
  Fe  Fe112  1  0.19443340  0.58394993  0.61303281  1
  Si  Si113  1  0.97595451  0.67127820  0.88936477  1
  Si  Si114  1  0.01587035  0.66452874  0.60997969  1
  Si  Si115  1  0.97565426  0.83600465  0.88559419  1
  Si  Si116  1  0.02711768  0.66820748  0.11612788  1
  Si  Si117  1  0.64438459  0.33016169  0.88669704  1
  Si  Si118  1  0.03165882  0.83314116  0.11084931  1
  Si  Si119  1  0.51828692  0.92198862  0.11114853  1
  Si  Si120  1  0.14221413  0.08352832  0.38337974  1
  Si  Si121  1  0.31206147  0.67605390  0.38750727  1
  Si  Si122  1  0.69695537  0.82783699  0.61261800  1
  Si  Si123  1  0.97915667  0.83136341  0.38612469  1
  Si  Si124  1  0.52165757  0.41416108  0.11592134  1
  Si  Si125  1  0.53389248  0.08250213  0.61173451  1
  Si  Si126  1  0.68634362  0.33230311  0.11211066  1
  Si  Si127  1  0.64321555  0.17243612  0.38640470  1
  Si  Si128  1  0.97126289  0.66527540  0.38583349  1
  Si  Si129  1  0.14148735  0.91802187  0.88533704  1
  Si  Si130  1  0.63889939  0.33776819  0.38668731  1
  Si  Si131  1  0.02510534  0.33177115  0.61710406  1
  Si  Si132  1  0.13707966  0.41860788  0.88720260  1
  Si  Si133  1  0.64230798  0.67032781  0.88872373  1
  Si  Si134  1  0.19837226  0.42091914  0.11436497  1
  Si  Si135  1  0.53337836  0.91568705  0.61171508  1
  Si  Si136  1  0.19749496  0.07922606  0.10935277  1
  Si  Si137  1  0.30402382  0.66579775  0.88957586  1
  Si  Si138  1  0.35800242  0.16767980  0.11596972  1
  Si  Si139  1  0.64674760  0.83293384  0.88333737  1
  Si  Si140  1  0.97489368  0.16707756  0.38291025  1
  Si  Si141  1  0.97763115  0.32866034  0.88722547  1
  Si  Si142  1  0.52346246  0.08415834  0.11609353  1
  Si  Si143  1  0.80829969  0.08927026  0.38858952  1
  Si  Si144  1  0.36165811  0.66798413  0.61151052  1
  Si  Si145  1  0.52232072  0.57760396  0.11534345  1
  Si  Si146  1  0.81229259  0.41021142  0.88869684  1
  Si  Si147  1  0.19864416  0.91275672  0.11256130  1
  Si  Si148  1  0.30914446  0.33985431  0.89097971  1
  Si  Si149  1  0.35795803  0.33217386  0.11577166  1
  Si  Si150  1  0.85408391  0.59063582  0.11260431  1
  Si  Si151  1  0.47811772  0.90782694  0.88821526  1
  Si  Si152  1  0.14286537  0.91696428  0.38318851  1
  Si  Si153  1  0.19404451  0.58598532  0.11471823  1
  Si  Si154  1  0.80586290  0.58298837  0.38448368  1
  Si  Si155  1  0.69475212  0.33596381  0.61416020  1
  Si  Si156  1  0.36329208  0.83156890  0.11395620  1
  Si  Si157  1  0.47941054  0.08021430  0.38438725  1
  Si  Si158  1  0.18261388  0.07898779  0.61338781  1
  Si  Si159  1  0.47661263  0.91759416  0.38501241  1
  Si  Si160  1  0.69443613  0.66366664  0.61546986  1
  Si  Si161  1  0.85461596  0.09031931  0.61299052  1
  Si  Si162  1  0.47058671  0.41678281  0.38617739  1
  Si  Si163  1  0.97091360  0.33374083  0.38635211  1
  Si  Si164  1  0.30465732  0.83134120  0.88599072  1
  Si  Si165  1  0.36103603  0.66579954  0.11526895  1
  Si  Si166  1  0.63748230  0.66083825  0.38559478  1
  Si  Si167  1  0.80900299  0.91867341  0.88396462  1
  Si  Si168  1  0.64348103  0.16636441  0.88803175  1
  Si  Si169  1  0.13357239  0.08231520  0.88773248  1
  Si  Si170  1  0.63424486  0.82517897  0.38737295  1
  Si  Si171  1  0.80578617  0.41690151  0.38512229  1
  Si  Si172  1  0.02316222  0.16740098  0.61538071  1
  Si  Si173  1  0.69376924  0.17245696  0.61582087  1
  Si  Si174  1  0.47021243  0.58266033  0.38679112  1
  Si  Si175  1  0.86151710  0.41346370  0.61659755  1
  Si  Si176  1  0.19108069  0.91846790  0.61253529  1
  Si  Si177  1  0.03098042  0.33992150  0.10703638  1
  Si  Si178  1  0.97050299  0.16415704  0.88398509  1
  Si  Si179  1  0.52643429  0.58823423  0.61368301  1
  Si  Si180  1  0.19094837  0.41119017  0.61762179  1
  Si  Si181  1  0.80666736  0.08349961  0.88391949  1
  Si  Si182  1  0.35342832  0.32968981  0.61188295  1
  Si  Si183  1  0.31063776  0.84066434  0.38318956  1
  Si  Si184  1  0.85789361  0.57813512  0.61510585  1
  Si  Si185  1  0.48000544  0.41421942  0.88958527  1
  Si  Si186  1  0.31247092  0.15939589  0.38433334  1
  Si  Si187  1  0.31098953  0.32476119  0.38730466  1
  Si  Si188  1  0.68285054  0.66292735  0.11247782  1
  Si  Si189  1  0.85001151  0.08726320  0.10822403  1
  Si  Si190  1  0.68508194  0.16820004  0.11511059  1
  Si  Si191  1  0.13418955  0.58512608  0.88572402  1
  O  O192  1  0.28172704  0.11327988  0.08342991  1
  O  O193  1  0.26081519  0.09943746  0.57699694  1
  O  O194  1  0.27014689  0.62698444  0.08374160  1
  O  O195  1  0.29409366  0.60752576  0.57974186  1
  O  O196  1  0.60451157  0.11560891  0.08543809  1
  O  O197  1  0.61768118  0.11743071  0.58537033  1
  O  O198  1  0.60856107  0.60010490  0.08830487  1
  O  O199  1  0.61267205  0.61421312  0.58537968  1
  O  O200  1  0.92471500  0.12065639  0.07307461  1
  O  O201  1  0.93891143  0.11980084  0.58507548  1
  O  O202  1  0.93685223  0.62866045  0.08697173  1
  O  O203  1  0.93732444  0.60544873  0.58268003  1
  O  O204  1  0.11471957  0.37713620  0.08101815  1
  O  O205  1  0.10827481  0.35783560  0.58857583  1
  O  O206  1  0.11629610  0.86407241  0.08326162  1
  O  O207  1  0.12876020  0.85475423  0.57995833  1
  O  O208  1  0.44082629  0.36223669  0.08729026  1
  O  O209  1  0.43225544  0.35979573  0.57872952  1
  O  O210  1  0.43583164  0.87079994  0.07943798  1
  O  O211  1  0.45193161  0.87239610  0.57505156  1
  O  O212  1  0.76115230  0.35968702  0.07535101  1
  O  O213  1  0.78350308  0.35807337  0.58787667  1
  O  O214  1  0.77345996  0.85239534  0.06231385  1
  O  O215  1  0.77433598  0.85319174  0.57826527  1
  O  O216  1  0.27849738  0.38434901  0.08525651  1
  O  O217  1  0.27029010  0.38036370  0.58417849  1
  O  O218  1  0.27533133  0.87358881  0.08268804  1
  O  O219  1  0.27846776  0.91215409  0.58309742  1
  O  O220  1  0.60226851  0.38365339  0.08594201  1
  O  O221  1  0.62202577  0.38947612  0.57875216  1
  O  O222  1  0.59706322  0.89765988  0.07790929  1
  O  O223  1  0.61535006  0.87967412  0.58531842  1
  O  O224  1  0.95064063  0.38842359  0.07297353  1
  O  O225  1  0.94293325  0.38312397  0.58595726  1
  O  O226  1  0.95545763  0.88216840  0.07393378  1
  O  O227  1  0.95313299  0.90536707  0.57162374  1
  O  O228  1  0.11488970  0.12010370  0.07193511  1
  O  O229  1  0.10306224  0.13497302  0.58534374  1
  O  O230  1  0.10337922  0.62549410  0.08548569  1
  O  O231  1  0.09693024  0.63867685  0.57886658  1
  O  O232  1  0.44536770  0.14139165  0.09190617  1
  O  O233  1  0.45139203  0.12535835  0.57561841  1
  O  O234  1  0.43929667  0.62715128  0.08523801  1
  O  O235  1  0.45503609  0.64995461  0.58899762  1
  O  O236  1  0.76667974  0.14145918  0.08436719  1
  O  O237  1  0.78135770  0.15253442  0.58929907  1
  O  O238  1  0.77012523  0.64150057  0.08485085  1
  O  O239  1  0.77392900  0.62771449  0.58574637  1
  O  O240  1  0.06525524  0.12481977  0.41209784  1
  O  O241  1  0.04341178  0.10540078  0.91149814  1
  O  O242  1  0.04766247  0.61559591  0.42105734  1
  O  O243  1  0.06253092  0.62671284  0.92108407  1
  O  O244  1  0.39717598  0.11142292  0.41454023  1
  O  O245  1  0.39088800  0.11239429  0.93693356  1
  O  O246  1  0.39979852  0.62916063  0.41662938  1
  O  O247  1  0.38513203  0.62298720  0.92962751  1
  O  O248  1  0.73474693  0.13700228  0.41886952  1
  O  O249  1  0.72642420  0.11415427  0.91403677  1
  O  O250  1  0.72454286  0.61601490  0.41418424  1
  O  O251  1  0.71427375  0.61433752  0.92330744  1
  O  O252  1  0.23585084  0.34902963  0.42403772  1
  O  O253  1  0.23065279  0.38450600  0.91751095  1
  O  O254  1  0.23145007  0.87555365  0.41384662  1
  O  O255  1  0.22945601  0.87493504  0.91621618  1
  O  O256  1  0.56258765  0.37973354  0.41524957  1
  O  O257  1  0.56111486  0.35805553  0.91587526  1
  O  O258  1  0.55265278  0.86223527  0.41580979  1
  O  O259  1  0.56148126  0.85497195  0.91239821  1
  O  O260  1  0.88580344  0.36537979  0.41479885  1
  O  O261  1  0.89184134  0.35409829  0.91459169  1
  O  O262  1  0.90860912  0.86824262  0.42211407  1
  O  O263  1  0.89429618  0.87186071  0.91378940  1
  O  O264  1  0.04992843  0.37787431  0.42599930  1
  O  O265  1  0.06168363  0.37561084  0.91962309  1
  O  O266  1  0.06885356  0.87515222  0.41315461  1
  O  O267  1  0.06163058  0.88233811  0.91506510  1
  O  O268  1  0.39864105  0.37129550  0.41532039  1
  O  O269  1  0.39740388  0.38528491  0.92013366  1
  O  O270  1  0.39139413  0.89301664  0.41300352  1
  O  O271  1  0.39679084  0.86876331  0.91492466  1
  O  O272  1  0.72539723  0.38277771  0.41611713  1
  O  O273  1  0.72724119  0.37995096  0.91539657  1
  O  O274  1  0.71743268  0.86803816  0.42130302  1
  O  O275  1  0.72547308  0.88847536  0.91142618  1
  O  O276  1  0.23188538  0.12490381  0.41373639  1
  O  O277  1  0.20427853  0.13527369  0.92564175  1
  O  O278  1  0.23626495  0.65259698  0.42428976  1
  O  O279  1  0.22248778  0.62761499  0.91604537  1
  O  O280  1  0.56340236  0.13046222  0.41185730  1
  O  O281  1  0.56887034  0.13982448  0.92467261  1
  O  O282  1  0.56363648  0.61681809  0.41577413  1
  O  O283  1  0.55741015  0.65672314  0.91924507  1
  O  O284  1  0.89984198  0.12969995  0.41718809  1
  O  O285  1  0.88628210  0.13673450  0.91226147  1
  O  O286  1  0.88545197  0.63479363  0.41351320  1
  O  O287  1  0.90138981  0.64150312  0.92555044  1
  O  O288  1  0.19103615  -0.00544328  0.08226774  1
  O  O289  1  0.14737448  -0.00179129  0.58949246  1
  O  O290  1  0.19036984  0.50371623  0.08460139  1
  O  O291  1  0.16502465  0.48890417  0.58540916  1
  O  O292  1  0.49301829  0.00547538  0.08406428  1
  O  O293  1  0.52966033  -0.00079151  0.58387524  1
  O  O294  1  0.49813528  0.49568163  0.08739123  1
  O  O295  1  0.49892274  0.51290105  0.57677412  1
  O  O296  1  0.82454717  0.00911145  0.07556111  1
  O  O297  1  0.81940836  0.01614145  0.57936627  1
  O  O298  1  0.83612094  0.51435005  0.07475787  1
  O  O299  1  0.83592895  0.49479318  0.58761468  1
  O  O300  1  0.02147928  0.26133430  0.07129852  1
  O  O301  1  0.00329937  0.24966134  0.58647132  1
  O  O302  1  0.02224016  0.74918615  0.08250655  1
  O  O303  1  -0.01795422  0.74140444  0.57727759  1
  O  O304  1  0.33855920  0.25024941  0.08680919  1
  O  O305  1  0.32931726  0.25140141  0.57760176  1
  O  O306  1  0.35446475  0.74822909  0.08548531  1
  O  O307  1  0.33257196  0.74545709  0.57721147  1
  O  O308  1  0.65834834  0.24960092  0.08688241  1
  O  O309  1  0.66898277  0.25339513  0.58709453  1
  O  O310  1  0.64362786  0.73546556  0.07721663  1
  O  O311  1  0.67322435  0.74482673  0.58588018  1
  O  O312  1  0.14882907  0.00042618  0.41243736  1
  O  O313  1  0.15277667  -0.00062425  0.91634506  1
  O  O314  1  0.17906451  0.49895439  0.43063270  1
  O  O315  1  0.14056206  0.50200859  0.91683064  1
  O  O316  1  0.50066841  -0.00116444  0.41583608  1
  O  O317  1  0.49856392  -0.01704583  0.92650654  1
  O  O318  1  0.47241336  0.49943979  0.41502284  1
  O  O319  1  0.50683162  0.49160964  0.92340380  1
  O  O320  1  0.81116421  0.01188643  0.42396100  1
  O  O321  1  0.82748309  0.00139868  0.91224529  1
  O  O322  1  0.81991441  0.49998333  0.41413065  1
  O  O323  1  0.83736142  0.48654121  0.92333456  1
  O  O324  1  0.33529661  0.24085071  0.41197765  1
  O  O325  1  0.31781558  0.26418459  0.93062311  1
  O  O326  1  0.33683676  0.76015175  0.41171063  1
  O  O327  1  0.30559348  0.75049209  0.91846885  1
  O  O328  1  0.64441567  0.25554024  0.41688883  1
  O  O329  1  0.67037742  0.24883636  0.91434232  1
  O  O330  1  0.64144084  0.74148551  0.41784819  1
  O  O331  1  0.67747458  0.75323023  0.91057982  1
  O  O332  1  0.98180175  0.24897903  0.41356202  1
  O  O333  1  0.99563296  0.24487352  0.91364798  1
  O  O334  1  0.99013550  0.74821478  0.41441941  1
  O  O335  1  0.99342331  0.75540131  0.91672382  1
  O  O336  1  0.21130550  0.08121786  0.19047108  1
  O  O337  1  0.20500030  0.08247418  0.69443310  1
  O  O338  1  0.21333638  0.58522633  0.19448144  1
  O  O339  1  0.21984401  0.59234988  0.70067512  1
  O  O340  1  0.54786551  0.07844241  0.19505045  1
  O  O341  1  0.54719143  0.08328123  0.69274194  1
  O  O342  1  0.53955203  0.58105583  0.19602846  1
  O  O343  1  0.54812371  0.58350158  0.69456115  1
  O  O344  1  0.87404736  0.08653586  0.18990270  1
  O  O345  1  0.87557323  0.08649050  0.69421690  1
  O  O346  1  0.86839079  0.58564579  0.19245107  1
  O  O347  1  0.87495266  0.58123478  0.69542750  1
  O  O348  1  0.04594481  0.33741512  0.18758320  1
  O  O349  1  0.03611640  0.33146086  0.69631712  1
  O  O350  1  0.04660604  0.83399935  0.19186100  1
  O  O351  1  0.04333931  0.83346938  0.69983963  1
  O  O352  1  0.37559787  0.33432334  0.19619879  1
  O  O353  1  0.37600101  0.33063709  0.69360245  1
  O  O354  1  0.37950183  0.83463939  0.19348104  1
  O  O355  1  0.37915587  0.83367502  0.70182101  1
  O  O356  1  0.70800030  0.33543800  0.19322959  1
  O  O357  1  0.71128214  0.33382909  0.69533881  1
  O  O358  1  0.71476029  0.82358102  0.19530416  1
  O  O359  1  0.71284874  0.83103659  0.69387206  1
  O  O360  1  0.21437260  0.41850359  0.19448389  1
  O  O361  1  0.21523272  0.40787714  0.69645582  1
  O  O362  1  0.21323886  0.91572415  0.19284490  1
  O  O363  1  0.20878079  0.91696908  0.69461375  1
  O  O364  1  0.54073284  0.41727796  0.19658313  1
  O  O365  1  0.54612161  0.41596775  0.70294535  1
  O  O366  1  0.53059198  0.91735370  0.19110753  1
  O  O367  1  0.54572066  0.91582593  0.69300683  1
  O  O368  1  0.87644232  0.41770303  0.19863742  1
  O  O369  1  0.87660740  0.41431291  0.69704211  1
  O  O370  1  0.88062008  0.91598023  0.19634746  1
  O  O371  1  0.87791583  0.91818995  0.70007304  1
  O  O372  1  0.04796986  0.16489709  0.19735692  1
  O  O373  1  0.04100220  0.16629227  0.69581900  1
  O  O374  1  0.04750369  0.67172979  0.19527270  1
  O  O375  1  0.03103198  0.66558589  0.69072578  1
  O  O376  1  0.36688458  0.16856732  0.19516628  1
  O  O377  1  0.37801687  0.16513811  0.70077001  1
  O  O378  1  0.37866466  0.66187521  0.19466152  1
  O  O379  1  0.37953379  0.66897886  0.69303005  1
  O  O380  1  0.70655949  0.16940751  0.19552282  1
  O  O381  1  0.70965905  0.16882302  0.69655791  1
  O  O382  1  0.70420116  0.66341393  0.19382842  1
  O  O383  1  0.71187705  0.66604921  0.69585313  1
  O  O384  1  0.12668722  0.08240332  0.30325519  1
  O  O385  1  0.12098460  0.08206670  0.80679626  1
  O  O386  1  0.12858934  0.58543214  0.30054154  1
  O  O387  1  0.11271725  0.58772468  0.80743262  1
  O  O388  1  0.45324825  0.07672449  0.30549579  1
  O  O389  1  0.45881570  0.07983720  0.80199566  1
  O  O390  1  0.45490218  0.58272026  0.30624792  1
  O  O391  1  0.45858141  0.58346928  0.79949743  1
  O  O392  1  0.79110022  0.08898628  0.30782851  1
  O  O393  1  0.78922754  0.08357688  0.80321435  1
  O  O394  1  0.78692646  0.58190948  0.30408352  1
  O  O395  1  0.78977204  0.58238912  0.80054206  1
  O  O396  1  0.29109736  0.33185536  0.30646827  1
  O  O397  1  0.29647985  0.33322110  0.81125153  1
  O  O398  1  0.28928064  0.84036652  0.30355353  1
  O  O399  1  0.28687162  0.83348171  0.80616840  1
  O  O400  1  0.62262421  0.33691574  0.30634182  1
  O  O401  1  0.62615013  0.33103128  0.80616158  1
  O  O402  1  0.61596189  0.82323931  0.30759343  1
  O  O403  1  0.62663264  0.83467727  0.80256657  1
  O  O404  1  0.95509088  0.33657899  0.30649020  1
  O  O405  1  0.95711162  0.33144545  0.80688088  1
  O  O406  1  0.96156659  0.83232957  0.30515086  1
  O  O407  1  0.95639256  0.83455109  0.80582124  1
  O  O408  1  0.12266802  0.41558345  0.29909458  1
  O  O409  1  0.11560749  0.41222159  0.80891488  1
  O  O410  1  0.12530902  0.91754592  0.30248615  1
  O  O411  1  0.12366886  0.91812346  0.80535315  1
  O  O412  1  0.45500565  0.41797742  0.30562357  1
  O  O413  1  0.45981831  0.41356364  0.80886266  1
  O  O414  1  0.45854049  0.91692764  0.30472880  1
  O  O415  1  0.45976040  0.91439337  0.80746840  1
  O  O416  1  0.78609029  0.41721088  0.30499321  1
  O  O417  1  0.79192051  0.41315053  0.80744862  1
  O  O418  1  0.79903612  0.91927757  0.30074507  1
  O  O419  1  0.78988712  0.91761065  0.80366199  1
  O  O420  1  0.29106435  0.16184471  0.30405886  1
  O  O421  1  0.28786683  0.16467265  0.80372583  1
  O  O422  1  0.29190115  0.66764279  0.30749428  1
  O  O423  1  0.29911541  0.66815062  0.81066838  1
  O  O424  1  0.63286980  0.17283307  0.30733651  1
  O  O425  1  0.62462956  0.16552089  0.80663951  1
  O  O426  1  0.62012902  0.66224598  0.30520071  1
  O  O427  1  0.62636645  0.66729856  0.80680585  1
  O  O428  1  0.95389715  0.16330148  0.30361992  1
  O  O429  1  0.95315243  0.16608189  0.80359242  1
  O  O430  1  0.95308993  0.66786817  0.30562120  1
  O  O431  1  0.95620458  0.66821506  0.80857372  1
  F  F432  1  0.04728923  -0.00036900  0.19890265  1
  F  F433  1  0.04401250  0.00193489  0.70372096  1
  F  F434  1  0.04629487  0.49822761  0.19665020  1
  F  F435  1  0.02945524  0.49816182  0.69731794  1
  F  F436  1  0.37818567  -0.00038095  0.20049485  1
  F  F437  1  0.37876747  -0.00202785  0.70314332  1
  F  F438  1  0.37746939  0.49998845  0.20335654  1
  F  F439  1  0.38038569  0.49525391  0.70293720  1
  F  F440  1  0.71639641  0.01417633  0.19915365  1
  F  F441  1  0.71182265  0.00126247  0.70127763  1
  F  F442  1  0.70903492  0.49943603  0.20200961  1
  F  F443  1  0.71258576  0.49684712  0.70300845  1
  F  F444  1  0.21436482  0.25121768  0.20160866  1
  F  F445  1  0.20998696  0.24720902  0.70331792  1
  F  F446  1  0.21092254  0.74971247  0.20123672  1
  F  F447  1  0.21411172  0.75285590  0.70217545  1
  F  F448  1  0.54862554  0.26247838  0.19963844  1
  F  F449  1  0.54626489  0.24821740  0.70342831  1
  F  F450  1  0.54307176  0.74701646  0.20081493  1
  F  F451  1  0.54898063  0.74986075  0.70332221  1
  F  F452  1  0.87317864  0.25083901  0.19871602  1
  F  F453  1  0.87855628  0.25040756  0.70340176  1
  F  F454  1  0.88099564  0.74942612  0.20266887  1
  F  F455  1  0.87807441  0.74799448  0.70434362  1
  F  F456  1  0.28743868  -0.00032587  0.29522610  1
  F  F457  1  0.28740108  -0.00185898  0.79807078  1
  F  F458  1  0.28933401  0.50059148  0.29852733  1
  F  F459  1  0.30421227  0.49895957  0.80642749  1
  F  F460  1  0.61798951  0.01016128  0.30430576  1
  F  F461  1  0.62319059  -0.00153754  0.79608937  1
  F  F462  1  0.61950616  0.49931653  0.29844851  1
  F  F463  1  0.62503226  0.50024512  0.80102057  1
  F  F464  1  0.95882380  0.00369646  0.29446972  1
  F  F465  1  0.95422839  0.00272980  0.79904758  1
  F  F466  1  0.95357465  0.49930260  0.29891149  1
  F  F467  1  0.95343565  0.49872729  0.79979759  1
  F  F468  1  0.12959581  0.24961478  0.29931550  1
  F  F469  1  0.11670597  0.24219568  0.80348225  1
  F  F470  1  0.12295221  0.75357867  0.29869437  1
  F  F471  1  0.12020381  0.75327967  0.80158258  1
  F  F472  1  0.45086344  0.26025262  0.30335802  1
  F  F473  1  0.45691699  0.25080690  0.79951257  1
  F  F474  1  0.45644933  0.74940898  0.29812670  1
  F  F475  1  0.45743250  0.74915221  0.79854039  1
  F  F476  1  0.78802195  0.25353505  0.29667073  1
  F  F477  1  0.78805719  0.24945299  0.79827936  1
  F  F478  1  0.78733994  0.74536275  0.29912666  1
  F  F479  1  0.78986074  0.75168520  0.79855059  1
