# generated using pymatgen
data_K24Na3Li5Mg64Fe17Si79(O5F)48
_symmetry_space_group_name_H-M   'P 1'
_cell_length_a   16.08368481
_cell_length_b   18.56974414
_cell_length_c   20.53948927
_cell_angle_alpha   89.99886910
_cell_angle_beta   100.01656623
_cell_angle_gamma   89.99634859
_symmetry_Int_Tables_number   1
_chemical_formula_structural   K24Na3Li5Mg64Fe17Si79(O5F)48
_chemical_formula_sum   'K24 Na3 Li5 Mg64 Fe17 Si79 O240 F48'
_cell_volume   6041.02192180
_cell_formula_units_Z   1
loop_
 _symmetry_equiv_pos_site_id
 _symmetry_equiv_pos_as_xyz
  1  'x, y, z'
loop_
 _atom_site_type_symbol
 _atom_site_label
 _atom_site_symmetry_multiplicity
 _atom_site_fract_x
 _atom_site_fract_y
 _atom_site_fract_z
 _atom_site_occupancy
  K  K0  1  0.00678778  -0.00332768  0.00130575  1
  K  K1  1  -0.00007764  0.01141417  0.49904584  1
  K  K2  1  0.00406621  0.49421660  0.00380808  1
  K  K3  1  -0.00210535  0.49792134  0.49590995  1
  K  K4  1  0.31961532  0.00941587  0.00414367  1
  K  K5  1  0.32840068  0.00453343  0.49483109  1
  K  K6  1  0.33664162  0.48978258  0.00471735  1
  K  K7  1  0.33267531  0.49634509  0.49440834  1
  K  K8  1  0.66035990  0.00523630  -0.00150291  1
  K  K9  1  0.67246482  0.00285201  0.49702890  1
  K  K10  1  0.66130710  0.50539305  -0.00214411  1
  K  K11  1  0.66955932  0.49130322  0.49969362  1
  K  K12  1  0.17117774  0.25205887  0.00389175  1
  K  K13  1  0.17090923  0.24040503  0.49533489  1
  K  K14  1  0.17284545  0.75542513  0.00885835  1
  K  K15  1  0.17092153  0.74645466  0.49190725  1
  K  K16  1  0.49467445  0.25144379  -0.00246184  1
  K  K17  1  0.49667289  0.25035433  0.49935367  1
  K  K18  1  0.50672281  0.75169951  0.00049979  1
  K  K19  1  0.50187702  0.75715198  0.49796190  1
  K  K20  1  0.83510131  0.25267240  -0.00252732  1
  K  K21  1  0.83407540  0.25375693  0.50225784  1
  K  K22  1  0.82836016  0.73833617  -0.00141889  1
  K  K23  1  0.82226495  0.75567437  0.49500439  1
  Na  Na24  1  0.16634638  0.00019041  0.75049858  1
  Na  Na25  1  0.16789181  0.33063338  0.24901805  1
  Na  Na26  1  0.66279930  0.08139482  0.74940588  1
  Li  Li27  1  0.49233124  0.00273615  0.24971767  1
  Li  Li28  1  0.66444721  0.74811796  0.75624383  1
  Li  Li29  1  0.50209353  0.17156532  0.74937277  1
  Li  Li30  1  0.50116139  0.32365537  0.75149987  1
  Li  Li31  1  0.33823891  0.07875128  0.24939629  1
  Mg  Mg32  1  0.50101530  0.49849712  0.24761337  1
  Mg  Mg33  1  0.83296525  0.49921655  0.25084482  1
  Mg  Mg34  1  0.16902552  -0.00039840  0.24921675  1
  Mg  Mg35  1  0.33867511  0.24903233  0.75050235  1
  Mg  Mg36  1  0.33373763  0.75319692  0.24878521  1
  Mg  Mg37  1  0.33238693  0.24469084  0.24721830  1
  Mg  Mg38  1  0.33546299  0.74904715  0.75079702  1
  Mg  Mg39  1  0.66759992  0.75291862  0.25206955  1
  Mg  Mg40  1  0.49987139  0.00334701  0.75181239  1
  Mg  Mg41  1  0.83181313  -0.00001223  0.75013463  1
  Mg  Mg42  1  0.00085172  0.24934604  0.75053618  1
  Mg  Mg43  1  0.16713687  0.50016676  0.74861626  1
  Mg  Mg44  1  0.16808395  0.49911188  0.24859656  1
  Mg  Mg45  1  -0.00186057  0.75076011  0.75012958  1
  Mg  Mg46  1  0.50091145  0.49797126  0.75256540  1
  Mg  Mg47  1  0.83076645  0.00163967  0.25391408  1
  Mg  Mg48  1  0.66051041  0.24772662  0.74738685  1
  Mg  Mg49  1  0.66458731  0.24939866  0.25141381  1
  Mg  Mg50  1  0.83192361  0.49835630  0.75196531  1
  Mg  Mg51  1  0.00144688  0.74941015  0.24785225  1
  Mg  Mg52  1  -0.00060855  0.24894431  0.25222845  1
  Mg  Mg53  1  0.50416109  0.66588840  0.75276601  1
  Mg  Mg54  1  0.16875591  0.83514267  0.24698729  1
  Mg  Mg55  1  0.66444447  0.41285342  0.75015259  1
  Mg  Mg56  1  0.00074996  0.08493187  0.75033137  1
  Mg  Mg57  1  0.16947558  0.16327629  0.25045677  1
  Mg  Mg58  1  0.66497973  0.08235664  0.25430134  1
  Mg  Mg59  1  0.66623128  0.41544203  0.24995556  1
  Mg  Mg60  1  0.33218947  0.41331071  0.24595942  1
  Mg  Mg61  1  0.33315282  0.92104889  0.24812071  1
  Mg  Mg62  1  0.00393138  0.58369479  0.24866428  1
  Mg  Mg63  1  0.49780645  0.16201458  0.24954447  1
  Mg  Mg64  1  0.50007057  0.66773495  0.24797198  1
  Mg  Mg65  1  0.33866833  0.41447803  0.75051714  1
  Mg  Mg66  1  0.33543696  0.08563807  0.75028770  1
  Mg  Mg67  1  0.33772624  0.58311525  0.75194648  1
  Mg  Mg68  1  0.66708883  0.91912550  0.25371248  1
  Mg  Mg69  1  0.83428783  0.83628724  0.25313352  1
  Mg  Mg70  1  0.16771703  0.83383666  0.75074559  1
  Mg  Mg71  1  0.49785850  0.33344813  0.24707757  1
  Mg  Mg72  1  0.66741132  0.58491475  0.25019824  1
  Mg  Mg73  1  -0.00227429  0.41492348  0.74758344  1
  Mg  Mg74  1  0.16634573  0.66554520  0.24622606  1
  Mg  Mg75  1  0.49945018  0.83933359  0.25100543  1
  Mg  Mg76  1  0.83426005  0.33357676  0.74923395  1
  Mg  Mg77  1  0.00041049  0.91558625  0.24997230  1
  Mg  Mg78  1  0.16775193  0.66617564  0.74958645  1
  Mg  Mg79  1  0.16712004  0.33454554  0.74796805  1
  Mg  Mg80  1  0.00030960  0.91650871  0.75230984  1
  Mg  Mg81  1  0.83375991  0.33440155  0.25309435  1
  Mg  Mg82  1  0.83618088  0.66605873  0.25072439  1
  Mg  Mg83  1  -0.00277373  0.58472641  0.74687355  1
  Mg  Mg84  1  0.82818110  0.66647635  0.75179861  1
  Mg  Mg85  1  -0.00017485  0.08447678  0.25243015  1
  Mg  Mg86  1  0.66553458  0.91504273  0.75341553  1
  Mg  Mg87  1  0.16573801  0.16499768  0.74955461  1
  Mg  Mg88  1  0.33372900  0.91729831  0.75108190  1
  Mg  Mg89  1  0.82870966  0.83197027  0.75319353  1
  Mg  Mg90  1  0.00312049  0.41533094  0.25203942  1
  Mg  Mg91  1  0.83279645  0.16526876  0.25370151  1
  Mg  Mg92  1  0.33249592  0.58426759  0.24619756  1
  Mg  Mg93  1  0.66530114  0.58579353  0.75368907  1
  Mg  Mg94  1  0.50381831  0.83294953  0.75303987  1
  Mg  Mg95  1  0.83181825  0.16594263  0.75088923  1
  Fe  Fe96  1  0.02071666  0.66596896  0.10647638  1
  Fe  Fe97  1  0.52903393  0.41793246  0.10831309  1
  Fe  Fe98  1  0.14626093  0.58282276  0.38891982  1
  Fe  Fe99  1  0.98160090  0.17224444  0.39133272  1
  Fe  Fe100  1  0.47386037  0.57955402  0.89286760  1
  Fe  Fe101  1  0.30733437  0.32699730  0.38851174  1
  Fe  Fe102  1  0.97857161  0.33381103  0.89037994  1
  Fe  Fe103  1  0.80748068  0.08891723  0.39510394  1
  Fe  Fe104  1  0.64171241  0.67359479  0.89375078  1
  Fe  Fe105  1  0.19129152  0.41650513  0.10583806  1
  Fe  Fe106  1  0.80769189  0.41898305  0.39053294  1
  Fe  Fe107  1  0.31320351  0.83509329  0.38841356  1
  Fe  Fe108  1  0.02369597  0.16631231  0.60845623  1
  Fe  Fe109  1  0.14091972  0.07853771  0.89233726  1
  Fe  Fe110  1  0.18896809  0.91923934  0.10652100  1
  Fe  Fe111  1  0.85611952  0.42192199  0.60911559  1
  Fe  Fe112  1  0.81075779  0.91545199  0.39374689  1
  Si  Si113  1  0.68892002  0.16506806  0.61464872  1
  Si  Si114  1  0.19688129  0.58899837  0.10606384  1
  Si  Si115  1  0.85501881  0.57655784  0.11308564  1
  Si  Si116  1  0.81075159  0.92112871  0.88811892  1
  Si  Si117  1  0.19988361  0.08307350  0.61186168  1
  Si  Si118  1  0.63285564  0.16805581  0.38810522  1
  Si  Si119  1  0.98000980  0.33787705  0.38904616  1
  Si  Si120  1  0.97587639  0.66727506  0.38604419  1
  Si  Si121  1  0.97310803  0.16338317  0.89071431  1
  Si  Si122  1  0.52140905  0.08284066  0.61464447  1
  Si  Si123  1  0.68847884  0.16573913  0.11484268  1
  Si  Si124  1  0.63815079  0.66758874  0.38498948  1
  Si  Si125  1  0.14405505  0.07663002  0.38635109  1
  Si  Si126  1  0.85478581  0.08361017  0.11449438  1
  Si  Si127  1  0.02606811  0.83627607  0.61451325  1
  Si  Si128  1  0.52373851  0.91867492  0.61546744  1
  Si  Si129  1  0.97160000  0.82949805  0.88725657  1
  Si  Si130  1  0.80872336  0.08531295  0.88607817  1
  Si  Si131  1  0.52670409  0.58929079  0.11266979  1
  Si  Si132  1  0.36104520  0.66561337  0.61441712  1
  Si  Si133  1  0.85552524  0.91218523  0.61777884  1
  Si  Si134  1  0.30562623  0.66554460  0.88634940  1
  Si  Si135  1  0.31760034  0.66659423  0.38637103  1
  Si  Si136  1  0.14053105  0.41799446  0.38834278  1
  Si  Si137  1  0.36235004  0.32643226  0.10602977  1
  Si  Si138  1  0.69582341  0.66796614  0.11628031  1
  Si  Si139  1  0.97667701  0.83013024  0.38635945  1
  Si  Si140  1  0.31081291  0.15882960  0.38625897  1
  Si  Si141  1  0.14556085  0.42440147  0.88485426  1
  Si  Si142  1  0.85756556  0.92052061  0.11508233  1
  Si  Si143  1  0.68865358  0.66991111  0.61655811  1
  Si  Si144  1  0.80797624  0.57943234  0.88865648  1
  Si  Si145  1  0.01650702  0.83424329  0.10930858  1
  Si  Si146  1  0.47419041  0.08264786  0.38218314  1
  Si  Si147  1  0.85768635  0.41313821  0.11609797  1
  Si  Si148  1  0.18385507  0.08863534  0.11182923  1
  Si  Si149  1  0.19805217  0.41830094  0.61351419  1
  Si  Si150  1  0.53245756  0.91471184  0.11562469  1
  Si  Si151  1  0.85405740  0.59299380  0.61170097  1
  Si  Si152  1  0.14092086  0.58918133  0.88239683  1
  Si  Si153  1  0.52588311  0.08042684  0.11532280  1
  Si  Si154  1  0.63527257  0.33333216  0.38658778  1
  Si  Si155  1  0.64139952  0.16555124  0.88502579  1
  Si  Si156  1  0.64281185  0.84343924  0.89094822  1
  Si  Si157  1  0.13929064  0.91180034  0.38604857  1
  Si  Si158  1  0.19292807  0.58495858  0.61413212  1
  Si  Si159  1  0.69643635  0.83342864  0.11556048  1
  Si  Si160  1  0.36071142  0.83119596  0.61497438  1
  Si  Si161  1  0.85281491  0.07904932  0.61403500  1
  Si  Si162  1  0.01847991  0.16777959  0.11378648  1
  Si  Si163  1  0.36331789  0.67210538  0.11315701  1
  Si  Si164  1  0.52690697  0.41667265  0.61520251  1
  Si  Si165  1  0.02602613  0.66989536  0.61321489  1
  Si  Si166  1  0.52660029  0.58126184  0.61375687  1
  Si  Si167  1  0.63603814  0.83375084  0.38923217  1
  Si  Si168  1  0.35870035  0.16135818  0.11450723  1
  Si  Si169  1  0.47394529  0.08660857  0.88533499  1
  Si  Si170  1  0.68834949  0.83374723  0.61920438  1
  Si  Si171  1  0.97197967  0.66324183  0.88426460  1
  Si  Si172  1  0.02986707  0.33952078  0.60927426  1
  Si  Si173  1  0.36399583  0.83752166  0.11072102  1
  Si  Si174  1  0.31159343  0.82943041  0.88575743  1
  Si  Si175  1  0.01818361  0.33162662  0.11350503  1
  Si  Si176  1  0.47494813  0.92207872  0.38672862  1
  Si  Si177  1  0.69551525  0.33022056  0.11245703  1
  Si  Si178  1  0.80921362  0.59161629  0.38723277  1
  Si  Si179  1  0.14210295  0.90480097  0.88848575  1
  Si  Si180  1  0.36131029  0.33415734  0.61523660  1
  Si  Si181  1  0.47209311  0.92096917  0.88671485  1
  Si  Si182  1  0.47797487  0.41097318  0.88608178  1
  Si  Si183  1  0.68889152  0.32954403  0.61135184  1
  Si  Si184  1  0.47728152  0.57933891  0.38213878  1
  Si  Si185  1  0.19661370  0.91405576  0.61489274  1
  Si  Si186  1  0.36096049  0.16816469  0.61347742  1
  Si  Si187  1  0.64014755  0.32752434  0.88466462  1
  Si  Si188  1  0.30906149  0.16941433  0.88785380  1
  Si  Si189  1  0.47063607  0.41628238  0.38442262  1
  Si  Si190  1  0.30786323  0.33564640  0.88368159  1
  Si  Si191  1  0.80203807  0.41288392  0.88829618  1
  O  O192  1  0.26798543  0.12243537  0.08558668  1
  O  O193  1  0.27758139  0.12094281  0.57977927  1
  O  O194  1  0.28418146  0.62115014  0.08129799  1
  O  O195  1  0.27028451  0.62551142  0.58509251  1
  O  O196  1  0.60229191  0.12032767  0.08295293  1
  O  O197  1  0.60301140  0.11763552  0.58710893  1
  O  O198  1  0.60911345  0.62517788  0.08667131  1
  O  O199  1  0.60449939  0.62142590  0.58457848  1
  O  O200  1  0.93522570  0.11630758  0.08392748  1
  O  O201  1  0.92700589  0.10963887  0.57883737  1
  O  O202  1  0.93141282  0.59990409  0.07613728  1
  O  O203  1  0.93592089  0.63085219  0.58418608  1
  O  O204  1  0.09579155  0.35667132  0.07873790  1
  O  O205  1  0.11584092  0.37095757  0.58297396  1
  O  O206  1  0.09553314  0.85920633  0.07495877  1
  O  O207  1  0.10282789  0.87782369  0.58591869  1
  O  O208  1  0.44073141  0.35685781  0.07300984  1
  O  O209  1  0.43940351  0.37272998  0.58593558  1
  O  O210  1  0.44944970  0.86691500  0.08332368  1
  O  O211  1  0.43800926  0.87131372  0.58596882  1
  O  O212  1  0.78429962  0.35402799  0.08815993  1
  O  O213  1  0.76265086  0.36291079  0.57612929  1
  O  O214  1  0.77521512  0.86964208  0.08578718  1
  O  O215  1  0.77107754  0.86323991  0.58899900  1
  O  O216  1  0.27747983  0.36824974  0.07127795  1
  O  O217  1  0.27824765  0.38397477  0.58427290  1
  O  O218  1  0.28528164  0.88459824  0.07407061  1
  O  O219  1  0.26978851  0.86908534  0.58359522  1
  O  O220  1  0.62366919  0.38348390  0.07487193  1
  O  O221  1  0.60132002  0.37609623  0.58338296  1
  O  O222  1  0.61126383  0.87877158  0.08368866  1
  O  O223  1  0.60437396  0.88186255  0.58753570  1
  O  O224  1  0.93864669  0.38688033  0.08364030  1
  O  O225  1  0.95594702  0.39646283  0.58031018  1
  O  O226  1  0.93907781  0.89388663  0.08441667  1
  O  O227  1  0.93526384  0.87627118  0.58714801  1
  O  O228  1  0.10117204  0.14171330  0.08287054  1
  O  O229  1  0.11308196  0.11958871  0.57607177  1
  O  O230  1  0.12112432  0.64428770  0.07521558  1
  O  O231  1  0.10423806  0.62854244  0.58564719  1
  O  O232  1  0.43421428  0.11730476  0.08397545  1
  O  O233  1  0.43901374  0.13188595  0.58160668  1
  O  O234  1  0.44872755  0.64552894  0.08660851  1
  O  O235  1  0.43708623  0.62425539  0.58468904  1
  O  O236  1  0.76840280  0.12970979  0.08498568  1
  O  O237  1  0.76448704  0.12320456  0.58480394  1
  O  O238  1  0.77220792  0.62903070  0.08627381  1
  O  O239  1  0.77184106  0.64596188  0.58473902  1
  O  O240  1  0.06797097  0.10457517  0.42136037  1
  O  O241  1  0.04085609  0.10274947  0.92265995  1
  O  O242  1  0.04657734  0.61139240  0.42108367  1
  O  O243  1  0.05817291  0.61743985  0.91184804  1
  O  O244  1  0.38887919  0.10144828  0.41291259  1
  O  O245  1  0.40126543  0.13014210  0.91665261  1
  O  O246  1  0.39463522  0.60627920  0.41163884  1
  O  O247  1  0.37051062  0.60595302  0.92075835  1
  O  O248  1  0.70581620  0.11546875  0.42445356  1
  O  O249  1  0.72345488  0.11287088  0.91380271  1
  O  O250  1  0.72550053  0.62480929  0.41488499  1
  O  O251  1  0.73924947  0.61701190  0.92571156  1
  O  O252  1  0.20559085  0.35323038  0.41576120  1
  O  O253  1  0.23079910  0.37613445  0.91234839  1
  O  O254  1  0.21263857  0.85715593  0.42032146  1
  O  O255  1  0.22621482  0.85276525  0.91391848  1
  O  O256  1  0.54873310  0.36077815  0.41233201  1
  O  O257  1  0.55410841  0.35210274  0.91143740  1
  O  O258  1  0.55223441  0.86483424  0.41583423  1
  O  O259  1  0.56164945  0.88176504  0.91906462  1
  O  O260  1  0.89677502  0.35661622  0.42145662  1
  O  O261  1  0.88082496  0.36421080  0.92256069  1
  O  O262  1  0.89662186  0.84627437  0.42140885  1
  O  O263  1  0.89393706  0.86989639  0.91660349  1
  O  O264  1  0.04827689  0.40360864  0.41230354  1
  O  O265  1  0.06881314  0.39883544  0.92015670  1
  O  O266  1  0.05258164  0.88776726  0.41401513  1
  O  O267  1  0.06156169  0.86781008  0.91815238  1
  O  O268  1  0.39337158  0.39581816  0.42158986  1
  O  O269  1  0.39431428  0.37912626  0.91396085  1
  O  O270  1  0.39718403  0.90219313  0.42446282  1
  O  O271  1  0.39346657  0.88064370  0.91515943  1
  O  O272  1  0.71031474  0.38599692  0.42092625  1
  O  O273  1  0.71762576  0.38258325  0.91642604  1
  O  O274  1  0.71681663  0.87652078  0.42747638  1
  O  O275  1  0.72651582  0.89603097  0.91727824  1
  O  O276  1  0.23000779  0.12293743  0.41523348  1
  O  O277  1  0.23949366  0.13328322  0.92559324  1
  O  O278  1  0.23803817  0.64430034  0.42139223  1
  O  O279  1  0.21338282  0.64928795  0.90905111  1
  O  O280  1  0.54473488  0.14372265  0.41369828  1
  O  O281  1  0.56379011  0.12711208  0.91654656  1
  O  O282  1  0.55907206  0.63012527  0.41317434  1
  O  O283  1  0.55391680  0.64304128  0.93454412  1
  O  O284  1  0.88661927  0.15729156  0.42819508  1
  O  O285  1  0.88355681  0.14100415  0.91772750  1
  O  O286  1  0.88522863  0.65087976  0.41200304  1
  O  O287  1  0.89847999  0.62179358  0.91464686  1
  O  O288  1  0.16438107  0.01275198  0.07282027  1
  O  O289  1  0.19837950  -0.00341615  0.58767381  1
  O  O290  1  0.17813679  0.51115852  0.07034728  1
  O  O291  1  0.18505359  0.50236867  0.58564095  1
  O  O292  1  0.52242568  -0.00267662  0.08572166  1
  O  O293  1  0.50925230  -0.00042473  0.58309032  1
  O  O294  1  0.50512712  0.51295829  0.07713828  1
  O  O295  1  0.51702143  0.49936112  0.58242017  1
  O  O296  1  0.83487817  0.00175282  0.08444793  1
  O  O297  1  0.83536282  -0.00635270  0.58995170  1
  O  O298  1  0.82634899  0.49371504  0.08799231  1
  O  O299  1  0.83224576  0.51662823  0.57644858  1
  O  O300  1  -0.00979543  0.24884686  0.08609408  1
  O  O301  1  0.00905138  0.26095371  0.57651806  1
  O  O302  1  -0.02070862  0.75782272  0.07823091  1
  O  O303  1  0.02203707  0.75318731  0.58480978  1
  O  O304  1  0.35267374  0.24111869  0.08011048  1
  O  O305  1  0.34950064  0.25189261  0.58440789  1
  O  O306  1  0.34719846  0.75374855  0.08297471  1
  O  O307  1  0.35522687  0.74832110  0.58503778  1
  O  O308  1  0.67585382  0.24712689  0.08381252  1
  O  O309  1  0.67156124  0.24626590  0.58233023  1
  O  O310  1  0.68638956  0.75060571  0.08663285  1
  O  O311  1  0.66718301  0.75234429  0.58848435  1
  O  O312  1  0.16537283  -0.00665655  0.41371537  1
  O  O313  1  0.16377453  -0.01800361  0.92187508  1
  O  O314  1  0.17736158  0.49244532  0.42553913  1
  O  O315  1  0.16985173  0.50868883  0.90953303  1
  O  O316  1  0.50870949  0.00333375  0.41255851  1
  O  O317  1  0.47930294  0.00352710  0.91662139  1
  O  O318  1  0.50334395  0.49853383  0.41039829  1
  O  O319  1  0.50490325  0.48574022  0.92398780  1
  O  O320  1  0.84186338  0.00112561  0.43509918  1
  O  O321  1  0.83177435  0.00317947  0.91689084  1
  O  O322  1  0.83236714  0.51478577  0.42188025  1
  O  O323  1  0.82020760  0.49607864  0.91579553  1
  O  O324  1  0.33589591  0.23421474  0.42510396  1
  O  O325  1  0.31968922  0.25407097  0.91403781  1
  O  O326  1  0.35504002  0.74313656  0.41732349  1
  O  O327  1  0.33481392  0.74752328  0.91337978  1
  O  O328  1  0.65193123  0.25108922  0.41586093  1
  O  O329  1  0.66194502  0.24659744  0.91853992  1
  O  O330  1  0.64544445  0.74885545  0.41612947  1
  O  O331  1  0.66415693  0.76832552  0.92906926  1
  O  O332  1  1.02386348  0.26363739  0.41840337  1
  O  O333  1  1.00327196  0.24090121  0.92376742  1
  O  O334  1  1.00959130  0.74842389  0.41127820  1
  O  O335  1  0.97803332  0.74571456  0.91441657  1
  O  O336  1  0.19857802  0.08221919  0.19126025  1
  O  O337  1  0.21828970  0.08953384  0.69154792  1
  O  O338  1  0.21383829  0.58750294  0.18765189  1
  O  O339  1  0.21086586  0.58528623  0.69463147  1
  O  O340  1  0.54724354  0.08510607  0.19437766  1
  O  O341  1  0.53176410  0.07899689  0.69283536  1
  O  O342  1  0.54516671  0.58638797  0.19384980  1
  O  O343  1  0.54363605  0.58195838  0.69357672  1
  O  O344  1  0.87398333  0.08217478  0.19426291  1
  O  O345  1  0.87301085  0.08193570  0.69506314  1
  O  O346  1  0.87475877  0.58233235  0.19400050  1
  O  O347  1  0.87482871  0.58892671  0.69285521  1
  O  O348  1  0.03078269  0.33181792  0.19335133  1
  O  O349  1  0.04797653  0.33767157  0.69111735  1
  O  O350  1  0.03882725  0.83431768  0.19102223  1
  O  O351  1  0.04329769  0.83287188  0.69501399  1
  O  O352  1  0.37951451  0.33105747  0.18715991  1
  O  O353  1  0.37350850  0.33359783  0.69452358  1
  O  O354  1  0.38080089  0.83511265  0.19129806  1
  O  O355  1  0.37764945  0.83216594  0.69538207  1
  O  O356  1  0.70773260  0.33109845  0.19320372  1
  O  O357  1  0.70880159  0.33311682  0.69212385  1
  O  O358  1  0.71121528  0.83289827  0.19569753  1
  O  O359  1  0.70842220  0.83379737  0.69885188  1
  O  O360  1  0.21580992  0.42527427  0.19535688  1
  O  O361  1  0.21322157  0.41917486  0.69414785  1
  O  O362  1  0.20854297  0.91768967  0.19734203  1
  O  O363  1  0.21557454  0.90718358  0.69428760  1
  O  O364  1  0.54651404  0.41697506  0.20030108  1
  O  O365  1  0.54607545  0.42138448  0.69445869  1
  O  O366  1  0.55032768  0.91188603  0.19495028  1
  O  O367  1  0.54106501  0.91642978  0.69572198  1
  O  O368  1  0.87684409  0.41602984  0.19629357  1
  O  O369  1  0.87526360  0.41998413  0.70080449  1
  O  O370  1  0.87581035  0.91819185  0.19526002  1
  O  O371  1  0.87613942  0.91088740  0.69811579  1
  O  O372  1  0.03891204  0.16428328  0.19360157  1
  O  O373  1  0.04323967  0.16830422  0.70013168  1
  O  O374  1  0.04204459  0.66751445  0.19791367  1
  O  O375  1  0.04336047  0.66876388  0.69382797  1
  O  O376  1  0.38030064  0.16529197  0.19357974  1
  O  O377  1  0.37351732  0.16734102  0.69291886  1
  O  O378  1  0.37884381  0.66981504  0.19389740  1
  O  O379  1  0.37617371  0.66674316  0.69454221  1
  O  O380  1  0.70685534  0.16632875  0.19487310  1
  O  O381  1  0.71321778  0.17145178  0.69355606  1
  O  O382  1  0.71201496  0.66856717  0.19681714  1
  O  O383  1  0.71020199  0.66363853  0.69579231  1
  O  O384  1  0.12347258  0.07912916  0.30545328  1
  O  O385  1  0.11853056  0.08929713  0.80292537  1
  O  O386  1  0.12592680  0.58390770  0.29721909  1
  O  O387  1  0.12152944  0.58642923  0.80149105  1
  O  O388  1  0.45858706  0.08388518  0.30337905  1
  O  O389  1  0.45509284  0.08183703  0.80615260  1
  O  O390  1  0.45968345  0.58384766  0.30164188  1
  O  O391  1  0.45614273  0.58321703  0.79984157  1
  O  O392  1  0.78666027  0.08396616  0.30159730  1
  O  O393  1  0.79766199  0.08174204  0.80682121  1
  O  O394  1  0.78954114  0.58712205  0.30600136  1
  O  O395  1  0.79041747  0.58220549  0.80729306  1
  O  O396  1  0.30370104  0.32946403  0.29925754  1
  O  O397  1  0.28945972  0.33528011  0.80326586  1
  O  O398  1  0.29087919  0.83379663  0.29707101  1
  O  O399  1  0.29247927  0.83152334  0.80504273  1
  O  O400  1  0.62215420  0.33257834  0.30562371  1
  O  O401  1  0.62850164  0.33058398  0.80516697  1
  O  O402  1  0.62360928  0.83354024  0.30819604  1
  O  O403  1  0.62170952  0.83802200  0.81075683  1
  O  O404  1  0.95653165  0.33514861  0.30713111  1
  O  O405  1  0.95755169  0.33318386  0.79861129  1
  O  O406  1  0.95724877  0.83234780  0.30488430  1
  O  O407  1  0.95465549  0.83114811  0.80663096  1
  O  O408  1  0.12063809  0.42520420  0.30794697  1
  O  O409  1  0.12493117  0.42056980  0.80361728  1
  O  O410  1  0.12080498  0.91293936  0.30507546  1
  O  O411  1  0.11883032  0.90412341  0.80835698  1
  O  O412  1  0.45491978  0.41737222  0.30348661  1
  O  O413  1  0.45619548  0.41860462  0.80615723  1
  O  O414  1  0.45452385  0.91487948  0.30681673  1
  O  O415  1  0.45577860  0.91609259  0.80637284  1
  O  O416  1  0.78638404  0.41817175  0.29855518  1
  O  O417  1  0.78667792  0.41473283  0.80721790  1
  O  O418  1  0.78854237  0.91655344  0.30105689  1
  O  O419  1  0.79191354  0.91669821  0.80794420  1
  O  O420  1  0.28995449  0.16590562  0.30654310  1
  O  O421  1  0.29055333  0.16684446  0.80704222  1
  O  O422  1  0.29516747  0.66654617  0.30463992  1
  O  O423  1  0.29004382  0.66659696  0.80469921  1
  O  O424  1  0.62103997  0.16735356  0.30695845  1
  O  O425  1  0.62185754  0.17232486  0.80692095  1
  O  O426  1  0.62282808  0.66804834  0.30439348  1
  O  O427  1  0.62097465  0.66561165  0.80253282  1
  O  O428  1  0.95332193  0.16548207  0.29940673  1
  O  O429  1  0.95376075  0.16596344  0.80906290  1
  O  O430  1  0.95656954  0.66596671  0.30492371  1
  O  O431  1  0.95574822  0.66629896  0.80359128  1
  F  F432  1  0.04238492  -0.00067154  0.20286249  1
  F  F433  1  0.03078216  -0.00374172  0.69850339  1
  F  F434  1  0.04298482  0.49810446  0.19923813  1
  F  F435  1  0.04609872  0.50334728  0.70016352  1
  F  F436  1  0.37823104  -0.00418564  0.19635671  1
  F  F437  1  0.37878056  -0.00272200  0.70084221  1
  F  F438  1  0.38169879  0.50194720  0.19935940  1
  F  F439  1  0.37748016  0.49946254  0.69962387  1
  F  F440  1  0.70939790  0.00001875  0.19928802  1
  F  F441  1  0.71540326  -0.01221754  0.70020718  1
  F  F442  1  0.71057663  0.50421254  0.20080781  1
  F  F443  1  0.71110516  0.50083263  0.70431273  1
  F  F444  1  0.21583709  0.23659613  0.19549897  1
  F  F445  1  0.21422884  0.25094353  0.70303600  1
  F  F446  1  0.21290574  0.74879577  0.19857353  1
  F  F447  1  0.21247834  0.74879450  0.70151575  1
  F  F448  1  0.54638777  0.24837515  0.20093384  1
  F  F449  1  0.54614377  0.25074905  0.69592137  1
  F  F450  1  0.54831330  0.75186416  0.20233456  1
  F  F451  1  0.53669741  0.75129532  0.70075831  1
  F  F452  1  0.87365100  0.25062730  0.20319674  1
  F  F453  1  0.87824885  0.24789758  0.70136561  1
  F  F454  1  0.87623675  0.75117976  0.20325281  1
  F  F455  1  0.87748408  0.75014221  0.70231072  1
  F  F456  1  0.28642560  -0.00105894  0.29871424  1
  F  F457  1  0.30101852  -0.00046826  0.80137928  1
  F  F458  1  0.29234147  0.50378238  0.29604087  1
  F  F459  1  0.28756170  0.50055783  0.79615427  1
  F  F460  1  0.62565896  -0.00073708  0.30076795  1
  F  F461  1  0.61584262  -0.00948364  0.80381200  1
  F  F462  1  0.62256796  0.50405688  0.29873760  1
  F  F463  1  0.62261997  0.49897645  0.79919198  1
  F  F464  1  0.95402463  -0.00133964  0.29783648  1
  F  F465  1  0.95261747  -0.00280009  0.79915982  1
  F  F466  1  0.95364550  0.50223606  0.29603912  1
  F  F467  1  0.95604900  0.50464040  0.79735063  1
  F  F468  1  0.11688384  0.23781870  0.29856552  1
  F  F469  1  0.12390094  0.25495374  0.79801827  1
  F  F470  1  0.12327264  0.75195198  0.29477023  1
  F  F471  1  0.12031376  0.74842407  0.79636693  1
  F  F472  1  0.45634035  0.24923592  0.29415844  1
  F  F473  1  0.45118498  0.24952857  0.80142520  1
  F  F474  1  0.45732543  0.75095304  0.29569393  1
  F  F475  1  0.45342808  0.75107709  0.79985270  1
  F  F476  1  0.78453966  0.25077632  0.29804997  1
  F  F477  1  0.78686690  0.25082880  0.79655941  1
  F  F478  1  0.78783870  0.75003682  0.29905712  1
  F  F479  1  0.79480541  0.74889305  0.80290550  1
