# generated using pymatgen
data_K24Na3Li5Mg64Fe17Si79(O5F)48
_symmetry_space_group_name_H-M   'P 1'
_cell_length_a   16.08100110
_cell_length_b   18.58933418
_cell_length_c   20.55390380
_cell_angle_alpha   89.99136479
_cell_angle_beta   100.02185361
_cell_angle_gamma   90.00585958
_symmetry_Int_Tables_number   1
_chemical_formula_structural   K24Na3Li5Mg64Fe17Si79(O5F)48
_chemical_formula_sum   'K24 Na3 Li5 Mg64 Fe17 Si79 O240 F48'
_cell_volume   6050.53041000
_cell_formula_units_Z   1
loop_
 _symmetry_equiv_pos_site_id
 _symmetry_equiv_pos_as_xyz
  1  'x, y, z'
loop_
 _atom_site_type_symbol
 _atom_site_label
 _atom_site_symmetry_multiplicity
 _atom_site_fract_x
 _atom_site_fract_y
 _atom_site_fract_z
 _atom_site_occupancy
  K  K0  1  -0.00423502  -0.00032197  0.00485040  1
  K  K1  1  0.00259303  -0.00235607  0.49704625  1
  K  K2  1  -0.00775983  0.49981571  0.00136498  1
  K  K3  1  -0.00423746  0.50084431  0.49594579  1
  K  K4  1  0.33993366  -0.00133354  -0.00137279  1
  K  K5  1  0.33216877  -0.00248141  0.50302760  1
  K  K6  1  0.34090364  0.50917004  -0.00167122  1
  K  K7  1  0.32911472  0.50894088  0.50132523  1
  K  K8  1  0.65879012  0.00214731  -0.00335694  1
  K  K9  1  0.67754272  -0.01029162  0.49624357  1
  K  K10  1  0.68553933  0.50786728  0.00133026  1
  K  K11  1  0.66821361  0.50603445  0.49973706  1
  K  K12  1  0.16449563  0.25365649  -0.00223961  1
  K  K13  1  0.16155255  0.24587416  0.50339886  1
  K  K14  1  0.17048227  0.74822725  0.00335688  1
  K  K15  1  0.16220091  0.75032718  0.49561668  1
  K  K16  1  0.50490056  0.25025091  -0.01038187  1
  K  K17  1  0.50064248  0.25058214  0.50739415  1
  K  K18  1  0.50157553  0.74933597  0.00925955  1
  K  K19  1  0.50512185  0.74708846  0.49662372  1
  K  K20  1  0.82434975  0.25821370  -0.00420228  1
  K  K21  1  0.83375122  0.24846882  0.49884888  1
  K  K22  1  0.83574364  0.74899970  0.00441361  1
  K  K23  1  0.83900800  0.75257331  0.50091903  1
  Na  Na24  1  0.49956548  0.00066904  0.24996496  1
  Na  Na25  1  0.49680219  0.83292927  0.24553531  1
  Na  Na26  1  0.50003802  0.33116810  0.75387956  1
  Li  Li27  1  -0.00006133  0.74892888  0.74517526  1
  Li  Li28  1  0.16488644  0.50109829  0.74837193  1
  Li  Li29  1  0.00387179  0.91404150  0.25742322  1
  Li  Li30  1  0.83481749  0.33236680  0.25114671  1
  Li  Li31  1  0.33341517  0.08556453  0.74942416  1
  Mg  Mg32  1  0.33424828  0.74902705  0.24995456  1
  Mg  Mg33  1  0.67031118  0.24775650  0.25208770  1
  Mg  Mg34  1  0.16082073  -0.00069222  0.25206569  1
  Mg  Mg35  1  -0.00080985  0.25137119  0.75079189  1
  Mg  Mg36  1  0.83460841  0.49907828  0.24901918  1
  Mg  Mg37  1  0.49656284  0.00043429  0.75340660  1
  Mg  Mg38  1  0.00006803  0.75172627  0.25026471  1
  Mg  Mg39  1  0.50115707  0.49887404  0.74982332  1
  Mg  Mg40  1  0.50106712  0.49934919  0.24489620  1
  Mg  Mg41  1  0.33264865  0.24702738  0.75224987  1
  Mg  Mg42  1  0.33328768  0.24942034  0.25086546  1
  Mg  Mg43  1  0.66505020  0.74945794  0.24529503  1
  Mg  Mg44  1  0.83362114  0.50148617  0.75016617  1
  Mg  Mg45  1  -0.00252925  0.24877880  0.25252716  1
  Mg  Mg46  1  0.83555427  -0.00141063  0.25247175  1
  Mg  Mg47  1  0.83470231  -0.00046570  0.75041335  1
  Mg  Mg48  1  0.16598930  0.50193520  0.25052199  1
  Mg  Mg49  1  0.66813134  0.74968282  0.74721918  1
  Mg  Mg50  1  0.17042448  0.00105270  0.75004116  1
  Mg  Mg51  1  0.33289725  0.74876396  0.74895350  1
  Mg  Mg52  1  0.66472749  0.24944388  0.75718701  1
  Mg  Mg53  1  0.66825810  0.58428647  0.24488261  1
  Mg  Mg54  1  0.50055850  0.16492342  0.25173362  1
  Mg  Mg55  1  0.16710232  0.66587687  0.24872438  1
  Mg  Mg56  1  0.67235170  0.41370181  0.25030886  1
  Mg  Mg57  1  0.49877376  0.66511267  0.24525299  1
  Mg  Mg58  1  0.00209516  0.08094048  0.25421002  1
  Mg  Mg59  1  -0.00052187  0.91407629  0.74628688  1
  Mg  Mg60  1  0.33244826  0.91771594  0.75176709  1
  Mg  Mg61  1  0.83512001  0.83401959  0.24852630  1
  Mg  Mg62  1  0.83289809  0.16439745  0.75267344  1
  Mg  Mg63  1  0.83500612  0.16605665  0.25384743  1
  Mg  Mg64  1  0.83771996  0.83409228  0.74826211  1
  Mg  Mg65  1  0.00079279  0.58440823  0.74652558  1
  Mg  Mg66  1  0.83101573  0.33515284  0.75275481  1
  Mg  Mg67  1  0.66856491  0.08161755  0.25143913  1
  Mg  Mg68  1  0.66684553  0.58438349  0.74795854  1
  Mg  Mg69  1  0.16630267  0.83522698  0.25294131  1
  Mg  Mg70  1  0.33405259  0.41658033  0.24831831  1
  Mg  Mg71  1  0.49725616  0.16396432  0.75576480  1
  Mg  Mg72  1  -0.00012612  0.08446650  0.74809329  1
  Mg  Mg73  1  0.83229991  0.66371402  0.24894158  1
  Mg  Mg74  1  0.16358927  0.66444997  0.74753640  1
  Mg  Mg75  1  0.50027999  0.66459939  0.74785931  1
  Mg  Mg76  1  0.66882745  0.91569015  0.75257700  1
  Mg  Mg77  1  0.00016296  0.58506733  0.25041129  1
  Mg  Mg78  1  0.16835510  0.16555470  0.75017919  1
  Mg  Mg79  1  0.16568188  0.33695174  0.74971798  1
  Mg  Mg80  1  0.33162599  0.08282989  0.25124392  1
  Mg  Mg81  1  0.16334905  0.83144282  0.74797299  1
  Mg  Mg82  1  0.16657347  0.33405686  0.25125456  1
  Mg  Mg83  1  0.66717184  0.41603174  0.75149865  1
  Mg  Mg84  1  0.50246306  0.33274902  0.24912298  1
  Mg  Mg85  1  0.50015541  0.83389767  0.75253175  1
  Mg  Mg86  1  -0.00077054  0.41889313  0.74922983  1
  Mg  Mg87  1  0.66608290  0.91622814  0.24881367  1
  Mg  Mg88  1  0.83761738  0.66759592  0.74624683  1
  Mg  Mg89  1  0.33319784  0.58627864  0.24752122  1
  Mg  Mg90  1  -0.00195389  0.41492578  0.25014934  1
  Mg  Mg91  1  0.33117780  0.41741023  0.75119916  1
  Mg  Mg92  1  0.16575402  0.16508232  0.25329493  1
  Mg  Mg93  1  0.33218024  0.91669824  0.24946008  1
  Mg  Mg94  1  0.33138466  0.58198093  0.74892539  1
  Mg  Mg95  1  0.66788614  0.08341725  0.75723628  1
  Fe  Fe96  1  0.36042194  0.66821342  0.10486729  1
  Fe  Fe97  1  0.80497356  0.07968286  0.39069498  1
  Fe  Fe98  1  0.46396389  0.08215510  0.89087330  1
  Fe  Fe99  1  0.81112645  0.08020740  0.89297519  1
  Fe  Fe100  1  0.85849955  0.58441320  0.60860533  1
  Fe  Fe101  1  0.69206310  0.67052271  0.10530287  1
  Fe  Fe102  1  0.64222596  0.33754546  0.89554789  1
  Fe  Fe103  1  0.19287170  0.08234103  0.61239222  1
  Fe  Fe104  1  0.81290455  0.42092089  0.89204795  1
  Fe  Fe105  1  0.31097964  0.66637812  0.38937189  1
  Fe  Fe106  1  0.13894642  0.58366096  0.39054688  1
  Fe  Fe107  1  0.86091980  0.91682025  0.60780687  1
  Fe  Fe108  1  0.80140283  0.58380585  0.38908795  1
  Fe  Fe109  1  0.86480246  0.58339129  0.10719554  1
  Fe  Fe110  1  0.14535209  0.08685807  0.39385532  1
  Fe  Fe111  1  0.14709256  0.91371515  0.39266164  1
  Fe  Fe112  1  0.52664101  0.58133122  0.60838407  1
  Si  Si113  1  0.19253198  0.41725835  0.61480881  1
  Si  Si114  1  0.13682391  0.08409614  0.88582670  1
  Si  Si115  1  0.30142315  0.33724079  0.88723242  1
  Si  Si116  1  0.46856032  0.08733876  0.38652719  1
  Si  Si117  1  0.69177590  0.32912289  0.11615491  1
  Si  Si118  1  0.52478910  0.41007889  0.11274172  1
  Si  Si119  1  0.85814599  0.08919972  0.61279427  1
  Si  Si120  1  0.63737296  0.83392085  0.38203181  1
  Si  Si121  1  0.97364038  0.83109606  0.38519691  1
  Si  Si122  1  0.47472888  0.91020659  0.89001714  1
  Si  Si123  1  0.02614909  0.83498570  0.11490116  1
  Si  Si124  1  0.14715295  0.41243423  0.38777859  1
  Si  Si125  1  0.03297625  0.66991357  0.11006488  1
  Si  Si126  1  0.18986712  0.92047608  0.11378353  1
  Si  Si127  1  0.52871641  0.57599258  0.10720274  1
  Si  Si128  1  0.97903087  0.67112254  0.88244381  1
  Si  Si129  1  0.47244974  0.57753175  0.38189893  1
  Si  Si130  1  0.97905148  0.33100980  0.88717942  1
  Si  Si131  1  0.02254272  0.33917350  0.61458025  1
  Si  Si132  1  0.69361307  0.67178546  0.61133871  1
  Si  Si133  1  0.14230115  0.91912348  0.88429985  1
  Si  Si134  1  0.31508616  0.33526912  0.38415754  1
  Si  Si135  1  0.97156068  0.16795654  0.39056040  1
  Si  Si136  1  0.36319404  0.16692896  0.61446779  1
  Si  Si137  1  0.64004618  0.16357134  0.89492167  1
  Si  Si138  1  0.63015703  0.66788152  0.38421329  1
  Si  Si139  1  0.69336206  0.16474669  0.11476796  1
  Si  Si140  1  0.52829401  0.08347002  0.61912882  1
  Si  Si141  1  0.35383999  0.83985659  0.10923288  1
  Si  Si142  1  0.52289308  0.41468608  0.61203356  1
  Si  Si143  1  0.03180704  0.66150653  0.61037723  1
  Si  Si144  1  0.18869013  0.41574791  0.11387688  1
  Si  Si145  1  0.19793268  0.58364921  0.61454529  1
  Si  Si146  1  0.19135317  0.91261117  0.61483365  1
  Si  Si147  1  0.63512840  0.16487563  0.38913870  1
  Si  Si148  1  0.13715240  0.41910787  0.88441327  1
  Si  Si149  1  0.35858626  0.83536371  0.61737413  1
  Si  Si150  1  0.31862675  0.83229948  0.38974671  1
  Si  Si151  1  0.97909455  0.33223324  0.38508217  1
  Si  Si152  1  0.03110394  0.82771234  0.61202132  1
  Si  Si153  1  0.35577160  0.33252250  0.11360952  1
  Si  Si154  1  0.19433850  0.58016198  0.10964302  1
  Si  Si155  1  0.64197578  0.66553472  0.88429941  1
  Si  Si156  1  0.30416112  0.66645295  0.88380715  1
  Si  Si157  1  0.96951800  0.66857770  0.38659863  1
  Si  Si158  1  0.35690079  0.16758490  0.11438319  1
  Si  Si159  1  0.46555100  0.42208465  0.88871431  1
  Si  Si160  1  0.29826319  0.17219347  0.89055605  1
  Si  Si161  1  0.47241375  0.58651323  0.88539552  1
  Si  Si162  1  0.19182697  0.08516720  0.11520115  1
  Si  Si163  1  0.13863786  0.58334737  0.88341462  1
  Si  Si164  1  0.68842700  0.32857504  0.61551099  1
  Si  Si165  1  0.02575783  0.16605258  0.11579353  1
  Si  Si166  1  0.98017325  0.83291542  0.88397899  1
  Si  Si167  1  0.64356070  0.33000470  0.38579858  1
  Si  Si168  1  0.81360305  0.90930714  0.88928579  1
  Si  Si169  1  0.02411644  0.17338459  0.61341006  1
  Si  Si170  1  0.69078760  0.16552375  0.61866685  1
  Si  Si171  1  0.30477091  0.83092368  0.88462344  1
  Si  Si172  1  0.68651182  0.83537523  0.61356068  1
  Si  Si173  1  0.35445790  0.33108322  0.61599619  1
  Si  Si174  1  0.81421502  0.59199882  0.88538587  1
  Si  Si175  1  0.64311118  0.83020201  0.88631511  1
  Si  Si176  1  0.35963307  0.67055774  0.61280439  1
  Si  Si177  1  0.31016931  0.17328407  0.38798838  1
  Si  Si178  1  0.68698418  0.84159660  0.10802136  1
  Si  Si179  1  0.52506678  0.92401778  0.11253222  1
  Si  Si180  1  0.81124745  0.41321739  0.38693376  1
  Si  Si181  1  0.48033414  0.41628832  0.38277513  1
  Si  Si182  1  0.85865058  0.41213406  0.11409378  1
  Si  Si183  1  0.52582651  0.08907340  0.11452979  1
  Si  Si184  1  0.86127883  0.08323333  0.11621558  1
  Si  Si185  1  0.47221511  0.92230984  0.38493090  1
  Si  Si186  1  0.02546026  0.32966342  0.11514703  1
  Si  Si187  1  0.80760391  0.90822432  0.38601930  1
  Si  Si188  1  0.97664740  0.16792432  0.88733760  1
  Si  Si189  1  0.52318888  0.91885391  0.61805430  1
  Si  Si190  1  0.85843892  0.91770376  0.11503062  1
  Si  Si191  1  0.85134368  0.41356535  0.61256967  1
  O  O192  1  0.27074544  0.12185843  0.08426932  1
  O  O193  1  0.28827131  0.11538334  0.57860050  1
  O  O194  1  0.27053853  0.60400774  0.07260579  1
  O  O195  1  0.27882842  0.61747026  0.58568852  1
  O  O196  1  0.60510190  0.12275535  0.08285305  1
  O  O197  1  0.61116038  0.11210765  0.58906572  1
  O  O198  1  0.61009773  0.59928195  0.07604980  1
  O  O199  1  0.62206335  0.61533299  0.57716572  1
  O  O200  1  0.93836199  0.12272636  0.08550127  1
  O  O201  1  0.93481975  0.13160404  0.58501329  1
  O  O202  1  0.95662403  0.62201256  0.07179288  1
  O  O203  1  0.95613387  0.60988710  0.57530173  1
  O  O204  1  0.10485058  0.36661788  0.08518647  1
  O  O205  1  0.10177249  0.37656067  0.58518439  1
  O  O206  1  0.10031241  0.87906927  0.08349030  1
  O  O207  1  0.12048255  0.85093382  0.58780338  1
  O  O208  1  0.43705666  0.36415105  0.08436677  1
  O  O209  1  0.43760385  0.36367509  0.58907558  1
  O  O210  1  0.43450952  0.88257039  0.08417039  1
  O  O211  1  0.44044707  0.86880117  0.58903240  1
  O  O212  1  0.77217499  0.36393082  0.08873673  1
  O  O213  1  0.77158335  0.35716669  0.58577529  1
  O  O214  1  0.76852497  0.88006518  0.08064581  1
  O  O215  1  0.76130375  0.86329039  0.57680564  1
  O  O216  1  0.26985976  0.37967787  0.08491222  1
  O  O217  1  0.26814906  0.37695208  0.58264809  1
  O  O218  1  0.26660599  0.88731210  0.07922608  1
  O  O219  1  0.27894481  0.88726638  0.58883278  1
  O  O220  1  0.60277005  0.37099745  0.08413892  1
  O  O221  1  0.60259924  0.37358358  0.58419365  1
  O  O222  1  0.60302346  0.89242802  0.07768431  1
  O  O223  1  0.60291745  0.88718853  0.58725338  1
  O  O224  1  0.93683891  0.36941141  0.08559005  1
  O  O225  1  0.93559496  0.38270281  0.58411470  1
  O  O226  1  0.93571112  0.87638212  0.08544454  1
  O  O227  1  0.95391934  0.87740088  0.57548516  1
  O  O228  1  0.10447064  0.12940756  0.08511491  1
  O  O229  1  0.10003682  0.14295505  0.57995763  1
  O  O230  1  0.11751339  0.63742458  0.08386278  1
  O  O231  1  0.11707919  0.63290992  0.58237779  1
  O  O232  1  0.43835926  0.13512918  0.08562228  1
  O  O233  1  0.45103041  0.13806911  0.58902155  1
  O  O234  1  0.44889195  0.62360002  0.07130190  1
  O  O235  1  0.43721128  0.64587424  0.57802476  1
  O  O236  1  0.77190407  0.12512535  0.08659590  1
  O  O237  1  0.77333815  0.13948409  0.58838561  1
  O  O238  1  0.77906171  0.64080063  0.06421339  1
  O  O239  1  0.77966108  0.65817082  0.58213604  1
  O  O240  1  0.04663239  0.11531480  0.42451046  1
  O  O241  1  0.05385436  0.11059459  0.91594211  1
  O  O242  1  0.03810794  0.60879824  0.41920521  1
  O  O243  1  0.06100350  0.62036556  0.91506350  1
  O  O244  1  0.38721731  0.11691120  0.41791943  1
  O  O245  1  0.37461830  0.12331396  0.92804738  1
  O  O246  1  0.39022498  0.59092974  0.41460767  1
  O  O247  1  0.39615062  0.62987147  0.91413461  1
  O  O248  1  0.70846817  0.11219914  0.42461104  1
  O  O249  1  0.71378038  0.10539652  0.92450178  1
  O  O250  1  0.70632497  0.61857866  0.42161374  1
  O  O251  1  0.72943752  0.62276243  0.91306991  1
  O  O252  1  0.23005091  0.35811008  0.41300212  1
  O  O253  1  0.22179826  0.37303689  0.91675171  1
  O  O254  1  0.23727549  0.84982079  0.42409717  1
  O  O255  1  0.22955076  0.87420905  0.91417417  1
  O  O256  1  0.56058297  0.36380855  0.41306952  1
  O  O257  1  0.54287075  0.37320445  0.92364520  1
  O  O258  1  0.56050082  0.87637315  0.41091333  1
  O  O259  1  0.56348465  0.86484647  0.91597435  1
  O  O260  1  0.89664836  0.36345031  0.41389770  1
  O  O261  1  0.90240362  0.35448991  0.92315997  1
  O  O262  1  0.88390432  0.85044091  0.41121161  1
  O  O263  1  0.89657049  0.85668254  0.91550917  1
  O  O264  1  0.06487094  0.37858056  0.41598279  1
  O  O265  1  0.06037095  0.38350409  0.91680385  1
  O  O266  1  0.04528835  0.88582032  0.42112733  1
  O  O267  1  0.06250536  0.88458211  0.91497923  1
  O  O268  1  0.39529346  0.38952303  0.41152248  1
  O  O269  1  0.38169263  0.38890608  0.91668630  1
  O  O270  1  0.39491726  0.89190706  0.42017304  1
  O  O271  1  0.39723280  0.86486797  0.91618950  1
  O  O272  1  0.73059333  0.37329229  0.41529446  1
  O  O273  1  0.72916040  0.39523846  0.93780460  1
  O  O274  1  0.72481251  0.87582282  0.41514452  1
  O  O275  1  0.73124270  0.87243053  0.91630200  1
  O  O276  1  0.22871463  0.15977049  0.42117844  1
  O  O277  1  0.21223737  0.14021890  0.91674778  1
  O  O278  1  0.22128323  0.64546916  0.43150325  1
  O  O279  1  0.22886206  0.62445027  0.91356051  1
  O  O280  1  0.54699290  0.14196633  0.41560325  1
  O  O281  1  0.55640618  0.13952691  0.92479322  1
  O  O282  1  0.54462111  0.63747236  0.40992211  1
  O  O283  1  0.56243020  0.62812822  0.91304938  1
  O  O284  1  0.88657512  0.14995646  0.42033135  1
  O  O285  1  0.89856663  0.14744002  0.92346154  1
  O  O286  1  0.88284788  0.65450302  0.41529965  1
  O  O287  1  0.89297325  0.64910791  0.91127168  1
  O  O288  1  0.17774113  0.00376979  0.08462670  1
  O  O289  1  0.16151657  -0.01132161  0.58178878  1
  O  O290  1  0.16816822  0.49626660  0.08306936  1
  O  O291  1  0.18515999  0.50022507  0.58596549  1
  O  O292  1  0.50861781  0.00773093  0.08421715  1
  O  O293  1  0.50557264  0.00145725  0.58949575  1
  O  O294  1  0.50697249  0.49057284  0.08287460  1
  O  O295  1  0.50338163  0.48891842  0.57090015  1
  O  O296  1  0.85578243  0.00114441  0.08574477  1
  O  O297  1  0.84148105  0.01223055  0.57684033  1
  O  O298  1  0.84773766  0.48757682  0.07531280  1
  O  O299  1  0.82454387  0.49025854  0.57895307  1
  O  O300  1  0.01828927  0.24774829  0.08441556  1
  O  O301  1  0.00842813  0.25727171  0.58580041  1
  O  O302  1  0.02240471  0.75411168  0.08114143  1
  O  O303  1  0.01419789  0.74484368  0.58395129  1
  O  O304  1  0.33884478  0.25006796  0.08491184  1
  O  O305  1  0.34483813  0.24969667  0.58363170  1
  O  O306  1  0.34351905  0.76331519  0.07039819  1
  O  O307  1  0.33579261  0.75432469  0.58837092  1
  O  O308  1  0.68267681  0.24690912  0.08517791  1
  O  O309  1  0.66805000  0.24609230  0.58703442  1
  O  O310  1  0.66643443  0.76508295  0.07161468  1
  O  O311  1  0.65714983  0.75374132  0.58900525  1
  O  O312  1  0.18401325  0.00116932  0.43113568  1
  O  O313  1  0.15833219  0.00144973  0.91427894  1
  O  O314  1  0.17049527  0.48865666  0.42254174  1
  O  O315  1  0.15024777  0.50139988  0.91400227  1
  O  O316  1  0.49206006  0.00560399  0.41453442  1
  O  O317  1  0.48229122  -0.01320541  0.92672652  1
  O  O318  1  0.50886258  0.49664133  0.40897821  1
  O  O319  1  0.47553179  0.50618533  0.91832406  1
  O  O320  1  0.83082927  -0.01479241  0.42180359  1
  O  O321  1  0.83680250  -0.01456797  0.92563922  1
  O  O322  1  0.82726530  0.48986139  0.42388859  1
  O  O323  1  0.84327792  0.51651355  0.92014269  1
  O  O324  1  0.34719114  0.25519386  0.41101149  1
  O  O325  1  0.31159533  0.25621284  0.92026584  1
  O  O326  1  0.35943515  0.75558232  0.41677381  1
  O  O327  1  0.30468886  0.74849216  0.91362762  1
  O  O328  1  0.65437337  0.24848595  0.41639241  1
  O  O329  1  0.66756483  0.24261574  0.92568876  1
  O  O330  1  0.63975548  0.75178390  0.41245028  1
  O  O331  1  0.65286854  0.74750633  0.91448409  1
  O  O332  1  0.99857819  0.25159552  0.41569347  1
  O  O333  1  1.01234912  0.24896181  0.91129916  1
  O  O334  1  1.00231325  0.74975515  0.41312143  1
  O  O335  1  1.00603020  0.75189037  0.91282506  1
  O  O336  1  0.21078760  0.08813259  0.19485830  1
  O  O337  1  0.21080287  0.08355682  0.70328921  1
  O  O338  1  0.21200720  0.57837709  0.19005559  1
  O  O339  1  0.21384314  0.58587052  0.69422657  1
  O  O340  1  0.54733126  0.09312926  0.19379118  1
  O  O341  1  0.54680087  0.08050333  0.69909067  1
  O  O342  1  0.54316188  0.57841220  0.18883545  1
  O  O343  1  0.54430643  0.58353821  0.70042264  1
  O  O344  1  0.87961369  0.08436458  0.19594028  1
  O  O345  1  0.87826281  0.08527777  0.69380305  1
  O  O346  1  0.88154861  0.58237000  0.19919565  1
  O  O347  1  0.87873468  0.58258061  0.70018978  1
  O  O348  1  0.04543342  0.33129841  0.19532844  1
  O  O349  1  0.04156925  0.33650309  0.69496519  1
  O  O350  1  0.04526937  0.83090856  0.19389943  1
  O  O351  1  0.04559023  0.83415547  0.69238979  1
  O  O352  1  0.37527884  0.33247626  0.19398810  1
  O  O353  1  0.36414246  0.33244934  0.69528524  1
  O  O354  1  0.36278726  0.83489948  0.18848795  1
  O  O355  1  0.37809319  0.83298110  0.69807238  1
  O  O356  1  0.70412234  0.32970426  0.19564886  1
  O  O357  1  0.70888728  0.33029409  0.69527654  1
  O  O358  1  0.70827622  0.83664033  0.18864262  1
  O  O359  1  0.70854319  0.83620717  0.69481622  1
  O  O360  1  0.20955271  0.41452813  0.19418631  1
  O  O361  1  0.21050345  0.41454454  0.69435857  1
  O  O362  1  0.20816013  0.91846245  0.19349978  1
  O  O363  1  0.21031912  0.91397317  0.69607683  1
  O  O364  1  0.54289383  0.41144989  0.19328026  1
  O  O365  1  0.54640427  0.42374843  0.69137394  1
  O  O366  1  0.55228855  0.91989842  0.19026304  1
  O  O367  1  0.54311147  0.91624239  0.69856032  1
  O  O368  1  0.87935528  0.41641197  0.19406201  1
  O  O369  1  0.87494442  0.41404148  0.69325923  1
  O  O370  1  0.87184796  0.91706331  0.19427134  1
  O  O371  1  0.87780359  0.91805857  0.69963750  1
  O  O372  1  0.04337401  0.16866926  0.19563703  1
  O  O373  1  0.04166408  0.17006664  0.69466789  1
  O  O374  1  0.04438636  0.66877025  0.19064490  1
  O  O375  1  0.04791858  0.66080467  0.69058629  1
  O  O376  1  0.37493005  0.16836496  0.19464310  1
  O  O377  1  0.37767575  0.17034416  0.69425084  1
  O  O378  1  0.37784388  0.66522059  0.19558737  1
  O  O379  1  0.37742748  0.66773948  0.69418589  1
  O  O380  1  0.70941406  0.16593235  0.19483652  1
  O  O381  1  0.70910872  0.16591029  0.69880465  1
  O  O382  1  0.71129654  0.66743785  0.19709999  1
  O  O383  1  0.70966921  0.66828069  0.69318933  1
  O  O384  1  0.12313322  0.08509405  0.30119681  1
  O  O385  1  0.11993176  0.08397848  0.80577507  1
  O  O386  1  0.12196214  0.58307300  0.29735621  1
  O  O387  1  0.12108619  0.58588984  0.80417807  1
  O  O388  1  0.44912929  0.09253095  0.30688967  1
  O  O389  1  0.45275446  0.07973045  0.80066373  1
  O  O390  1  0.45697792  0.57683886  0.30088772  1
  O  O391  1  0.45406102  0.58588340  0.80520420  1
  O  O392  1  0.78909098  0.08265092  0.29934006  1
  O  O393  1  0.79135119  0.08095128  0.80088901  1
  O  O394  1  0.78585546  0.57952939  0.29796402  1
  O  O395  1  0.79051497  0.58871567  0.80477209  1
  O  O396  1  0.29327951  0.33505128  0.30335078  1
  O  O397  1  0.28616393  0.33504468  0.80711324  1
  O  O398  1  0.29354485  0.83456123  0.30784229  1
  O  O399  1  0.28908252  0.83138115  0.80453021  1
  O  O400  1  0.62406118  0.33142404  0.30533515  1
  O  O401  1  0.63394896  0.33543284  0.80511219  1
  O  O402  1  0.63015691  0.83235989  0.30300054  1
  O  O403  1  0.62456259  0.83214934  0.80569959  1
  O  O404  1  0.96334470  0.33295167  0.30527572  1
  O  O405  1  0.95826672  0.33400594  0.80610057  1
  O  O406  1  0.95515470  0.83059837  0.30467888  1
  O  O407  1  0.95940127  0.83660495  0.80483835  1
  O  O408  1  0.12715517  0.41432474  0.30647377  1
  O  O409  1  0.11981855  0.41490895  0.80503663  1
  O  O410  1  0.12547356  0.91670350  0.30128181  1
  O  O411  1  0.12342278  0.91655573  0.80431607  1
  O  O412  1  0.45878774  0.41368860  0.30214683  1
  O  O413  1  0.44938376  0.42584845  0.80879029  1
  O  O414  1  0.44546929  0.91980163  0.30690282  1
  O  O415  1  0.45691459  0.91244173  0.80917416  1
  O  O416  1  0.79015337  0.41625346  0.30679625  1
  O  O417  1  0.79087598  0.41906860  0.79962205  1
  O  O418  1  0.78988145  0.91379410  0.30505894  1
  O  O419  1  0.79155176  0.91343861  0.80853013  1
  O  O420  1  0.29099455  0.16985583  0.30659349  1
  O  O421  1  0.28311444  0.17388716  0.81089555  1
  O  O422  1  0.28613402  0.66471349  0.29706966  1
  O  O423  1  0.28945399  0.66622962  0.80378569  1
  O  O424  1  0.62157193  0.16598749  0.30803226  1
  O  O425  1  0.62410665  0.16349282  0.81270211  1
  O  O426  1  0.61936979  0.66523112  0.30352924  1
  O  O427  1  0.62371918  0.66832575  0.80403107  1
  O  O428  1  0.95769469  0.16664706  0.30880781  1
  O  O429  1  0.95787532  0.16604621  0.80617914  1
  O  O430  1  0.95686004  0.66788601  0.30491345  1
  O  O431  1  0.96018502  0.66707549  0.80317866  1
  F  F432  1  0.04616783  0.00893824  0.19498121  1
  F  F433  1  0.04642360  0.00063300  0.70245635  1
  F  F434  1  0.04638185  0.49442649  0.20044483  1
  F  F435  1  0.04136790  0.49858118  0.70001010  1
  F  F436  1  0.36338919  0.00352579  0.19592006  1
  F  F437  1  0.38119373  -0.01033273  0.69988522  1
  F  F438  1  0.37869566  0.49530636  0.19803529  1
  F  F439  1  0.37801509  0.49990331  0.70076383  1
  F  F440  1  0.71365098  0.00004503  0.19946493  1
  F  F441  1  0.71009585  -0.00175962  0.70413515  1
  F  F442  1  0.71124755  0.49372449  0.19822491  1
  F  F443  1  0.71148220  0.50186121  0.70167993  1
  F  F444  1  0.21235829  0.25067026  0.20235137  1
  F  F445  1  0.20954068  0.25146501  0.70292906  1
  F  F446  1  0.20986892  0.75304690  0.20110469  1
  F  F447  1  0.21393249  0.74912816  0.70088223  1
  F  F448  1  0.54544908  0.24894970  0.20295347  1
  F  F449  1  0.54986202  0.23696502  0.70383064  1
  F  F450  1  0.54859691  0.73958649  0.19334357  1
  F  F451  1  0.54442755  0.75194530  0.70327103  1
  F  F452  1  0.88094099  0.24455883  0.20222389  1
  F  F453  1  0.87808638  0.25002761  0.70440239  1
  F  F454  1  0.87939872  0.75035338  0.19993705  1
  F  F455  1  0.87633881  0.75219608  0.70013192  1
  F  F456  1  0.28468272  0.00222917  0.29700942  1
  F  F457  1  0.28542830  -0.01013174  0.80529255  1
  F  F458  1  0.28923508  0.49744337  0.29454581  1
  F  F459  1  0.28954943  0.50153425  0.79880544  1
  F  F460  1  0.63420006  -0.00005540  0.30200449  1
  F  F461  1  0.62133662  -0.00392119  0.80150842  1
  F  F462  1  0.62058965  0.49675387  0.29324795  1
  F  F463  1  0.62265081  0.50153370  0.79991396  1
  F  F464  1  0.95372357  0.00181904  0.29903753  1
  F  F465  1  0.95791047  0.00139708  0.79814083  1
  F  F466  1  0.95773971  0.49687796  0.29886069  1
  F  F467  1  0.95664367  0.49923577  0.79931572  1
  F  F468  1  0.12246157  0.25116151  0.29788391  1
  F  F469  1  0.11971735  0.25195018  0.79697295  1
  F  F470  1  0.12129240  0.74887425  0.29662944  1
  F  F471  1  0.12857646  0.74886418  0.79821057  1
  F  F472  1  0.45485404  0.25183509  0.29684772  1
  F  F473  1  0.44710652  0.24085606  0.80559126  1
  F  F474  1  0.45289938  0.74077294  0.29766342  1
  F  F475  1  0.45474313  0.74842962  0.79894575  1
  F  F476  1  0.78611509  0.24633368  0.30049989  1
  F  F477  1  0.79039357  0.24859768  0.79946641  1
  F  F478  1  0.78680932  0.75191893  0.29367167  1
  F  F479  1  0.78813803  0.75145457  0.79604800  1
