# generated using pymatgen
data_K24Na3Li5Mg64Fe17Si79(O5F)48
_symmetry_space_group_name_H-M   'P 1'
_cell_length_a   16.08750361
_cell_length_b   18.59300482
_cell_length_c   20.55677753
_cell_angle_alpha   89.99256507
_cell_angle_beta   100.01056046
_cell_angle_gamma   90.01746467
_symmetry_Int_Tables_number   1
_chemical_formula_structural   K24Na3Li5Mg64Fe17Si79(O5F)48
_chemical_formula_sum   'K24 Na3 Li5 Mg64 Fe17 Si79 O240 F48'
_cell_volume   6055.22925617
_cell_formula_units_Z   1
loop_
 _symmetry_equiv_pos_site_id
 _symmetry_equiv_pos_as_xyz
  1  'x, y, z'
loop_
 _atom_site_type_symbol
 _atom_site_label
 _atom_site_symmetry_multiplicity
 _atom_site_fract_x
 _atom_site_fract_y
 _atom_site_fract_z
 _atom_site_occupancy
  K  K0  1  0.00542871  -0.00428695  -0.00178840  1
  K  K1  1  0.00323937  -0.00296763  0.50194609  1
  K  K2  1  0.01001939  0.50150725  0.00229357  1
  K  K3  1  0.00224091  0.50517823  0.49443409  1
  K  K4  1  0.33839357  -0.00044123  -0.00197796  1
  K  K5  1  0.33883773  0.00400954  0.50290727  1
  K  K6  1  0.34249409  0.50331881  0.00858795  1
  K  K7  1  0.32809641  0.50690305  0.49434252  1
  K  K8  1  0.65673143  0.00008657  -0.00762126  1
  K  K9  1  0.65676644  -0.00717911  0.49601907  1
  K  K10  1  0.66306735  0.49835495  0.00581371  1
  K  K11  1  0.66374223  0.49508624  0.49596131  1
  K  K12  1  0.17136500  0.25542936  0.00103509  1
  K  K13  1  0.17974195  0.25401347  0.51193746  1
  K  K14  1  0.16922019  0.74763373  0.00533928  1
  K  K15  1  0.16171762  0.73697830  0.48813040  1
  K  K16  1  0.49741532  0.25348144  -0.00693168  1
  K  K17  1  0.48911583  0.26075717  0.50294575  1
  K  K18  1  0.51612946  0.74035482  0.00602854  1
  K  K19  1  0.50056399  0.74458890  0.49449997  1
  K  K20  1  0.82639517  0.25818992  -0.00167548  1
  K  K21  1  0.82581177  0.25815971  0.49553988  1
  K  K22  1  0.82742969  0.74872609  0.00291117  1
  K  K23  1  0.82961081  0.73747406  0.49997457  1
  Na  Na24  1  0.33468864  0.24626521  0.75083471  1
  Na  Na25  1  -0.00176968  0.92121340  0.75001809  1
  Na  Na26  1  0.33259893  0.58107571  0.74995244  1
  Li  Li27  1  0.83343297  0.50239242  0.74561970  1
  Li  Li28  1  0.17213071  0.50532607  0.25093892  1
  Li  Li29  1  0.32985231  0.57847451  0.24923214  1
  Li  Li30  1  0.33553517  0.08872358  0.75528002  1
  Li  Li31  1  0.83104435  0.33684526  0.25411647  1
  Mg  Mg32  1  0.33265197  0.25341176  0.25351454  1
  Mg  Mg33  1  0.49634754  0.50089754  0.25111713  1
  Mg  Mg34  1  0.16888097  -0.00090779  0.24622673  1
  Mg  Mg35  1  0.83559769  0.00007784  0.24964177  1
  Mg  Mg36  1  0.66827818  0.74762228  0.24889922  1
  Mg  Mg37  1  0.50150551  -0.00248905  0.24906303  1
  Mg  Mg38  1  -0.00028530  0.25125484  0.74942007  1
  Mg  Mg39  1  0.83175493  0.49695912  0.24978441  1
  Mg  Mg40  1  0.66638010  0.74944944  0.75229124  1
  Mg  Mg41  1  0.16658308  0.50087032  0.74708805  1
  Mg  Mg42  1  0.66509264  0.25050030  0.75597778  1
  Mg  Mg43  1  -0.00204374  0.25243071  0.24887926  1
  Mg  Mg44  1  0.50006769  0.49829466  0.75025978  1
  Mg  Mg45  1  0.33261886  0.74977766  0.75098069  1
  Mg  Mg46  1  0.66843157  0.25175660  0.25445457  1
  Mg  Mg47  1  0.16797051  0.00307566  0.75096630  1
  Mg  Mg48  1  -0.00234250  0.75111036  0.74626264  1
  Mg  Mg49  1  0.83184601  0.00143040  0.75452679  1
  Mg  Mg50  1  0.33396234  0.74540165  0.24656603  1
  Mg  Mg51  1  0.49451850  0.00119163  0.75332549  1
  Mg  Mg52  1  0.00240496  0.74672285  0.24796217  1
  Mg  Mg53  1  0.50118342  0.33355002  0.75187757  1
  Mg  Mg54  1  0.67029798  0.58227981  0.74887784  1
  Mg  Mg55  1  -0.00076697  0.41665205  0.25258687  1
  Mg  Mg56  1  0.16728449  0.33397559  0.74583684  1
  Mg  Mg57  1  0.16725912  0.83294954  0.24469647  1
  Mg  Mg58  1  0.16706559  0.33913305  0.25410070  1
  Mg  Mg59  1  0.66706980  0.58294609  0.24923744  1
  Mg  Mg60  1  0.50001823  0.33632455  0.25386145  1
  Mg  Mg61  1  0.33345538  0.91843880  0.75296545  1
  Mg  Mg62  1  -0.00338988  0.41872134  0.74631854  1
  Mg  Mg63  1  0.33356555  0.91363315  0.24617854  1
  Mg  Mg64  1  0.83171981  0.16593474  0.75247928  1
  Mg  Mg65  1  0.16412013  0.83580397  0.74979705  1
  Mg  Mg66  1  -0.00355108  0.58331191  0.74581008  1
  Mg  Mg67  1  0.50293739  0.83223122  0.24685273  1
  Mg  Mg68  1  0.50139506  0.16633748  0.25209411  1
  Mg  Mg69  1  0.16887060  0.66058820  0.24862889  1
  Mg  Mg70  1  0.66671595  0.41328880  0.25291803  1
  Mg  Mg71  1  0.00140446  0.08528459  0.24849884  1
  Mg  Mg72  1  0.50071874  0.66485111  0.75236197  1
  Mg  Mg73  1  0.83337901  0.83517502  0.75131167  1
  Mg  Mg74  1  0.83312091  0.33606973  0.75019444  1
  Mg  Mg75  1  0.83403299  0.16901220  0.24933118  1
  Mg  Mg76  1  0.33385967  0.08409649  0.24984974  1
  Mg  Mg77  1  0.00211711  0.91545156  0.24538287  1
  Mg  Mg78  1  0.33152182  0.42084777  0.25445666  1
  Mg  Mg79  1  0.49666589  0.16557054  0.75380321  1
  Mg  Mg80  1  0.83342857  0.66252048  0.24802628  1
  Mg  Mg81  1  0.16827093  0.16767486  0.25004865  1
  Mg  Mg82  1  -0.00084348  0.08552281  0.75120145  1
  Mg  Mg83  1  0.66575213  0.08387532  0.75572607  1
  Mg  Mg84  1  0.66714317  0.08371485  0.25006524  1
  Mg  Mg85  1  0.49978327  0.66267364  0.24964480  1
  Mg  Mg86  1  0.16509864  0.66799388  0.74723730  1
  Mg  Mg87  1  0.50165620  0.83359923  0.75539786  1
  Mg  Mg88  1  0.00379716  0.58085763  0.24691371  1
  Mg  Mg89  1  0.67028360  0.41702639  0.75074212  1
  Mg  Mg90  1  0.66617839  0.91406101  0.24739690  1
  Mg  Mg91  1  0.83301923  0.66381314  0.74588407  1
  Mg  Mg92  1  0.66672203  0.91515267  0.75604670  1
  Mg  Mg93  1  0.16952728  0.16647530  0.75051327  1
  Mg  Mg94  1  0.83406343  0.83366000  0.24699935  1
  Mg  Mg95  1  0.33392111  0.41544092  0.74962252  1
  Fe  Fe96  1  0.46823860  0.08590894  0.89188302  1
  Fe  Fe97  1  0.52614644  0.91706184  0.10793963  1
  Fe  Fe98  1  0.69855269  0.66861400  0.10681656  1
  Fe  Fe99  1  0.64379883  0.82845504  0.89348531  1
  Fe  Fe100  1  0.80906948  0.57855328  0.38822664  1
  Fe  Fe101  1  0.14200392  0.57869195  0.38956832  1
  Fe  Fe102  1  0.85549732  0.57907598  0.60687313  1
  Fe  Fe103  1  0.64494381  0.33935037  0.89189823  1
  Fe  Fe104  1  0.64645077  0.83233631  0.38945665  1
  Fe  Fe105  1  0.19447640  0.91678951  0.10668824  1
  Fe  Fe106  1  0.46994539  0.42327537  0.39489034  1
  Fe  Fe107  1  0.81165642  0.08379512  0.89246298  1
  Fe  Fe108  1  0.64029089  0.32995089  0.39485434  1
  Fe  Fe109  1  0.36088166  0.33612216  0.61014369  1
  Fe  Fe110  1  0.29952403  0.33232308  0.39271695  1
  Fe  Fe111  1  0.52606743  0.58095576  0.10878629  1
  Fe  Fe112  1  0.02687046  0.66351884  0.10754499  1
  Si  Si113  1  0.64127791  0.16697232  0.89236382  1
  Si  Si114  1  0.30757351  0.67161945  0.38669562  1
  Si  Si115  1  0.70015601  0.84168861  0.10926602  1
  Si  Si116  1  0.69210146  0.16546101  0.11566935  1
  Si  Si117  1  0.52498686  0.58658733  0.61505907  1
  Si  Si118  1  0.97884917  0.33605935  0.88380426  1
  Si  Si119  1  0.13973924  0.42065667  0.88214659  1
  Si  Si120  1  0.02317106  0.83239936  0.10852270  1
  Si  Si121  1  0.81405161  0.58219508  0.88234554  1
  Si  Si122  1  0.47036481  0.91208195  0.89112850  1
  Si  Si123  1  0.81055904  0.41334253  0.38849450  1
  Si  Si124  1  0.35790933  0.16979727  0.11684343  1
  Si  Si125  1  0.19040681  0.08778263  0.11197487  1
  Si  Si126  1  0.97696034  0.66754821  0.88331017  1
  Si  Si127  1  0.47579799  0.59203160  0.38716346  1
  Si  Si128  1  0.14228455  0.08195857  0.38428680  1
  Si  Si129  1  0.69086780  0.32955242  0.11697181  1
  Si  Si130  1  0.97765562  0.16644342  0.38514494  1
  Si  Si131  1  0.97200904  0.67034181  0.38658887  1
  Si  Si132  1  0.02721403  0.16527941  0.61463028  1
  Si  Si133  1  0.47396160  0.58392413  0.88534411  1
  Si  Si134  1  0.52254956  0.40993244  0.11256867  1
  Si  Si135  1  0.85785593  0.08645266  0.61412447  1
  Si  Si136  1  0.86445324  0.57613699  0.10989773  1
  Si  Si137  1  0.86060609  0.08678819  0.11458559  1
  Si  Si138  1  0.36204540  0.82860750  0.10987165  1
  Si  Si139  1  0.68764789  0.67175381  0.61194255  1
  Si  Si140  1  0.81408134  0.91941607  0.38585310  1
  Si  Si141  1  0.64708909  0.65654863  0.88794929  1
  Si  Si142  1  0.30091623  0.83430948  0.88645503  1
  Si  Si143  1  0.31154711  0.16173086  0.38785954  1
  Si  Si144  1  0.02604567  0.17163262  0.11441805  1
  Si  Si145  1  0.35984537  0.16182434  0.61295785  1
  Si  Si146  1  0.64320449  0.66447845  0.38822662  1
  Si  Si147  1  0.02286875  0.83547685  0.61313468  1
  Si  Si148  1  0.30017254  0.33569536  0.88469694  1
  Si  Si149  1  0.30521331  0.83552402  0.38355231  1
  Si  Si150  1  0.47114111  0.91342979  0.38632917  1
  Si  Si151  1  0.30627480  0.67072725  0.88468152  1
  Si  Si152  1  0.97504143  0.17284710  0.88751263  1
  Si  Si153  1  0.47660032  0.07836273  0.38499866  1
  Si  Si154  1  0.35572118  0.33230630  0.11617417  1
  Si  Si155  1  0.19256751  0.08133787  0.61568664  1
  Si  Si156  1  0.85795056  0.40724002  0.61101566  1
  Si  Si157  1  0.52308681  0.91642938  0.61754335  1
  Si  Si158  1  0.69073934  0.83751938  0.61554415  1
  Si  Si159  1  0.64630404  0.15843706  0.38891114  1
  Si  Si160  1  0.35710368  0.83285040  0.61591687  1
  Si  Si161  1  0.52507742  0.08101535  0.61569880  1
  Si  Si162  1  0.14179488  0.58522286  0.88256696  1
  Si  Si163  1  0.19184238  0.41720835  0.11579742  1
  Si  Si164  1  0.97489191  0.82913503  0.88390148  1
  Si  Si165  1  0.13038435  0.40854089  0.39120950  1
  Si  Si166  1  0.85534168  0.41334422  0.11718590  1
  Si  Si167  1  0.81561458  0.41958145  0.88622721  1
  Si  Si168  1  0.81417780  0.08207405  0.38421399  1
  Si  Si169  1  0.96881246  0.32898139  0.38397702  1
  Si  Si170  1  0.13965956  0.91737479  0.38261651  1
  Si  Si171  1  0.52198282  0.08775600  0.11411431  1
  Si  Si172  1  0.19693538  0.58255334  0.11111344  1
  Si  Si173  1  0.02420098  0.33672604  0.11521511  1
  Si  Si174  1  0.18773409  0.42196766  0.61011914  1
  Si  Si175  1  0.69326488  0.32945843  0.61637135  1
  Si  Si176  1  0.29702003  0.16815186  0.89053742  1
  Si  Si177  1  0.02650365  0.33149956  0.61268447  1
  Si  Si178  1  0.81582543  0.91506208  0.89157146  1
  Si  Si179  1  0.02531488  0.67100210  0.60899492  1
  Si  Si180  1  0.85444946  0.92052698  0.61494708  1
  Si  Si181  1  0.86619375  0.92212885  0.11349545  1
  Si  Si182  1  0.68856434  0.16534124  0.61602325  1
  Si  Si183  1  0.19043657  0.91604346  0.61433628  1
  Si  Si184  1  0.35920404  0.66831281  0.61553632  1
  Si  Si185  1  0.97635636  0.83513557  0.38218405  1
  Si  Si186  1  0.13866555  0.91840415  0.88424910  1
  Si  Si187  1  0.53331637  0.42059145  0.61385372  1
  Si  Si188  1  0.13517443  0.08451151  0.88711158  1
  Si  Si189  1  0.35870608  0.66630592  0.11254993  1
  Si  Si190  1  0.46832595  0.41858118  0.88974142  1
  Si  Si191  1  0.18886922  0.58816302  0.61382687  1
  O  O192  1  0.27495653  0.12073725  0.08637469  1
  O  O193  1  0.27060226  0.11549659  0.58398409  1
  O  O194  1  0.28210223  0.60947228  0.08288419  1
  O  O195  1  0.27219011  0.62293481  0.58817442  1
  O  O196  1  0.60646893  0.11950536  0.08701272  1
  O  O197  1  0.60515517  0.11645873  0.58556779  1
  O  O198  1  0.61125316  0.61136732  0.06589219  1
  O  O199  1  0.59418368  0.63543097  0.58490564  1
  O  O200  1  0.94048366  0.12408033  0.08591802  1
  O  O201  1  0.93629209  0.12503793  0.58417486  1
  O  O202  1  0.94938269  0.59010300  0.07879439  1
  O  O203  1  0.94660727  0.62377087  0.57397431  1
  O  O204  1  0.10310899  0.37254033  0.08428407  1
  O  O205  1  0.09932515  0.37617113  0.58313102  1
  O  O206  1  0.10343038  0.85584475  0.07468289  1
  O  O207  1  0.09972359  0.87696883  0.58310493  1
  O  O208  1  0.43757635  0.35906108  0.08491505  1
  O  O209  1  0.45308779  0.37615336  0.57741641  1
  O  O210  1  0.44829053  0.84298006  0.08042127  1
  O  O211  1  0.43460162  0.87345086  0.58680511  1
  O  O212  1  0.77166146  0.36368493  0.08765221  1
  O  O213  1  0.77687075  0.35282481  0.58616586  1
  O  O214  1  0.78848361  0.86955129  0.08414528  1
  O  O215  1  0.76587163  0.87850011  0.58329280  1
  O  O216  1  0.27003716  0.37844906  0.08484537  1
  O  O217  1  0.26119903  0.38879057  0.57577821  1
  O  O218  1  0.29173874  0.88719168  0.07610949  1
  O  O219  1  0.26813676  0.87552051  0.58546804  1
  O  O220  1  0.60303130  0.37101418  0.08472769  1
  O  O221  1  0.61750137  0.38565390  0.58849974  1
  O  O222  1  0.62972791  0.90148845  0.08061841  1
  O  O223  1  0.60164618  0.88000986  0.58720892  1
  O  O224  1  0.93603206  0.37924803  0.08568963  1
  O  O225  1  0.93550764  0.36653428  0.58109337  1
  O  O226  1  0.95027415  0.89611181  0.08576134  1
  O  O227  1  0.93507565  0.88222914  0.58753002  1
  O  O228  1  0.10894477  0.14213070  0.08563315  1
  O  O229  1  0.10205415  0.12239399  0.58423984  1
  O  O230  1  0.12020326  0.63086797  0.07081888  1
  O  O231  1  0.11109549  0.64194059  0.58241641  1
  O  O232  1  0.44325136  0.14484365  0.08953996  1
  O  O233  1  0.43677719  0.11992403  0.58120646  1
  O  O234  1  0.43547172  0.64331053  0.07526145  1
  O  O235  1  0.43370836  0.62569165  0.58540180  1
  O  O236  1  0.77337425  0.13103456  0.08690170  1
  O  O237  1  0.76962670  0.13046673  0.58585112  1
  O  O238  1  0.79342761  0.63240968  0.07517508  1
  O  O239  1  0.75760145  0.63447300  0.57625177  1
  O  O240  1  0.06137283  0.11617311  0.41377040  1
  O  O241  1  0.05325088  0.11682342  0.91557916  1
  O  O242  1  0.05094960  0.62232148  0.42268970  1
  O  O243  1  0.06146925  0.61899253  0.91214145  1
  O  O244  1  0.39407423  0.10867578  0.41353986  1
  O  O245  1  0.37741277  0.12467647  0.92910718  1
  O  O246  1  0.39587417  0.62956799  0.41597370  1
  O  O247  1  0.39660262  0.62966369  0.91058154  1
  O  O248  1  0.72905114  0.10395150  0.41362606  1
  O  O249  1  0.71212732  0.10653899  0.92246782  1
  O  O250  1  0.70778462  0.60059996  0.41803730  1
  O  O251  1  0.72947244  0.60337663  0.91335846  1
  O  O252  1  0.19574217  0.34501416  0.42083194  1
  O  O253  1  0.22253461  0.37407603  0.91602576  1
  O  O254  1  0.22326987  0.86964578  0.41241164  1
  O  O255  1  0.22060059  0.86901660  0.91608449  1
  O  O256  1  0.55182255  0.35836932  0.43413851  1
  O  O257  1  0.55193503  0.37766619  0.92659106  1
  O  O258  1  0.54851964  0.86460521  0.42239038  1
  O  O259  1  0.54321626  0.85502558  0.92138503  1
  O  O260  1  0.88189200  0.34789152  0.41077966  1
  O  O261  1  0.89853989  0.36660298  0.91444621  1
  O  O262  1  0.89794657  0.86936563  0.41368795  1
  O  O263  1  0.89417474  0.85643901  0.91557215  1
  O  O264  1  0.04053588  0.38601604  0.41749506  1
  O  O265  1  0.05949641  0.38829987  0.91290844  1
  O  O266  1  0.05916887  0.88561308  0.41279246  1
  O  O267  1  0.05608122  0.88284409  0.90982997  1
  O  O268  1  0.37475322  0.40038635  0.43002451  1
  O  O269  1  0.38646450  0.37998671  0.91571441  1
  O  O270  1  0.38426484  0.88885741  0.41402418  1
  O  O271  1  0.38206547  0.88362110  0.91551480  1
  O  O272  1  0.73312531  0.39003765  0.42556773  1
  O  O273  1  0.74090517  0.39698002  0.92544380  1
  O  O274  1  0.73646978  0.89757050  0.42174393  1
  O  O275  1  0.73566978  0.88985116  0.92418475  1
  O  O276  1  0.22984043  0.12351950  0.41511318  1
  O  O277  1  0.21384154  0.13563606  0.92065504  1
  O  O278  1  0.23607615  0.63807979  0.42441070  1
  O  O279  1  0.22912530  0.62878208  0.91361011  1
  O  O280  1  0.56444159  0.12056680  0.41562401  1
  O  O281  1  0.55686639  0.14927615  0.92339203  1
  O  O282  1  0.55221142  0.65050678  0.41330926  1
  O  O283  1  0.56521590  0.62103332  0.91598940  1
  O  O284  1  0.89525282  0.13442447  0.41422295  1
  O  O285  1  0.89606385  0.15383704  0.92272036  1
  O  O286  1  0.88798835  0.65196201  0.41688975  1
  O  O287  1  0.89441430  0.63634201  0.91162681  1
  O  O288  1  0.16675341  0.01196172  0.07605599  1
  O  O289  1  0.18175820  -0.00154513  0.58452605  1
  O  O290  1  0.18142005  0.49759964  0.08284232  1
  O  O291  1  0.17020763  0.50655386  0.58429900  1
  O  O292  1  0.49331723  0.01210041  0.07962785  1
  O  O293  1  0.51457192  -0.00214569  0.58583309  1
  O  O294  1  0.50288058  0.48578626  0.07540289  1
  O  O295  1  0.52658807  0.50493381  0.58623290  1
  O  O296  1  0.84806537  0.00492490  0.08532568  1
  O  O297  1  0.84868108  0.00349655  0.58401451  1
  O  O298  1  0.83348039  0.49287660  0.08506490  1
  O  O299  1  0.83915612  0.48396649  0.57553232  1
  O  O300  1  0.01073877  0.25377296  0.08529202  1
  O  O301  1  0.02482712  0.24760744  0.58488030  1
  O  O302  1  -0.01334999  0.75616460  0.07780767  1
  O  O303  1  0.01169051  0.75509780  0.58002358  1
  O  O304  1  0.33407400  0.25031731  0.08667919  1
  O  O305  1  0.34606969  0.23978994  0.57820983  1
  O  O306  1  0.32502252  0.74768614  0.08601755  1
  O  O307  1  0.34856927  0.75099134  0.58392916  1
  O  O308  1  0.68032009  0.24706658  0.08595220  1
  O  O309  1  0.67049390  0.24731347  0.58699140  1
  O  O310  1  0.67833590  0.76420203  0.07542823  1
  O  O311  1  0.67840226  0.75637629  0.58532719  1
  O  O312  1  0.15396064  -0.00067460  0.41346267  1
  O  O313  1  0.14946981  0.00088188  0.91491301  1
  O  O314  1  0.15799149  0.48557136  0.42586276  1
  O  O315  1  0.15413493  0.50286474  0.91141176  1
  O  O316  1  0.48974057  -0.00343741  0.41472344  1
  O  O317  1  0.49026644  -0.00920656  0.92367472  1
  O  O318  1  0.49979641  0.51750208  0.42636601  1
  O  O319  1  0.46883875  0.50308049  0.91659453  1
  O  O320  1  0.84473543  0.00188850  0.41187442  1
  O  O321  1  0.85208024  -0.00795985  0.92128088  1
  O  O322  1  0.85210062  0.48838196  0.41966359  1
  O  O323  1  0.84687374  0.50223756  0.90941914  1
  O  O324  1  0.33225759  0.23729389  0.42339874  1
  O  O325  1  0.30580202  0.25399184  0.91604291  1
  O  O326  1  0.32351653  0.75617470  0.41662089  1
  O  O327  1  0.31286992  0.75208474  0.91696513  1
  O  O328  1  0.66916568  0.23342144  0.42563840  1
  O  O329  1  0.67614569  0.24600394  0.92036619  1
  O  O330  1  0.67804828  0.74105980  0.42227735  1
  O  O331  1  0.66940170  0.73343962  0.92272538  1
  O  O332  1  0.99627948  0.24719633  0.41467904  1
  O  O333  1  1.00661974  0.25533273  0.91250460  1
  O  O334  1  0.99812255  0.75524799  0.41165611  1
  O  O335  1  0.99942638  0.74818360  0.91443818  1
  O  O336  1  0.20909077  0.08544437  0.19328412  1
  O  O337  1  0.20603886  0.08342365  0.69490051  1
  O  O338  1  0.20915926  0.58616664  0.18995053  1
  O  O339  1  0.19959548  0.58608737  0.69308697  1
  O  O340  1  0.54303572  0.08502472  0.19537074  1
  O  O341  1  0.54529985  0.08144208  0.69552015  1
  O  O342  1  0.54549620  0.58163192  0.20062055  1
  O  O343  1  0.54326126  0.58577578  0.69543344  1
  O  O344  1  0.87912189  0.08466097  0.19513764  1
  O  O345  1  0.87701613  0.08596305  0.69400471  1
  O  O346  1  0.87946880  0.58027507  0.19112487  1
  O  O347  1  0.87959383  0.58563344  0.69710382  1
  O  O348  1  0.04365114  0.33324566  0.19507066  1
  O  O349  1  0.04237616  0.33322142  0.69323139  1
  O  O350  1  0.04361115  0.83450347  0.19047712  1
  O  O351  1  0.04581694  0.82994568  0.69213803  1
  O  O352  1  0.37595785  0.33094470  0.19582322  1
  O  O353  1  0.38372288  0.33975007  0.70019590  1
  O  O354  1  0.37716074  0.83295501  0.19180421  1
  O  O355  1  0.37478156  0.83272771  0.69616357  1
  O  O356  1  0.70716432  0.32947176  0.19631569  1
  O  O357  1  0.71250808  0.33023807  0.69649271  1
  O  O358  1  0.71643212  0.83836086  0.19087665  1
  O  O359  1  0.71056271  0.83606290  0.69561885  1
  O  O360  1  0.20921332  0.41370059  0.19469737  1
  O  O361  1  0.20611752  0.41874673  0.69104639  1
  O  O362  1  0.21218112  0.91764255  0.19883227  1
  O  O363  1  0.20817318  0.91591109  0.69421747  1
  O  O364  1  0.54185919  0.41263209  0.19274432  1
  O  O365  1  0.54726891  0.41952680  0.69450600  1
  O  O366  1  0.54447136  0.91856703  0.19990881  1
  O  O367  1  0.54114369  0.91583301  0.69736125  1
  O  O368  1  0.87707601  0.41437583  0.19653685  1
  O  O369  1  0.87937774  0.40977389  0.69132161  1
  O  O370  1  0.88059062  0.92099489  0.19438821  1
  O  O371  1  0.86503145  0.92045080  0.69404939  1
  O  O372  1  0.04414780  0.16742590  0.19473230  1
  O  O373  1  0.04161163  0.16679546  0.69478929  1
  O  O374  1  0.04610531  0.66764057  0.19889956  1
  O  O375  1  0.04189768  0.66993483  0.69022299  1
  O  O376  1  0.37533604  0.16712953  0.19740932  1
  O  O377  1  0.38238242  0.15915286  0.69158757  1
  O  O378  1  0.37974321  0.66816883  0.19263801  1
  O  O379  1  0.38065389  0.67425200  0.69458425  1
  O  O380  1  0.71057981  0.16472090  0.19612047  1
  O  O381  1  0.70806507  0.16593056  0.69604990  1
  O  O382  1  0.71224742  0.66777546  0.19869937  1
  O  O383  1  0.70724144  0.66898023  0.69294186  1
  O  O384  1  0.12424008  0.08313809  0.30382387  1
  O  O385  1  0.12023056  0.08500230  0.80672509  1
  O  O386  1  0.12142060  0.58351303  0.29993455  1
  O  O387  1  0.12290629  0.58589890  0.80232407  1
  O  O388  1  0.45829195  0.08148132  0.30451929  1
  O  O389  1  0.45505419  0.08237562  0.80132079  1
  O  O390  1  0.45889524  0.58532836  0.30743014  1
  O  O391  1  0.46480797  0.58266532  0.80611896  1
  O  O392  1  0.79467796  0.08363367  0.30387556  1
  O  O393  1  0.78812691  0.08473383  0.80018486  1
  O  O394  1  0.78971830  0.58035405  0.29674203  1
  O  O395  1  0.79031999  0.58765993  0.80298236  1
  O  O396  1  0.28664793  0.33240066  0.30069967  1
  O  O397  1  0.28076477  0.33918837  0.80545703  1
  O  O398  1  0.28981683  0.83453430  0.30355256  1
  O  O399  1  0.28614909  0.83324027  0.80566644  1
  O  O400  1  0.62050462  0.33057391  0.30240142  1
  O  O401  1  0.62372561  0.33696164  0.80027504  1
  O  O402  1  0.62576073  0.83275803  0.29820518  1
  O  O403  1  0.62305933  0.83124130  0.80104222  1
  O  O404  1  0.95753458  0.32858939  0.30432268  1
  O  O405  1  0.95884129  0.33496074  0.80341870  1
  O  O406  1  0.95843271  0.83701674  0.30185569  1
  O  O407  1  0.95295368  0.82621087  0.80440874  1
  O  O408  1  0.11503824  0.40906343  0.31066983  1
  O  O409  1  0.12086406  0.41759925  0.80200679  1
  O  O410  1  0.12193773  0.91882017  0.30259142  1
  O  O411  1  0.13069581  0.91910975  0.80515219  1
  O  O412  1  0.45487272  0.41672181  0.30228041  1
  O  O413  1  0.45680264  0.41866008  0.80934485  1
  O  O414  1  0.45450878  0.91524640  0.30567532  1
  O  O415  1  0.45418813  0.91332706  0.80905292  1
  O  O416  1  0.78734039  0.41661990  0.30793247  1
  O  O417  1  0.79228710  0.41385645  0.80625385  1
  O  O418  1  0.79442218  0.91827146  0.30489065  1
  O  O419  1  0.79294001  0.91536792  0.80949709  1
  O  O420  1  0.29044596  0.16345596  0.30671470  1
  O  O421  1  0.27941928  0.16275995  0.81148692  1
  O  O422  1  0.28655372  0.67420515  0.30699667  1
  O  O423  1  0.28318302  0.67476567  0.80540428  1
  O  O424  1  0.62554895  0.16205469  0.30793056  1
  O  O425  1  0.62461640  0.16561207  0.80980608  1
  O  O426  1  0.62554563  0.66785225  0.30711986  1
  O  O427  1  0.62615277  0.66283341  0.80673726  1
  O  O428  1  0.95921113  0.16451658  0.30487640  1
  O  O429  1  0.95719725  0.17036557  0.80632464  1
  O  O430  1  0.95606063  0.66834485  0.30537312  1
  O  O431  1  0.95963294  0.66789290  0.80301243  1
  F  F432  1  0.04614938  0.00281129  0.19992689  1
  F  F433  1  0.04922561  0.01121751  0.69791629  1
  F  F434  1  0.03929827  0.49382238  0.19968459  1
  F  F435  1  0.04543365  0.50032744  0.69855806  1
  F  F436  1  0.37860186  0.00137846  0.20268861  1
  F  F437  1  0.38036434  -0.01203344  0.69722338  1
  F  F438  1  0.37865535  0.49497048  0.19884580  1
  F  F439  1  0.38382751  0.49315579  0.69922121  1
  F  F440  1  0.71494679  0.00214641  0.20320470  1
  F  F441  1  0.70875435  -0.00220102  0.70450048  1
  F  F442  1  0.70997961  0.49358428  0.19998537  1
  F  F443  1  0.70925957  0.49981230  0.70070570  1
  F  F444  1  0.21100303  0.24746529  0.20122337  1
  F  F445  1  0.19688466  0.24909406  0.69556643  1
  F  F446  1  0.21208816  0.75017287  0.20068368  1
  F  F447  1  0.21133780  0.75282788  0.70002255  1
  F  F448  1  0.54531980  0.24586698  0.20384365  1
  F  F449  1  0.54726791  0.24630222  0.70269115  1
  F  F450  1  0.54634711  0.74728663  0.20112443  1
  F  F451  1  0.54378680  0.74874544  0.70326169  1
  F  F452  1  0.88251859  0.24139748  0.19711550  1
  F  F453  1  0.87866341  0.24870034  0.70236721  1
  F  F454  1  0.88072366  0.75101177  0.20173439  1
  F  F455  1  0.87630905  0.75250025  0.69845786  1
  F  F456  1  0.28869192  0.00214572  0.29820910  1
  F  F457  1  0.28512228  -0.00392882  0.79901559  1
  F  F458  1  0.28766836  0.50002355  0.30000077  1
  F  F459  1  0.28052940  0.49209152  0.79986048  1
  F  F460  1  0.62407777  0.00176764  0.29905900  1
  F  F461  1  0.61857856  -0.00161884  0.79965814  1
  F  F462  1  0.62099740  0.49667791  0.29725250  1
  F  F463  1  0.62266380  0.50107551  0.79774994  1
  F  F464  1  0.95878798  0.00114169  0.29690670  1
  F  F465  1  0.95057307  0.01115666  0.80130788  1
  F  F466  1  0.95341034  0.50007424  0.29743691  1
  F  F467  1  0.96416767  0.49980967  0.79827245  1
  F  F468  1  0.11965403  0.24675068  0.29666594  1
  F  F469  1  0.11918899  0.25178948  0.79716437  1
  F  F470  1  0.12164505  0.75726339  0.29828160  1
  F  F471  1  0.11926206  0.75078356  0.79608050  1
  F  F472  1  0.45449427  0.24673875  0.29969586  1
  F  F473  1  0.46855626  0.25086089  0.80457500  1
  F  F474  1  0.45427684  0.75160746  0.29564341  1
  F  F475  1  0.45355279  0.74903531  0.80005624  1
  F  F476  1  0.78805539  0.24254303  0.30049123  1
  F  F477  1  0.79031722  0.25069455  0.79840710  1
  F  F478  1  0.79165206  0.75407812  0.29649549  1
  F  F479  1  0.78888844  0.74882014  0.79513241  1
