# generated using pymatgen
data_K24Na3Li5Mg64Fe17Si79(O5F)48
_symmetry_space_group_name_H-M   'P 1'
_cell_length_a   16.09931010
_cell_length_b   18.59014091
_cell_length_c   20.56016890
_cell_angle_alpha   89.97777174
_cell_angle_beta   100.00403106
_cell_angle_gamma   90.04169531
_symmetry_Int_Tables_number   1
_chemical_formula_structural   K24Na3Li5Mg64Fe17Si79(O5F)48
_chemical_formula_sum   'K24 Na3 Li5 Mg64 Fe17 Si79 O240 F48'
_cell_volume   6059.85964396
_cell_formula_units_Z   1
loop_
 _symmetry_equiv_pos_site_id
 _symmetry_equiv_pos_as_xyz
  1  'x, y, z'
loop_
 _atom_site_type_symbol
 _atom_site_label
 _atom_site_symmetry_multiplicity
 _atom_site_fract_x
 _atom_site_fract_y
 _atom_site_fract_z
 _atom_site_occupancy
  K  K0  1  0.00556061  0.00295895  -0.00573324  1
  K  K1  1  -0.01036400  0.01058094  0.50599379  1
  K  K2  1  -0.00695210  0.50179837  0.00527463  1
  K  K3  1  -0.01505743  0.49603351  0.49130996  1
  K  K4  1  0.33861892  0.00346430  -0.00312991  1
  K  K5  1  0.33323453  -0.00363892  0.50511464  1
  K  K6  1  0.34775879  0.50286813  0.01643991  1
  K  K7  1  0.34172466  0.50245760  0.48141717  1
  K  K8  1  0.66409526  -0.00263787  0.00408674  1
  K  K9  1  0.67905101  -0.00996914  0.49917368  1
  K  K10  1  0.65933444  0.50359827  0.01489299  1
  K  K11  1  0.66294520  0.50558307  0.48787775  1
  K  K12  1  0.16278290  0.25055699  0.00069437  1
  K  K13  1  0.15947337  0.24442927  0.49658398  1
  K  K14  1  0.16548092  0.75042667  0.00316238  1
  K  K15  1  0.17809931  0.75397651  0.49853487  1
  K  K16  1  0.50186686  0.24300715  0.01125909  1
  K  K17  1  0.49314193  0.24941650  0.48938969  1
  K  K18  1  0.49646795  0.75229683  0.00796223  1
  K  K19  1  0.49836679  0.74468622  0.48891238  1
  K  K20  1  0.83637233  0.24614640  0.00606100  1
  K  K21  1  0.84286058  0.24153129  0.49401149  1
  K  K22  1  0.82882303  0.75573851  0.00059080  1
  K  K23  1  0.81935208  0.74936334  0.49636991  1
  Na  Na24  1  0.83213059  0.50237435  0.74416769  1
  Na  Na25  1  0.33421287  0.08060912  0.75819588  1
  Na  Na26  1  0.33610154  0.41866403  0.24885638  1
  Li  Li27  1  0.83245295  -0.00265918  0.74217856  1
  Li  Li28  1  0.65463531  0.74692132  0.24420173  1
  Li  Li29  1  0.50382342  0.66730780  0.24344544  1
  Li  Li30  1  0.17099457  0.83135783  0.25402447  1
  Li  Li31  1  0.50131202  0.16642771  0.24708582  1
  Mg  Mg32  1  -0.00110060  0.24931280  0.74632640  1
  Mg  Mg33  1  0.33748334  0.24968482  0.24957819  1
  Mg  Mg34  1  0.33589194  0.75138353  0.75543857  1
  Mg  Mg35  1  0.83177113  0.49921560  0.24764487  1
  Mg  Mg36  1  0.66892261  0.75073912  0.74671246  1
  Mg  Mg37  1  0.33288075  0.75012773  0.25250292  1
  Mg  Mg38  1  0.16559939  -0.00145942  0.75281744  1
  Mg  Mg39  1  0.00244976  0.74977867  0.25051525  1
  Mg  Mg40  1  0.83317075  -0.00160758  0.25261212  1
  Mg  Mg41  1  0.33230154  0.24863926  0.75360795  1
  Mg  Mg42  1  0.50068849  0.00171978  0.25020739  1
  Mg  Mg43  1  0.50068774  0.50109601  0.24824743  1
  Mg  Mg44  1  -0.00012317  0.25116100  0.25078908  1
  Mg  Mg45  1  -0.00065187  0.75400918  0.74885125  1
  Mg  Mg46  1  0.49792826  -0.00099691  0.75516845  1
  Mg  Mg47  1  0.50149371  0.49908758  0.74901362  1
  Mg  Mg48  1  0.16718390  -0.00428459  0.25198330  1
  Mg  Mg49  1  0.16690053  0.50162375  0.74973472  1
  Mg  Mg50  1  0.66602089  0.24703587  0.24937331  1
  Mg  Mg51  1  0.66760097  0.25058965  0.75129920  1
  Mg  Mg52  1  0.16864043  0.50195038  0.25148442  1
  Mg  Mg53  1  0.66717095  0.41705742  0.74880685  1
  Mg  Mg54  1  0.83399717  0.33455402  0.24725354  1
  Mg  Mg55  1  -0.00110949  0.41582992  0.24917714  1
  Mg  Mg56  1  0.50066322  0.16536466  0.75533671  1
  Mg  Mg57  1  0.16539450  0.33449873  0.74829176  1
  Mg  Mg58  1  0.16899818  0.66752074  0.75208740  1
  Mg  Mg59  1  0.83283626  0.33485363  0.74740979  1
  Mg  Mg60  1  0.82916373  0.66739431  0.24653130  1
  Mg  Mg61  1  0.49994464  0.33258061  0.75173990  1
  Mg  Mg62  1  0.83171027  0.83085008  0.25103806  1
  Mg  Mg63  1  0.33638236  0.58476657  0.75210304  1
  Mg  Mg64  1  0.50322354  0.66562945  0.74974156  1
  Mg  Mg65  1  0.66529954  0.91314570  0.25017991  1
  Mg  Mg66  1  -0.00348578  0.08387117  0.74691372  1
  Mg  Mg67  1  -0.00154913  0.58561803  0.74740854  1
  Mg  Mg68  1  0.82998037  0.83784120  0.74697989  1
  Mg  Mg69  1  0.33529165  0.08388340  0.24903850  1
  Mg  Mg70  1  0.00216637  0.91359523  0.25182907  1
  Mg  Mg71  1  0.16518407  0.16447991  0.75059947  1
  Mg  Mg72  1  0.66812715  0.58438497  0.74568061  1
  Mg  Mg73  1  -0.00147074  0.41765945  0.74690811  1
  Mg  Mg74  1  0.16992589  0.66973663  0.25227601  1
  Mg  Mg75  1  0.66358074  0.41507753  0.24797442  1
  Mg  Mg76  1  0.66590659  0.08279940  0.25118656  1
  Mg  Mg77  1  0.49977918  0.33093111  0.24788599  1
  Mg  Mg78  1  0.16892120  0.83605351  0.75431940  1
  Mg  Mg79  1  0.83049947  0.66771534  0.74457173  1
  Mg  Mg80  1  0.66820005  0.91740603  0.74595387  1
  Mg  Mg81  1  -0.00058195  0.58417904  0.24854408  1
  Mg  Mg82  1  0.16901222  0.33509593  0.24966170  1
  Mg  Mg83  1  0.83129576  0.16339596  0.74673828  1
  Mg  Mg84  1  0.00165942  0.08318621  0.25343839  1
  Mg  Mg85  1  0.33259751  0.91488313  0.25315609  1
  Mg  Mg86  1  0.49969580  0.82950900  0.24966004  1
  Mg  Mg87  1  0.33635567  0.91494092  0.75792405  1
  Mg  Mg88  1  0.66715455  0.08311712  0.75072625  1
  Mg  Mg89  1  0.83388346  0.16389696  0.25281613  1
  Mg  Mg90  1  0.33954169  0.58682544  0.25341032  1
  Mg  Mg91  1  0.50244617  0.83597014  0.75366224  1
  Mg  Mg92  1  0.16860584  0.16534728  0.25129874  1
  Mg  Mg93  1  0.66184483  0.58734248  0.24529953  1
  Mg  Mg94  1  -0.00296413  0.91912908  0.75077979  1
  Mg  Mg95  1  0.33383306  0.41619339  0.75089044  1
  Fe  Fe96  1  0.48044506  0.09039283  0.89610259  1
  Fe  Fe97  1  0.30616332  0.82772269  0.89692206  1
  Fe  Fe98  1  0.35264781  0.33037696  0.10615965  1
  Fe  Fe99  1  0.86124764  0.41647729  0.10776598  1
  Fe  Fe100  1  0.68590921  0.66101836  0.60417990  1
  Fe  Fe101  1  0.47962142  0.91586927  0.89793073  1
  Fe  Fe102  1  0.13550321  0.91871881  0.89249897  1
  Fe  Fe103  1  0.68355123  0.83278188  0.60447968  1
  Fe  Fe104  1  0.80860049  0.07730209  0.39124048  1
  Fe  Fe105  1  0.86077830  0.91516916  0.60771658  1
  Fe  Fe106  1  0.02967681  0.16687126  0.60903384  1
  Fe  Fe107  1  0.31096484  0.67171813  0.39256736  1
  Fe  Fe108  1  0.52632215  0.41301712  0.10481061  1
  Fe  Fe109  1  0.97370692  0.33822256  0.38892324  1
  Fe  Fe110  1  0.52217844  0.59005133  0.10667018  1
  Fe  Fe111  1  0.52107647  0.08127618  0.11201611  1
  Fe  Fe112  1  0.47603552  0.41086825  0.39066509  1
  Si  Si113  1  0.97156360  0.33260786  0.88322924  1
  Si  Si114  1  0.30602376  0.16146414  0.38701145  1
  Si  Si115  1  0.03304302  0.83233895  0.61187659  1
  Si  Si116  1  0.19493183  0.42219989  0.61450297  1
  Si  Si117  1  0.86033066  0.91946288  0.11544460  1
  Si  Si118  1  0.03073494  0.66614985  0.61341140  1
  Si  Si119  1  0.69362822  0.83892438  0.11570147  1
  Si  Si120  1  0.14146628  0.07790783  0.38686898  1
  Si  Si121  1  0.96870966  0.16705370  0.88401916  1
  Si  Si122  1  0.34657887  0.16458113  0.11105391  1
  Si  Si123  1  0.13812481  0.58282646  0.88471742  1
  Si  Si124  1  0.18998402  0.91504111  0.11825196  1
  Si  Si125  1  0.98036633  0.16696876  0.38905012  1
  Si  Si126  1  0.03293173  0.33260796  0.11123591  1
  Si  Si127  1  0.47806766  0.92291098  0.38651863  1
  Si  Si128  1  0.64847822  0.17362548  0.88918695  1
  Si  Si129  1  0.52377382  0.92588569  0.61399249  1
  Si  Si130  1  0.68922417  0.33728809  0.61318445  1
  Si  Si131  1  0.51925917  0.91065659  0.11501339  1
  Si  Si132  1  0.31262061  0.65627955  0.88973825  1
  Si  Si133  1  0.64429195  0.16465848  0.38777035  1
  Si  Si134  1  0.80370791  0.58663563  0.38150987  1
  Si  Si135  1  0.97301724  0.66873224  0.88404098  1
  Si  Si136  1  0.02723068  0.33942364  0.61024959  1
  Si  Si137  1  0.86523618  0.08465577  0.11632254  1
  Si  Si138  1  0.80801360  0.41844776  0.88324746  1
  Si  Si139  1  0.85915710  0.41619448  0.61229090  1
  Si  Si140  1  0.52305992  0.09030450  0.61631845  1
  Si  Si141  1  0.64692162  0.33653894  0.88562652  1
  Si  Si142  1  0.85233172  0.08866953  0.60954709  1
  Si  Si143  1  0.35884403  0.16844437  0.61833747  1
  Si  Si144  1  0.80047712  0.41952793  0.38594161  1
  Si  Si145  1  0.35260018  0.83215800  0.11758564  1
  Si  Si146  1  0.64012494  0.66925965  0.38029558  1
  Si  Si147  1  0.13939494  0.09007169  0.88898194  1
  Si  Si148  1  0.14220555  0.41989974  0.38682272  1
  Si  Si149  1  0.19008989  0.07737479  0.11610630  1
  Si  Si150  1  0.34908864  0.66926411  0.11374624  1
  Si  Si151  1  0.64177669  0.82707608  0.88763416  1
  Si  Si152  1  0.69657209  0.67382313  0.10988079  1
  Si  Si153  1  0.51922660  0.41165889  0.61554389  1
  Si  Si154  1  0.03015144  0.16618336  0.11614345  1
  Si  Si155  1  0.13959766  0.91425526  0.38679473  1
  Si  Si156  1  0.30736402  0.34042328  0.88628070  1
  Si  Si157  1  0.36424863  0.66852019  0.61659886  1
  Si  Si158  1  0.31305670  0.84104067  0.39048910  1
  Si  Si159  1  0.64311644  0.32786646  0.38728043  1
  Si  Si160  1  0.35442190  0.33008344  0.61575922  1
  Si  Si161  1  0.47895138  0.41454846  0.88491567  1
  Si  Si162  1  0.85791952  0.58772028  0.11007438  1
  Si  Si163  1  0.19848597  0.58716749  0.61576153  1
  Si  Si164  1  0.19588183  0.07794248  0.61439608  1
  Si  Si165  1  0.79964603  0.91601968  0.88370495  1
  Si  Si166  1  0.96523060  0.83455996  0.88774406  1
  Si  Si167  1  0.20019869  0.91218726  0.61685426  1
  Si  Si168  1  0.52048875  0.57453936  0.61240776  1
  Si  Si169  1  0.63835474  0.83378296  0.38334495  1
  Si  Si170  1  0.18531708  0.58549356  0.11475214  1
  Si  Si171  1  0.14147420  0.58441630  0.38627983  1
  Si  Si172  1  0.02433804  0.66983884  0.11437762  1
  Si  Si173  1  0.80550795  0.08223379  0.88419891  1
  Si  Si174  1  0.69760423  0.32599450  0.11062191  1
  Si  Si175  1  0.13703796  0.41741850  0.88369045  1
  Si  Si176  1  0.36654528  0.83330089  0.61753965  1
  Si  Si177  1  0.80889417  0.58375807  0.88320127  1
  Si  Si178  1  0.97382687  0.66044103  0.38295328  1
  Si  Si179  1  0.81259456  0.90708359  0.38778240  1
  Si  Si180  1  0.48032267  0.58098813  0.39078078  1
  Si  Si181  1  0.02345584  0.83387468  0.11610793  1
  Si  Si182  1  0.48023336  0.57907508  0.88473455  1
  Si  Si183  1  0.86499910  0.58565653  0.60892993  1
  Si  Si184  1  0.30035396  0.32641598  0.38856462  1
  Si  Si185  1  0.97746298  0.82510917  0.38573317  1
  Si  Si186  1  0.69527231  0.16062774  0.11387057  1
  Si  Si187  1  0.64513594  0.66286892  0.88464246  1
  Si  Si188  1  0.30079180  0.17582243  0.88932420  1
  Si  Si189  1  0.68744184  0.17149092  0.61368929  1
  Si  Si190  1  0.47512215  0.08710998  0.38468427  1
  Si  Si191  1  0.18976752  0.42238730  0.11342273  1
  O  O192  1  0.27098311  0.10266362  0.08488047  1
  O  O193  1  0.28235182  0.11222855  0.59117773  1
  O  O194  1  0.26408363  0.61899106  0.08380125  1
  O  O195  1  0.27424514  0.62863697  0.58720935  1
  O  O196  1  0.62101385  0.10778705  0.08027485  1
  O  O197  1  0.60166006  0.12510215  0.58454179  1
  O  O198  1  0.61360014  0.63398930  0.07179760  1
  O  O199  1  0.59897594  0.59180100  0.57694880  1
  O  O200  1  0.94406705  0.12074719  0.08586623  1
  O  O201  1  0.92580940  0.12543009  0.57487246  1
  O  O202  1  0.94133322  0.62244235  0.08315550  1
  O  O203  1  0.95042593  0.61547962  0.58128397  1
  O  O204  1  0.11564152  0.36314954  0.08242772  1
  O  O205  1  0.10254956  0.38826878  0.58525980  1
  O  O206  1  0.10559110  0.86642464  0.08830342  1
  O  O207  1  0.12002748  0.86076133  0.58633979  1
  O  O208  1  0.43948889  0.35505767  0.06238367  1
  O  O209  1  0.43910835  0.35789271  0.58798119  1
  O  O210  1  0.43851180  0.85548360  0.08999132  1
  O  O211  1  0.43924083  0.87582099  0.58623755  1
  O  O212  1  0.78205370  0.34508583  0.07985694  1
  O  O213  1  0.76845792  0.37473437  0.58426590  1
  O  O214  1  0.76954991  0.88181041  0.08463045  1
  O  O215  1  0.77601883  0.85540191  0.56617986  1
  O  O216  1  0.27070118  0.40424541  0.08052137  1
  O  O217  1  0.27175082  0.38020034  0.58658058  1
  O  O218  1  0.27234763  0.88596636  0.08866310  1
  O  O219  1  0.27849184  0.87493985  0.58673852  1
  O  O220  1  0.62324547  0.37768553  0.07441013  1
  O  O221  1  0.60253952  0.38378372  0.58625809  1
  O  O222  1  0.60294186  0.87752917  0.08707434  1
  O  O223  1  0.59889420  0.90363481  0.57623201  1
  O  O224  1  0.95491396  0.37982151  0.07377456  1
  O  O225  1  0.93662723  0.37992236  0.58098832  1
  O  O226  1  0.93707981  0.87980748  0.08458766  1
  O  O227  1  0.95869625  0.88258742  0.57485585  1
  O  O228  1  0.10735782  0.12782345  0.08623736  1
  O  O229  1  0.11622879  0.12048255  0.57283453  1
  O  O230  1  0.10351071  0.63689768  0.08353294  1
  O  O231  1  0.11182995  0.63010534  0.58577367  1
  O  O232  1  0.42860918  0.14107807  0.07988589  1
  O  O233  1  0.44152513  0.14217652  0.58713312  1
  O  O234  1  0.42233529  0.64356075  0.07467826  1
  O  O235  1  0.43789762  0.62653482  0.58616032  1
  O  O236  1  0.78258669  0.13261334  0.08671671  1
  O  O237  1  0.76673735  0.13969524  0.58420330  1
  O  O238  1  0.78097061  0.64349539  0.08157045  1
  O  O239  1  0.78458518  0.62932098  0.57158656  1
  O  O240  1  0.06589195  0.11745537  0.41571331  1
  O  O241  1  0.05591478  0.12609815  0.91538387  1
  O  O242  1  0.05199334  0.60635495  0.41233905  1
  O  O243  1  0.06282519  0.62660640  0.91318032  1
  O  O244  1  0.39506238  0.12012686  0.41704922  1
  O  O245  1  0.37939284  0.12697241  0.92135695  1
  O  O246  1  0.40819899  0.61962369  0.42652243  1
  O  O247  1  0.39451620  0.60150640  0.91238372  1
  O  O248  1  0.71471564  0.10977381  0.42604930  1
  O  O249  1  0.73090789  0.12144762  0.91736500  1
  O  O250  1  0.73098669  0.62966995  0.41240681  1
  O  O251  1  0.72781213  0.61276025  0.91524564  1
  O  O252  1  0.21918590  0.36369559  0.41609544  1
  O  O253  1  0.22870853  0.38119158  0.91343912  1
  O  O254  1  0.23087046  0.87832021  0.41782797  1
  O  O255  1  0.21073562  0.85052441  0.93106677  1
  O  O256  1  0.56619226  0.34884592  0.42477623  1
  O  O257  1  0.56096253  0.36328332  0.91247729  1
  O  O258  1  0.56320583  0.87524000  0.41542097  1
  O  O259  1  0.56512614  0.84535154  0.92510685  1
  O  O260  1  0.88286480  0.37745569  0.42384720  1
  O  O261  1  0.89461544  0.37251472  0.91269660  1
  O  O262  1  0.89432756  0.85313562  0.41406623  1
  O  O263  1  0.87881606  0.86266057  0.91389258  1
  O  O264  1  0.06313390  0.40066555  0.42238697  1
  O  O265  1  0.06212824  0.37281388  0.91218576  1
  O  O266  1  0.06384543  0.87084944  0.41597664  1
  O  O267  1  0.03812856  0.88610579  0.92546101  1
  O  O268  1  0.38322396  0.36901827  0.42431541  1
  O  O269  1  0.39445941  0.38656555  0.91201413  1
  O  O270  1  0.39638726  0.89345842  0.41774426  1
  O  O271  1  0.38866586  0.88966282  0.93650366  1
  O  O272  1  0.71983441  0.38569277  0.41485328  1
  O  O273  1  0.72599436  0.39067047  0.91469276  1
  O  O274  1  0.72938650  0.87218068  0.41319771  1
  O  O275  1  0.72154493  0.88195959  0.91626567  1
  O  O276  1  0.23207195  0.11656376  0.41688816  1
  O  O277  1  0.21465743  0.14878840  0.91603080  1
  O  O278  1  0.21303000  0.63812508  0.42367102  1
  O  O279  1  0.23039337  0.61697579  0.91502764  1
  O  O280  1  0.55395727  0.14127342  0.41214372  1
  O  O281  1  0.57030541  0.15675306  0.92512559  1
  O  O282  1  0.56859769  0.62859737  0.41436165  1
  O  O283  1  0.56214892  0.63037623  0.91308718  1
  O  O284  1  0.90428671  0.13383161  0.42170372  1
  O  O285  1  0.89345423  0.12644323  0.91513849  1
  O  O286  1  0.89275646  0.62832180  0.41243176  1
  O  O287  1  0.89621122  0.62821836  0.91402708  1
  O  O288  1  0.16500277  -0.00408096  0.08804141  1
  O  O289  1  0.19152371  -0.00611796  0.58582173  1
  O  O290  1  0.15837876  0.50460883  0.08533675  1
  O  O291  1  0.19417335  0.50488310  0.58650008  1
  O  O292  1  0.49433611  -0.01317777  0.08046117  1
  O  O293  1  0.49682176  0.00949777  0.58834619  1
  O  O294  1  0.51023297  0.50235370  0.06316656  1
  O  O295  1  0.48831742  0.49170871  0.58928658  1
  O  O296  1  0.85493622  0.00222878  0.08615755  1
  O  O297  1  0.83140952  0.00989084  0.57787401  1
  O  O298  1  0.83860546  0.51102118  0.07337881  1
  O  O299  1  0.85304159  0.49956781  0.58574177  1
  O  O300  1  0.01991491  0.24739218  0.08486472  1
  O  O301  1  0.02693226  0.26226556  0.57579097  1
  O  O302  1  0.00805996  0.75218464  0.08488707  1
  O  O303  1  0.02002672  0.74784417  0.58373611  1
  O  O304  1  0.30721197  0.23912831  0.07770955  1
  O  O305  1  0.33268700  0.24908678  0.58588523  1
  O  O306  1  0.32194898  0.75284141  0.08817579  1
  O  O307  1  0.35828116  0.75062253  0.58721489  1
  O  O308  1  0.67522478  0.24203784  0.08498539  1
  O  O309  1  0.67222405  0.25491904  0.58512086  1
  O  O310  1  0.69221810  0.75861665  0.08341673  1
  O  O311  1  0.64261312  0.74574367  0.56748112  1
  O  O312  1  0.14541463  -0.00374421  0.41761175  1
  O  O313  1  0.15821964  0.01421814  0.92647302  1
  O  O314  1  0.17048487  0.50247241  0.41208508  1
  O  O315  1  0.13564309  0.49974752  0.91239322  1
  O  O316  1  0.49557685  0.00543177  0.41635228  1
  O  O317  1  0.51679799  0.00390567  0.93380422  1
  O  O318  1  0.49836923  0.50320305  0.42798189  1
  O  O319  1  0.50368177  0.49655784  0.91080978  1
  O  O320  1  0.83494243  -0.01678501  0.42367879  1
  O  O321  1  0.81720564  -0.00084057  0.91344112  1
  O  O322  1  0.80924861  0.50475660  0.41231870  1
  O  O323  1  0.82818741  0.50081124  0.90999154  1
  O  O324  1  0.30726148  0.24221956  0.41926268  1
  O  O325  1  0.31614578  0.26011156  0.91766251  1
  O  O326  1  0.32858650  0.76552044  0.42937476  1
  O  O327  1  0.33430999  0.73089593  0.92667663  1
  O  O328  1  0.67225913  0.24636180  0.41594126  1
  O  O329  1  0.67922469  0.25706122  0.91277766  1
  O  O330  1  0.64570686  0.75134707  0.41214269  1
  O  O331  1  0.67161533  0.74361174  0.91250872  1
  O  O332  1  1.00438725  0.24578529  0.42019335  1
  O  O333  1  0.97634652  0.25050359  0.91340493  1
  O  O334  1  0.99569471  0.74204410  0.41291379  1
  O  O335  1  0.97988561  0.74982096  0.91550809  1
  O  O336  1  0.20638829  0.08030980  0.19664022  1
  O  O337  1  0.20117379  0.08151938  0.69375028  1
  O  O338  1  0.20283300  0.58568865  0.19449679  1
  O  O339  1  0.21350771  0.58444831  0.69640816  1
  O  O340  1  0.54690320  0.08024539  0.20237685  1
  O  O341  1  0.54535400  0.08972215  0.69616406  1
  O  O342  1  0.54515018  0.58185449  0.19685495  1
  O  O343  1  0.54028320  0.58036597  0.69356475  1
  O  O344  1  0.88302782  0.08171468  0.19636859  1
  O  O345  1  0.87562559  0.09014647  0.69031085  1
  O  O346  1  0.87669026  0.58510883  0.19106510  1
  O  O347  1  0.88338730  0.59218396  0.68896368  1
  O  O348  1  0.04553388  0.33232334  0.19192733  1
  O  O349  1  0.04396988  0.33743827  0.69161634  1
  O  O350  1  0.03686204  0.83342138  0.19536725  1
  O  O351  1  0.04631418  0.83072942  0.69274403  1
  O  O352  1  0.38096484  0.32443694  0.19585010  1
  O  O353  1  0.37391651  0.33383007  0.69628872  1
  O  O354  1  0.37243428  0.83477009  0.19780645  1
  O  O355  1  0.38153950  0.82935207  0.69725506  1
  O  O356  1  0.71276921  0.33020622  0.19228299  1
  O  O357  1  0.70853918  0.33522024  0.69374793  1
  O  O358  1  0.71500562  0.83833021  0.19505072  1
  O  O359  1  0.70870404  0.83320770  0.69777697  1
  O  O360  1  0.19869451  0.41985332  0.19315183  1
  O  O361  1  0.21166461  0.41950641  0.69526123  1
  O  O362  1  0.20974107  0.91745838  0.19782935  1
  O  O363  1  0.21403362  0.91448957  0.69651462  1
  O  O364  1  0.54672883  0.41463185  0.19696071  1
  O  O365  1  0.54057043  0.41265114  0.69611441  1
  O  O366  1  0.54096695  0.91445122  0.19565410  1
  O  O367  1  0.54404029  0.91940454  0.69456509  1
  O  O368  1  0.87844996  0.41917793  0.19903103  1
  O  O369  1  0.88057329  0.40969474  0.69174683  1
  O  O370  1  0.87872958  0.91677856  0.19572338  1
  O  O371  1  0.88097189  0.91368339  0.69904235  1
  O  O372  1  0.04541483  0.16472625  0.19645809  1
  O  O373  1  0.04537515  0.16855419  0.70105074  1
  O  O374  1  0.04228786  0.66813340  0.19452628  1
  O  O375  1  0.04700282  0.66609605  0.69412538  1
  O  O376  1  0.36328968  0.16379571  0.19172517  1
  O  O377  1  0.38086887  0.17577561  0.69725776  1
  O  O378  1  0.36906488  0.66904284  0.19340872  1
  O  O379  1  0.37911285  0.66581314  0.69714692  1
  O  O380  1  0.71360530  0.16294405  0.19452720  1
  O  O381  1  0.70627618  0.17049977  0.69434332  1
  O  O382  1  0.71320716  0.66674699  0.18968817  1
  O  O383  1  0.70987047  0.66569206  0.69692846  1
  O  O384  1  0.12468506  0.08015950  0.30631537  1
  O  O385  1  0.12256890  0.08549056  0.80827459  1
  O  O386  1  0.12156039  0.58609812  0.30540895  1
  O  O387  1  0.12322529  0.58380665  0.80403469  1
  O  O388  1  0.45184764  0.08068056  0.30576192  1
  O  O389  1  0.46868813  0.08450049  0.80544758  1
  O  O390  1  0.45616786  0.57789323  0.31106668  1
  O  O391  1  0.45992138  0.58109788  0.80396238  1
  O  O392  1  0.79091145  0.08008668  0.29956407  1
  O  O393  1  0.78672173  0.08829159  0.80492126  1
  O  O394  1  0.79004834  0.58497939  0.30143622  1
  O  O395  1  0.78809861  0.58963349  0.80427098  1
  O  O396  1  0.28339976  0.32335350  0.30890506  1
  O  O397  1  0.28852754  0.33830380  0.80538375  1
  O  O398  1  0.29497277  0.83662832  0.31076456  1
  O  O399  1  0.28914742  0.82927701  0.80331401  1
  O  O400  1  0.62777921  0.32923315  0.30664083  1
  O  O401  1  0.62513423  0.33593628  0.80487089  1
  O  O402  1  0.61945444  0.83668059  0.30414859  1
  O  O403  1  0.62338658  0.83022905  0.80685958  1
  O  O404  1  0.95584360  0.33305864  0.29753426  1
  O  O405  1  0.95609641  0.33409158  0.80294564  1
  O  O406  1  0.95889657  0.83076390  0.30547349  1
  O  O407  1  0.95517020  0.83238053  0.80732808  1
  O  O408  1  0.12290505  0.41720824  0.30574853  1
  O  O409  1  0.12229422  0.41754353  0.80306771  1
  O  O410  1  0.12066950  0.91725768  0.30718627  1
  O  O411  1  0.11781485  0.91593859  0.79991563  1
  O  O412  1  0.46875202  0.41574795  0.30238138  1
  O  O413  1  0.45778307  0.41559012  0.80407690  1
  O  O414  1  0.45740260  0.91946691  0.30645242  1
  O  O415  1  0.45822347  0.91430137  0.80456441  1
  O  O416  1  0.78804811  0.41711007  0.30534347  1
  O  O417  1  0.78677853  0.41067720  0.80411564  1
  O  O418  1  0.79426300  0.91243518  0.30695214  1
  O  O419  1  0.78409427  0.91586477  0.80462059  1
  O  O420  1  0.28802878  0.16217669  0.30690512  1
  O  O421  1  0.28142085  0.17819069  0.80898285  1
  O  O422  1  0.28875830  0.66894138  0.30161487  1
  O  O423  1  0.29210894  0.66155741  0.80829322  1
  O  O424  1  0.63411081  0.16458444  0.30819156  1
  O  O425  1  0.62833716  0.17056162  0.80801799  1
  O  O426  1  0.62691727  0.66752908  0.30177928  1
  O  O427  1  0.62359999  0.66249324  0.80433631  1
  O  O428  1  0.96073582  0.16495634  0.30734076  1
  O  O429  1  0.95160154  0.16902081  0.80408776  1
  O  O430  1  0.95550667  0.66466500  0.30266033  1
  O  O431  1  0.95717725  0.66710675  0.80376711  1
  F  F432  1  0.04484848  -0.00093116  0.20335883  1
  F  F433  1  0.04486265  0.00237823  0.70037184  1
  F  F434  1  0.04433694  0.50161677  0.20301898  1
  F  F435  1  0.04833936  0.50140532  0.69894602  1
  F  F436  1  0.37614908  -0.00231959  0.20364068  1
  F  F437  1  0.38068349  -0.01006483  0.70097939  1
  F  F438  1  0.38141394  0.51297164  0.19773651  1
  F  F439  1  0.37785884  0.49949274  0.70295329  1
  F  F440  1  0.71375433  -0.00508727  0.20206437  1
  F  F441  1  0.70609037  0.00405790  0.69935766  1
  F  F442  1  0.71321802  0.49998621  0.19981702  1
  F  F443  1  0.69807281  0.49778795  0.69645241  1
  F  F444  1  0.20911179  0.24775946  0.20321951  1
  F  F445  1  0.21181514  0.25328105  0.70171439  1
  F  F446  1  0.20984172  0.75229262  0.20282082  1
  F  F447  1  0.21476398  0.74561641  0.70303586  1
  F  F448  1  0.55005367  0.24941974  0.20174735  1
  F  F449  1  0.54586862  0.25138607  0.70500592  1
  F  F450  1  0.54016666  0.75458839  0.19657842  1
  F  F451  1  0.54417094  0.74930730  0.70350146  1
  F  F452  1  0.88084528  0.24347315  0.20065187  1
  F  F453  1  0.87675080  0.25141116  0.70006296  1
  F  F454  1  0.88094385  0.75086862  0.20030180  1
  F  F455  1  0.88094149  0.75088843  0.70139257  1
  F  F456  1  0.28720929  0.00046128  0.30022943  1
  F  F457  1  0.28050840  -0.00989978  0.80509471  1
  F  F458  1  0.28306709  0.51058628  0.30166199  1
  F  F459  1  0.28818514  0.50010599  0.79854925  1
  F  F460  1  0.62397778  -0.00443597  0.30033681  1
  F  F461  1  0.62358620  -0.00023488  0.79760826  1
  F  F462  1  0.62912639  0.50116893  0.29830701  1
  F  F463  1  0.62122463  0.49932898  0.79771142  1
  F  F464  1  0.95685740  -0.00245051  0.29953136  1
  F  F465  1  0.95852700  0.00500124  0.79924635  1
  F  F466  1  0.95403229  0.50351187  0.29827726  1
  F  F467  1  0.96695250  0.50080696  0.79836068  1
  F  F468  1  0.12058406  0.24834661  0.29763783  1
  F  F469  1  0.11841567  0.25697683  0.79825251  1
  F  F470  1  0.11756902  0.74727180  0.30121046  1
  F  F471  1  0.12004415  0.74754328  0.79809156  1
  F  F472  1  0.45438474  0.24767034  0.30034578  1
  F  F473  1  0.45447703  0.25405718  0.80124222  1
  F  F474  1  0.45147899  0.75603926  0.30187100  1
  F  F475  1  0.45756617  0.74544089  0.79995712  1
  F  F476  1  0.79094745  0.24994678  0.29608456  1
  F  F477  1  0.78957923  0.25122747  0.79588800  1
  F  F478  1  0.79787376  0.74849090  0.29985227  1
  F  F479  1  0.79116819  0.74969297  0.79766158  1
