# generated using pymatgen
data_K24Na3Li5Mg64Fe17Si79(O5F)48
_symmetry_space_group_name_H-M   'P 1'
_cell_length_a   16.07032774
_cell_length_b   18.55888588
_cell_length_c   20.53486386
_cell_angle_alpha   89.98923338
_cell_angle_beta   100.00906380
_cell_angle_gamma   90.00826966
_symmetry_Int_Tables_number   1
_chemical_formula_structural   K24Na3Li5Mg64Fe17Si79(O5F)48
_chemical_formula_sum   'K24 Na3 Li5 Mg64 Fe17 Si79 O240 F48'
_cell_volume   6031.25640739
_cell_formula_units_Z   1
loop_
 _symmetry_equiv_pos_site_id
 _symmetry_equiv_pos_as_xyz
  1  'x, y, z'
loop_
 _atom_site_type_symbol
 _atom_site_label
 _atom_site_symmetry_multiplicity
 _atom_site_fract_x
 _atom_site_fract_y
 _atom_site_fract_z
 _atom_site_occupancy
  K  K0  1  -0.00194952  -0.00098017  0.00108361  1
  K  K1  1  -0.00628608  -0.00172826  0.49296318  1
  K  K2  1  -0.00952111  0.49731212  -0.00728329  1
  K  K3  1  -0.00353977  0.49984188  0.50823926  1
  K  K4  1  0.34069490  0.00673450  0.00704583  1
  K  K5  1  0.33996614  -0.00035017  0.49382414  1
  K  K6  1  0.32863557  0.49941399  -0.00722287  1
  K  K7  1  0.33728810  0.49911182  0.50518866  1
  K  K8  1  0.66475617  0.00114744  0.00131347  1
  K  K9  1  0.66257757  0.00205329  0.48777525  1
  K  K10  1  0.67359022  0.50735296  -0.00153399  1
  K  K11  1  0.66911891  0.50836300  0.50558734  1
  K  K12  1  0.16550182  0.24945976  -0.00132038  1
  K  K13  1  0.15975448  0.24790556  0.50090433  1
  K  K14  1  0.16911809  0.74911447  -0.00176964  1
  K  K15  1  0.15983114  0.75387694  0.49751390  1
  K  K16  1  0.50436175  0.25322913  -0.00311260  1
  K  K17  1  0.49640405  0.24549999  0.50154674  1
  K  K18  1  0.51213357  0.74987242  -0.00236330  1
  K  K19  1  0.51564166  0.74946666  0.50709756  1
  K  K20  1  0.82841530  0.24739657  -0.00393713  1
  K  K21  1  0.82546229  0.24867890  0.49964798  1
  K  K22  1  0.82995490  0.74961473  -0.00070343  1
  K  K23  1  0.82897552  0.74405974  0.49996657  1
  Na  Na24  1  0.16036497  0.49635109  0.75123227  1
  Na  Na25  1  0.49919790  0.33203867  0.75381868  1
  Na  Na26  1  0.50014109  0.82437408  0.74523878  1
  Li  Li27  1  0.00078056  0.24749627  0.25324821  1
  Li  Li28  1  0.50752076  0.00123069  0.25507993  1
  Li  Li29  1  0.66185126  0.92229279  0.25498281  1
  Li  Li30  1  0.50021766  0.66758694  0.74490991  1
  Li  Li31  1  0.00061818  0.41635181  0.75849043  1
  Mg  Mg32  1  0.66371586  0.25097313  0.75260356  1
  Mg  Mg33  1  0.49808414  0.50148909  0.74583113  1
  Mg  Mg34  1  0.33535134  0.74614810  0.74757246  1
  Mg  Mg35  1  0.16692506  -0.00066154  0.75093415  1
  Mg  Mg36  1  0.66416021  0.74901043  0.74306385  1
  Mg  Mg37  1  0.33334635  0.75150107  0.25087263  1
  Mg  Mg38  1  -0.00005625  0.25329628  0.75327952  1
  Mg  Mg39  1  0.66722428  0.75175419  0.24917807  1
  Mg  Mg40  1  -0.00157810  0.74836635  0.75109117  1
  Mg  Mg41  1  0.83353969  0.49908492  0.75148230  1
  Mg  Mg42  1  0.83500921  0.49788341  0.24639296  1
  Mg  Mg43  1  0.16748616  0.50029338  0.24763918  1
  Mg  Mg44  1  0.33175824  0.25132839  0.75153100  1
  Mg  Mg45  1  0.83412302  -0.00001377  0.75272479  1
  Mg  Mg46  1  0.16555833  0.00193439  0.25361651  1
  Mg  Mg47  1  0.82918912  0.00082874  0.25549876  1
  Mg  Mg48  1  -0.00184057  0.75010649  0.25094470  1
  Mg  Mg49  1  0.33535862  0.24788008  0.24992958  1
  Mg  Mg50  1  0.66775454  0.24888085  0.25041120  1
  Mg  Mg51  1  0.49944981  -0.00239067  0.75021154  1
  Mg  Mg52  1  0.50168687  0.50237022  0.24773140  1
  Mg  Mg53  1  0.33456782  0.41651317  0.24766409  1
  Mg  Mg54  1  0.66684049  0.41708245  0.75159311  1
  Mg  Mg55  1  0.50337679  0.83765697  0.25384217  1
  Mg  Mg56  1  0.66397835  0.58642697  0.74704619  1
  Mg  Mg57  1  0.83513247  0.16617885  0.25393314  1
  Mg  Mg58  1  0.16544906  0.16694067  0.25333803  1
  Mg  Mg59  1  0.50097280  0.16583081  0.75102468  1
  Mg  Mg60  1  0.33410507  0.08367522  0.75178544  1
  Mg  Mg61  1  0.50292118  0.66833320  0.24993812  1
  Mg  Mg62  1  0.83539016  0.83352150  0.74942042  1
  Mg  Mg63  1  0.33103524  0.41672637  0.74931030  1
  Mg  Mg64  1  0.16763687  0.83228628  0.75034496  1
  Mg  Mg65  1  0.83492148  0.33021570  0.24753774  1
  Mg  Mg66  1  0.66806527  0.41535857  0.24667334  1
  Mg  Mg67  1  0.33458138  0.58323404  0.74571029  1
  Mg  Mg68  1  0.16434536  0.83508597  0.25288150  1
  Mg  Mg69  1  0.33435356  0.91317808  0.74731902  1
  Mg  Mg70  1  0.83068497  0.83602407  0.25264864  1
  Mg  Mg71  1  0.83511847  0.33624645  0.75319610  1
  Mg  Mg72  1  0.83245728  0.66508746  0.24911028  1
  Mg  Mg73  1  0.49920179  0.16222990  0.25083117  1
  Mg  Mg74  1  -0.00062760  0.58019028  0.74982570  1
  Mg  Mg75  1  0.16738300  0.16522569  0.75206709  1
  Mg  Mg76  1  0.16362705  0.66671169  0.24813749  1
  Mg  Mg77  1  0.00121764  0.41273512  0.24781787  1
  Mg  Mg78  1  0.83336897  0.66506313  0.74951458  1
  Mg  Mg79  1  0.00236133  0.91458287  0.75255795  1
  Mg  Mg80  1  0.00092750  0.08726716  0.25497776  1
  Mg  Mg81  1  0.16537693  0.33484396  0.75178345  1
  Mg  Mg82  1  0.16587030  0.66311276  0.74951822  1
  Mg  Mg83  1  0.33549342  0.08321577  0.24822101  1
  Mg  Mg84  1  0.66828082  0.58642495  0.24864973  1
  Mg  Mg85  1  0.16725559  0.33222783  0.24995745  1
  Mg  Mg86  1  0.33592580  0.91862786  0.25220690  1
  Mg  Mg87  1  0.66630581  0.08533398  0.75274200  1
  Mg  Mg88  1  0.50047384  0.33442452  0.24651812  1
  Mg  Mg89  1  0.83529675  0.16690003  0.75433299  1
  Mg  Mg90  1  0.33376994  0.58546485  0.24905267  1
  Mg  Mg91  1  0.00309673  0.08416792  0.75289505  1
  Mg  Mg92  1  0.66511045  0.08046631  0.25300651  1
  Mg  Mg93  1  -0.00119705  0.58393260  0.24629920  1
  Mg  Mg94  1  -0.00180588  0.91654008  0.25495209  1
  Mg  Mg95  1  0.66638913  0.91586731  0.74825299  1
  Fe  Fe96  1  0.69085893  0.66714160  0.60688030  1
  Fe  Fe97  1  0.98043934  0.66385772  0.88916277  1
  Fe  Fe98  1  0.64350458  0.66622968  0.38992647  1
  Fe  Fe99  1  0.68878060  0.33137692  0.10833350  1
  Fe  Fe100  1  0.80497298  0.42056049  0.89237653  1
  Fe  Fe101  1  0.47017692  0.08148562  0.39034543  1
  Fe  Fe102  1  0.97623682  0.33125857  0.89349523  1
  Fe  Fe103  1  0.02515598  0.66786888  0.10959693  1
  Fe  Fe104  1  0.31237502  0.33452033  0.89081631  1
  Fe  Fe105  1  0.14793812  0.08189100  0.89021680  1
  Fe  Fe106  1  0.97270799  0.82968344  0.39251953  1
  Fe  Fe107  1  0.98220246  0.83625918  0.89132940  1
  Fe  Fe108  1  0.69504657  0.66819025  0.10754808  1
  Fe  Fe109  1  0.80541915  0.08745971  0.39327300  1
  Fe  Fe110  1  0.63717235  0.16779751  0.89255253  1
  Fe  Fe111  1  0.14143739  0.08541562  0.39353322  1
  Fe  Fe112  1  0.35931011  0.16714896  0.10799139  1
  Si  Si113  1  0.14521612  0.41558697  0.38500631  1
  Si  Si114  1  0.14504015  0.57917304  0.88683602  1
  Si  Si115  1  0.52025970  0.57961688  0.60829904  1
  Si  Si116  1  0.47653917  0.58634638  0.87937443  1
  Si  Si117  1  0.31185689  0.16766438  0.88679409  1
  Si  Si118  1  0.19215695  0.08167289  0.61367048  1
  Si  Si119  1  0.19086478  0.91524858  0.61202729  1
  Si  Si120  1  0.02692593  0.16813963  0.61467856  1
  Si  Si121  1  0.30930520  0.66210523  0.88290201  1
  Si  Si122  1  0.52334549  0.41467727  0.61225667  1
  Si  Si123  1  0.19710454  0.58652842  0.11266113  1
  Si  Si124  1  0.52212281  0.58503998  0.11126233  1
  Si  Si125  1  0.31244059  0.33579100  0.38425597  1
  Si  Si126  1  0.63512080  0.17313157  0.39072297  1
  Si  Si127  1  0.80621826  0.91600335  0.39166717  1
  Si  Si128  1  0.97620680  0.15937067  0.89000401  1
  Si  Si129  1  0.63706046  0.67125696  0.88025230  1
  Si  Si130  1  0.97263433  0.17005742  0.39235914  1
  Si  Si131  1  0.69161798  0.83860794  0.11356742  1
  Si  Si132  1  0.52352951  0.92086875  0.61270761  1
  Si  Si133  1  0.35722016  0.33763605  0.11180518  1
  Si  Si134  1  0.86039002  0.92055095  0.61411005  1
  Si  Si135  1  0.36112855  0.66908208  0.11528547  1
  Si  Si136  1  0.15376937  0.91724029  0.88849680  1
  Si  Si137  1  0.46800408  0.07727352  0.88714561  1
  Si  Si138  1  0.69259710  0.16610868  0.61556145  1
  Si  Si139  1  0.18909848  0.08090002  0.11411885  1
  Si  Si140  1  0.18874993  0.91512966  0.11769675  1
  Si  Si141  1  0.47363943  0.90978755  0.39023256  1
  Si  Si142  1  0.86110688  0.08604717  0.61606804  1
  Si  Si143  1  0.86251183  0.57532217  0.11016014  1
  Si  Si144  1  0.01942444  0.83741513  0.11507732  1
  Si  Si145  1  0.14209734  0.41323189  0.89041134  1
  Si  Si146  1  0.19248759  0.58499222  0.61057987  1
  Si  Si147  1  0.64157770  0.83523791  0.88157554  1
  Si  Si148  1  0.85706383  0.92497567  0.11750438  1
  Si  Si149  1  0.35654700  0.83473214  0.11629182  1
  Si  Si150  1  0.02709951  0.16866028  0.11715255  1
  Si  Si151  1  0.14062642  0.57859163  0.38436954  1
  Si  Si152  1  0.85847219  0.41311657  0.61408256  1
  Si  Si153  1  0.52170318  0.42202617  0.11119180  1
  Si  Si154  1  0.35542861  0.66642930  0.60881754  1
  Si  Si155  1  0.69047287  0.33263360  0.61324456  1
  Si  Si156  1  0.19096056  0.41634024  0.61088411  1
  Si  Si157  1  0.63763627  0.33954993  0.88911231  1
  Si  Si158  1  0.97934201  0.33386484  0.38444322  1
  Si  Si159  1  0.31013255  0.82637861  0.88350002  1
  Si  Si160  1  0.81163140  0.57631743  0.38673332  1
  Si  Si161  1  0.86114488  0.08934068  0.11776426  1
  Si  Si162  1  0.86143148  0.57895274  0.61092664  1
  Si  Si163  1  0.97636824  0.65904025  0.38772317  1
  Si  Si164  1  0.35587769  0.83271545  0.61039291  1
  Si  Si165  1  0.47669397  0.42007122  0.38395468  1
  Si  Si166  1  0.02687704  0.66550429  0.61283645  1
  Si  Si167  1  0.02671235  0.33225547  0.61386191  1
  Si  Si168  1  0.86381013  0.40971521  0.11246454  1
  Si  Si169  1  0.46938234  0.58498013  0.38588029  1
  Si  Si170  1  0.81381238  0.41353430  0.38431402  1
  Si  Si171  1  0.03348360  0.33464054  0.11520424  1
  Si  Si172  1  0.52308369  0.91635006  0.11893356  1
  Si  Si173  1  0.47204996  0.42591683  0.88384095  1
  Si  Si174  1  0.80693717  0.91503531  0.88701751  1
  Si  Si175  1  0.47170153  0.91338484  0.88288509  1
  Si  Si176  1  0.80448366  0.59135458  0.88760536  1
  Si  Si177  1  0.35388208  0.33244062  0.61170096  1
  Si  Si178  1  0.68998971  0.16199828  0.11540288  1
  Si  Si179  1  0.64296709  0.33861129  0.38493011  1
  Si  Si180  1  0.19439997  0.42108937  0.11410711  1
  Si  Si181  1  0.14699149  0.91536947  0.39211494  1
  Si  Si182  1  0.02457677  0.83240954  0.61382807  1
  Si  Si183  1  0.30251069  0.66286879  0.38434127  1
  Si  Si184  1  0.53003713  0.08068746  0.11436487  1
  Si  Si185  1  0.35650334  0.16659710  0.61350491  1
  Si  Si186  1  0.30430710  0.17221951  0.38997891  1
  Si  Si187  1  0.80703699  0.08105369  0.88835636  1
  Si  Si188  1  0.69155560  0.84116462  0.60961120  1
  Si  Si189  1  0.64204468  0.83372726  0.38715683  1
  Si  Si190  1  0.52375860  0.08487577  0.61415766  1
  Si  Si191  1  0.30822857  0.82755305  0.38722985  1
  O  O192  1  0.26385662  0.10888186  0.07735201  1
  O  O193  1  0.26944547  0.12118618  0.58324583  1
  O  O194  1  0.28540144  0.61194306  0.08730635  1
  O  O195  1  0.26575533  0.62541687  0.57544987  1
  O  O196  1  0.61964600  0.09923498  0.08801093  1
  O  O197  1  0.60329291  0.12359268  0.58596097  1
  O  O198  1  0.59884373  0.61005956  0.07558381  1
  O  O199  1  0.59072220  0.61652332  0.57157539  1
  O  O200  1  0.93869774  0.12615595  0.08629936  1
  O  O201  1  0.93546444  0.12928400  0.58575707  1
  O  O202  1  0.94866377  0.59384122  0.08239527  1
  O  O203  1  0.94232468  0.61854885  0.58327020  1
  O  O204  1  0.11497568  0.36797036  0.08530083  1
  O  O205  1  0.09921654  0.37688770  0.58031256  1
  O  O206  1  0.10448168  0.86764015  0.08773005  1
  O  O207  1  0.10191163  0.87222118  0.58333576  1
  O  O208  1  0.44064948  0.36907746  0.08480078  1
  O  O209  1  0.43519982  0.36868151  0.58346930  1
  O  O210  1  0.43644259  0.86868226  0.08622448  1
  O  O211  1  0.43499994  0.87549361  0.58482984  1
  O  O212  1  0.79140187  0.35389737  0.08071262  1
  O  O213  1  0.76711484  0.37247853  0.58175523  1
  O  O214  1  0.76949143  0.88261826  0.08580982  1
  O  O215  1  0.76803581  0.88681442  0.58233680  1
  O  O216  1  0.27982093  0.39603018  0.08733989  1
  O  O217  1  0.26693514  0.37691196  0.57682679  1
  O  O218  1  0.26952845  0.88035080  0.08778912  1
  O  O219  1  0.26655623  0.87576612  0.57936481  1
  O  O220  1  0.60155812  0.39915168  0.07804413  1
  O  O221  1  0.60037949  0.37326914  0.58146240  1
  O  O222  1  0.60311932  0.88452093  0.08690328  1
  O  O223  1  0.60184716  0.88536293  0.58162718  1
  O  O224  1  0.95244467  0.38611047  0.08686421  1
  O  O225  1  0.93387641  0.36902010  0.58418169  1
  O  O226  1  0.93991064  0.89325908  0.08950035  1
  O  O227  1  0.93612804  0.87609311  0.58572170  1
  O  O228  1  0.10205699  0.12745571  0.08602159  1
  O  O229  1  0.10292837  0.12439230  0.58588729  1
  O  O230  1  0.12668294  0.64317159  0.08056553  1
  O  O231  1  0.10347678  0.62770295  0.57998350  1
  O  O232  1  0.45496084  0.13181381  0.07615936  1
  O  O233  1  0.43687225  0.13042803  0.58463143  1
  O  O234  1  0.44349581  0.64215594  0.08542664  1
  O  O235  1  0.42884026  0.62156823  0.57923346  1
  O  O236  1  0.77694742  0.13635318  0.08835300  1
  O  O237  1  0.77014450  0.12547059  0.58630298  1
  O  O238  1  0.78624055  0.62691994  0.07522423  1
  O  O239  1  0.77776764  0.61898317  0.57253498  1
  O  O240  1  0.04640425  0.11569951  0.42836863  1
  O  O241  1  0.04422899  0.09667592  0.91810127  1
  O  O242  1  0.05623135  0.60207710  0.41319274  1
  O  O243  1  0.06854400  0.59914162  0.92537603  1
  O  O244  1  0.37671089  0.11748629  0.42544253  1
  O  O245  1  0.37811133  0.09945700  0.90956029  1
  O  O246  1  0.38005318  0.60742403  0.41172552  1
  O  O247  1  0.39366180  0.61384491  0.91128746  1
  O  O248  1  0.71263439  0.12392143  0.42766853  1
  O  O249  1  0.72895485  0.10561196  0.92308971  1
  O  O250  1  0.73204035  0.60055731  0.41960529  1
  O  O251  1  0.71564460  0.61941188  0.91231654  1
  O  O252  1  0.23043784  0.36800812  0.41417264  1
  O  O253  1  0.21747781  0.35987796  0.92717842  1
  O  O254  1  0.22651698  0.85712539  0.41663774  1
  O  O255  1  0.22748728  0.85415120  0.91280823  1
  O  O256  1  0.56353680  0.37596045  0.41464335  1
  O  O257  1  0.54547014  0.36514911  0.90763015  1
  O  O258  1  0.55570557  0.85729402  0.41641985  1
  O  O259  1  0.55736588  0.86568131  0.90936818  1
  O  O260  1  0.89643424  0.36346323  0.41518816  1
  O  O261  1  0.88440247  0.35532356  0.93224702  1
  O  O262  1  0.87621038  0.85693886  0.42658633  1
  O  O263  1  0.88136758  0.86298909  0.92225356  1
  O  O264  1  0.06290911  0.38530351  0.41445591  1
  O  O265  1  0.06073880  0.39933805  0.92651696  1
  O  O266  1  0.06844642  0.88719546  0.42574738  1
  O  O267  1  0.07131707  0.90205556  0.92172677  1
  O  O268  1  0.39533651  0.38661415  0.41320714  1
  O  O269  1  0.39408968  0.40553272  0.92087082  1
  O  O270  1  0.39298885  0.87196128  0.42009003  1
  O  O271  1  0.39448676  0.87435839  0.91368440  1
  O  O272  1  0.73006343  0.38456449  0.41345508  1
  O  O273  1  0.70437300  0.39952533  0.92330009  1
  O  O274  1  0.71398084  0.89502609  0.41336044  1
  O  O275  1  0.71928224  0.88936234  0.91391613  1
  O  O276  1  0.21943761  0.15949722  0.42128660  1
  O  O277  1  0.22758931  0.15398003  0.91884179  1
  O  O278  1  0.21965631  0.63284892  0.41369547  1
  O  O279  1  0.23040060  0.63046015  0.91526195  1
  O  O280  1  0.55221125  0.15209679  0.42191232  1
  O  O281  1  0.54363106  0.12729031  0.92397073  1
  O  O282  1  0.54297421  0.63759572  0.42037108  1
  O  O283  1  0.55307894  0.64299312  0.90917144  1
  O  O284  1  0.88920273  0.15613141  0.42546379  1
  O  O285  1  0.88722606  0.13414989  0.91515361  1
  O  O286  1  0.89571741  0.62478978  0.41706436  1
  O  O287  1  0.87562080  0.65095893  0.91654787  1
  O  O288  1  0.16911780  -0.00349440  0.08862045  1
  O  O289  1  0.18194641  -0.00125625  0.58394763  1
  O  O290  1  0.17458551  0.50345349  0.08619488  1
  O  O291  1  0.18398993  0.50068090  0.58202874  1
  O  O292  1  0.50569586  -0.00255303  0.08740556  1
  O  O293  1  0.50935147  0.00351562  0.58187648  1
  O  O294  1  0.48876898  0.50386475  0.08656652  1
  O  O295  1  0.50680936  0.49516440  0.57779560  1
  O  O296  1  0.84615646  0.00734118  0.08711815  1
  O  O297  1  0.86074210  0.00384313  0.58606273  1
  O  O298  1  0.83744320  0.49146582  0.08640914  1
  O  O299  1  0.85781979  0.49462568  0.58155059  1
  O  O300  1  0.01919328  0.25166516  0.08719951  1
  O  O301  1  0.02377957  0.24945178  0.58181238  1
  O  O302  1  -0.00835220  0.76119068  0.08050964  1
  O  O303  1  0.01592922  0.74953896  0.58378190  1
  O  O304  1  0.33054928  0.26162907  0.07726768  1
  O  O305  1  0.34427428  0.24869573  0.58202129  1
  O  O306  1  0.33880353  0.75146344  0.08715080  1
  O  O307  1  0.35047507  0.75034097  0.57858162  1
  O  O308  1  0.65760494  0.23718827  0.07988002  1
  O  O309  1  0.68425104  0.24856140  0.58423205  1
  O  O310  1  0.67852980  0.76278819  0.07324751  1
  O  O311  1  0.68391562  0.76324172  0.57469883  1
  O  O312  1  0.18024496  -0.00721419  0.42336302  1
  O  O313  1  0.19817322  -0.00768094  0.91607044  1
  O  O314  1  0.16644456  0.49759044  0.41462777  1
  O  O315  1  0.17782839  0.49723325  0.90828290  1
  O  O316  1  0.49110483  -0.01292297  0.42640162  1
  O  O317  1  0.48639792  -0.00627951  0.91608989  1
  O  O318  1  0.48879248  0.50181566  0.41387326  1
  O  O319  1  0.50559828  0.50732733  0.91214623  1
  O  O320  1  0.83223826  -0.00594153  0.42640996  1
  O  O321  1  0.83065989  -0.00226975  0.91390345  1
  O  O322  1  0.83766370  0.49381648  0.41474076  1
  O  O323  1  0.82963844  0.51513346  0.92414584  1
  O  O324  1  0.33614558  0.25620120  0.41445866  1
  O  O325  1  0.35605364  0.24213006  0.91578310  1
  O  O326  1  0.32328684  0.74364310  0.41458170  1
  O  O327  1  0.32934084  0.74437871  0.91261291  1
  O  O328  1  0.65847577  0.25838806  0.41638367  1
  O  O329  1  0.65882872  0.26116107  0.92480698  1
  O  O330  1  0.67380537  0.75809015  0.42318668  1
  O  O331  1  0.65662949  0.75326265  0.91217025  1
  O  O332  1  1.00427106  0.25440229  0.41526173  1
  O  O333  1  1.00679965  0.23567720  0.92355432  1
  O  O334  1  1.00314077  0.73470935  0.42366238  1
  O  O335  1  1.02372472  0.75003586  0.92557882  1
  O  O336  1  0.20940716  0.08372459  0.19498926  1
  O  O337  1  0.21225001  0.08134013  0.69360019  1
  O  O338  1  0.21258611  0.58459643  0.19418601  1
  O  O339  1  0.21310203  0.58985448  0.68940456  1
  O  O340  1  0.54673904  0.08746265  0.19416499  1
  O  O341  1  0.54131337  0.08182232  0.69417682  1
  O  O342  1  0.54096505  0.58463481  0.19253992  1
  O  O343  1  0.54177307  0.57925368  0.68788967  1
  O  O344  1  0.88062309  0.08579236  0.19776331  1
  O  O345  1  0.87771025  0.08435988  0.69643492  1
  O  O346  1  0.87695446  0.58026456  0.19235436  1
  O  O347  1  0.87378168  0.58133152  0.69097756  1
  O  O348  1  0.05114598  0.33716014  0.19492656  1
  O  O349  1  0.04736576  0.32813917  0.69261838  1
  O  O350  1  0.04272976  0.83519848  0.19612560  1
  O  O351  1  0.04559684  0.83342201  0.69381429  1
  O  O352  1  0.37649274  0.33599718  0.19342254  1
  O  O353  1  0.36666798  0.33204384  0.69046854  1
  O  O354  1  0.37439082  0.83319747  0.19655210  1
  O  O355  1  0.36487935  0.83160384  0.68931974  1
  O  O356  1  0.71099323  0.33265238  0.20051218  1
  O  O357  1  0.70706861  0.33185724  0.69299240  1
  O  O358  1  0.71258870  0.83064737  0.19326960  1
  O  O359  1  0.71114140  0.83910829  0.69034674  1
  O  O360  1  0.21169436  0.41884748  0.19508520  1
  O  O361  1  0.21116987  0.41064425  0.68936595  1
  O  O362  1  0.20846391  0.91477154  0.19833881  1
  O  O363  1  0.20918073  0.91477640  0.69239431  1
  O  O364  1  0.54195567  0.41907284  0.19292374  1
  O  O365  1  0.54628929  0.42022670  0.69108507  1
  O  O366  1  0.53855329  0.91448396  0.19765819  1
  O  O367  1  0.54563117  0.92370179  0.69192055  1
  O  O368  1  0.87987996  0.41276649  0.19394268  1
  O  O369  1  0.86969634  0.41464643  0.69269000  1
  O  O370  1  0.87456570  0.92106794  0.19761058  1
  O  O371  1  0.87680891  0.91950432  0.69431258  1
  O  O372  1  0.04496712  0.16677391  0.19678326  1
  O  O373  1  0.04255900  0.16712991  0.69455045  1
  O  O374  1  0.04475038  0.66742132  0.20214321  1
  O  O375  1  0.04613536  0.66742929  0.69249094  1
  O  O376  1  0.37744669  0.16870814  0.19969169  1
  O  O377  1  0.37466625  0.16459794  0.69350353  1
  O  O378  1  0.37705660  0.66844610  0.19603984  1
  O  O379  1  0.36907999  0.66702362  0.68799713  1
  O  O380  1  0.70891692  0.16673998  0.19617377  1
  O  O381  1  0.71201537  0.16520323  0.69543131  1
  O  O382  1  0.71334580  0.66635145  0.19914204  1
  O  O383  1  0.71345472  0.66592178  0.69766473  1
  O  O384  1  0.12225891  0.08403632  0.30170667  1
  O  O385  1  0.12361620  0.08149366  0.79765869  1
  O  O386  1  0.12577045  0.57994407  0.30421852  1
  O  O387  1  0.12016603  0.59115924  0.80748437  1
  O  O388  1  0.45269965  0.08248673  0.30028137  1
  O  O389  1  0.45647336  0.07894652  0.80563500  1
  O  O390  1  0.45464910  0.58412729  0.30470712  1
  O  O391  1  0.45533921  0.58360376  0.79980809  1
  O  O392  1  0.78765128  0.08583649  0.30182748  1
  O  O393  1  0.78944509  0.08246630  0.80666212  1
  O  O394  1  0.79424519  0.57857560  0.30580284  1
  O  O395  1  0.78778496  0.58504023  0.80618624  1
  O  O396  1  0.29242915  0.33699130  0.30386985  1
  O  O397  1  0.28781910  0.33364962  0.79868310  1
  O  O398  1  0.28989021  0.83096557  0.30671226  1
  O  O399  1  0.29141533  0.83045983  0.80296784  1
  O  O400  1  0.62187428  0.33816181  0.30478838  1
  O  O401  1  0.63313707  0.33406670  0.80889071  1
  O  O402  1  0.62176031  0.82850104  0.30707262  1
  O  O403  1  0.63227087  0.83391623  0.80239730  1
  O  O404  1  0.95805355  0.33735048  0.30505714  1
  O  O405  1  0.95233106  0.32945269  0.80203794  1
  O  O406  1  0.95501081  0.83185696  0.30070771  1
  O  O407  1  0.95635925  0.83388516  0.79833950  1
  O  O408  1  0.12703706  0.41702822  0.30487976  1
  O  O409  1  0.12098490  0.40456025  0.81093377  1
  O  O410  1  0.12535005  0.91549309  0.31029070  1
  O  O411  1  0.12917163  0.91470169  0.80611732  1
  O  O412  1  0.45806605  0.41889293  0.30344706  1
  O  O413  1  0.45028503  0.42751166  0.80375677  1
  O  O414  1  0.45122375  0.91012889  0.31021551  1
  O  O415  1  0.45105264  0.91917559  0.80351626  1
  O  O416  1  0.79387937  0.41544230  0.30413877  1
  O  O417  1  0.78727454  0.41776692  0.79972397  1
  O  O418  1  0.79716449  0.91634402  0.31128269  1
  O  O419  1  0.79053847  0.91649467  0.80551132  1
  O  O420  1  0.28896787  0.16967052  0.30858626  1
  O  O421  1  0.29013166  0.16482425  0.80470726  1
  O  O422  1  0.28688960  0.66536302  0.30381808  1
  O  O423  1  0.28853711  0.66444204  0.80260398  1
  O  O424  1  0.62186397  0.17111875  0.30938820  1
  O  O425  1  0.62111556  0.16573565  0.80047558  1
  O  O426  1  0.62095051  0.66568389  0.29858620  1
  O  O427  1  0.62259902  0.67063823  0.80075156  1
  O  O428  1  0.95581184  0.16477719  0.31186955  1
  O  O429  1  0.95730913  0.16321967  0.80772739  1
  O  O430  1  0.95625327  0.66206299  0.30687158  1
  O  O431  1  0.95467505  0.66565796  0.79632691  1
  F  F432  1  0.04405167  -0.00231841  0.20488704  1
  F  F433  1  0.04443863  -0.00341608  0.70022790  1
  F  F434  1  0.04785824  0.49866529  0.20165951  1
  F  F435  1  0.03216701  0.50442881  0.69303828  1
  F  F436  1  0.36574258  -0.00309033  0.19710229  1
  F  F437  1  0.37777290  -0.00028197  0.69883727  1
  F  F438  1  0.37875508  0.50191601  0.20192352  1
  F  F439  1  0.37655115  0.50009766  0.69327791  1
  F  F440  1  0.71306190  0.00054615  0.20284189  1
  F  F441  1  0.71325564  0.00216382  0.70278486  1
  F  F442  1  0.71276413  0.49995703  0.20180512  1
  F  F443  1  0.71054219  0.50169324  0.69973438  1
  F  F444  1  0.21377368  0.25063399  0.20265585  1
  F  F445  1  0.21023469  0.24461891  0.69952587  1
  F  F446  1  0.21191731  0.75134010  0.20326983  1
  F  F447  1  0.21052318  0.74977671  0.70045286  1
  F  F448  1  0.54544923  0.25091025  0.20377112  1
  F  F449  1  0.54781766  0.24105278  0.69516025  1
  F  F450  1  0.54116999  0.75274147  0.20035727  1
  F  F451  1  0.55301639  0.74510532  0.68518646  1
  F  F452  1  0.87800359  0.24713237  0.20421024  1
  F  F453  1  0.87736529  0.24605920  0.70090497  1
  F  F454  1  0.87768645  0.74807857  0.20218365  1
  F  F455  1  0.87760458  0.75189326  0.69613579  1
  F  F456  1  0.28710492  -0.00022562  0.29929719  1
  F  F457  1  0.28906983  -0.00346344  0.79377551  1
  F  F458  1  0.28929532  0.50066819  0.29740795  1
  F  F459  1  0.29625150  0.50308036  0.79481362  1
  F  F460  1  0.62259829  0.00431549  0.30420659  1
  F  F461  1  0.62132239  -0.00090416  0.79774234  1
  F  F462  1  0.62180094  0.49989100  0.29589279  1
  F  F463  1  0.61894305  0.50272944  0.79458568  1
  F  F464  1  0.95516241  0.00122867  0.30095210  1
  F  F465  1  0.95530606  -0.00078639  0.79695294  1
  F  F466  1  0.95723272  0.49840971  0.29536016  1
  F  F467  1  0.95088054  0.50384765  0.79953837  1
  F  F468  1  0.12800588  0.25345157  0.30067051  1
  F  F469  1  0.12160695  0.24680493  0.79707731  1
  F  F470  1  0.12379871  0.75013677  0.30080961  1
  F  F471  1  0.12279526  0.75008049  0.79587414  1
  F  F472  1  0.45530236  0.25669561  0.29906458  1
  F  F473  1  0.44895624  0.23872389  0.79880132  1
  F  F474  1  0.45264510  0.74878272  0.29848043  1
  F  F475  1  0.44650371  0.74225221  0.80024653  1
  F  F476  1  0.78867091  0.25118756  0.30128720  1
  F  F477  1  0.78659686  0.24883274  0.79693684  1
  F  F478  1  0.78994246  0.74913389  0.29943557  1
  F  F479  1  0.78721636  0.75315001  0.79359170  1
