# generated using pymatgen
data_K24Na3Li5Mg64Fe17Si79(O5F)48
_symmetry_space_group_name_H-M   'P 1'
_cell_length_a   16.11406998
_cell_length_b   18.60698999
_cell_length_c   20.56913121
_cell_angle_alpha   90.00177346
_cell_angle_beta   99.98646849
_cell_angle_gamma   89.99910764
_symmetry_Int_Tables_number   1
_chemical_formula_structural   K24Na3Li5Mg64Fe17Si79(O5F)48
_chemical_formula_sum   'K24 Na3 Li5 Mg64 Fe17 Si79 O240 F48'
_cell_volume   6073.88897920
_cell_formula_units_Z   1
loop_
 _symmetry_equiv_pos_site_id
 _symmetry_equiv_pos_as_xyz
  1  'x, y, z'
loop_
 _atom_site_type_symbol
 _atom_site_label
 _atom_site_symmetry_multiplicity
 _atom_site_fract_x
 _atom_site_fract_y
 _atom_site_fract_z
 _atom_site_occupancy
  K  K0  1  -0.00283562  -0.00225139  -0.00385047  1
  K  K1  1  -0.00299113  -0.00112902  0.50370026  1
  K  K2  1  -0.00945618  0.49813111  0.00643285  1
  K  K3  1  0.00020000  0.49998964  0.49421206  1
  K  K4  1  0.33430054  -0.00511054  -0.00133768  1
  K  K5  1  0.35882642  -0.00335150  0.50878652  1
  K  K6  1  0.34935603  0.50381069  0.00572969  1
  K  K7  1  0.34430328  0.50113846  0.49618904  1
  K  K8  1  0.66283064  0.00155960  -0.00589302  1
  K  K9  1  0.64853777  0.00394777  0.50061923  1
  K  K10  1  0.66338769  0.49080674  0.00796089  1
  K  K11  1  0.65524696  0.50555269  0.49101207  1
  K  K12  1  0.16671492  0.25418598  -0.00046271  1
  K  K13  1  0.17269586  0.25767196  0.50080637  1
  K  K14  1  0.18033648  0.73818947  -0.00376495  1
  K  K15  1  0.17168711  0.74359027  0.50031102  1
  K  K16  1  0.50469407  0.25527307  -0.00357278  1
  K  K17  1  0.50897285  0.24553800  0.50452988  1
  K  K18  1  0.50222069  0.73912918  -0.00271437  1
  K  K19  1  0.50655567  0.74462752  0.50469635  1
  K  K20  1  0.82096098  0.26228163  -0.00030300  1
  K  K21  1  0.82349733  0.26568190  0.49999165  1
  K  K22  1  0.80973179  0.75426670  -0.00844767  1
  K  K23  1  0.82532659  0.73833305  0.49791288  1
  Na  Na24  1  0.66216298  0.74884685  0.74607988  1
  Na  Na25  1  0.82953894  0.32961247  0.75147070  1
  Na  Na26  1  0.33396280  0.42590161  0.25302209  1
  Li  Li27  1  0.67083473  0.25090179  0.75652655  1
  Li  Li28  1  0.82870619  0.49320369  0.25033390  1
  Li  Li29  1  0.34118601  0.58018144  0.24693624  1
  Li  Li30  1  0.50219022  0.66679916  0.74058039  1
  Li  Li31  1  0.82848534  0.34053181  0.24653939  1
  Mg  Mg32  1  0.16922550  0.49898887  0.75021175  1
  Mg  Mg33  1  0.33283569  0.24927600  0.75268308  1
  Mg  Mg34  1  -0.00331025  0.25393234  0.24875049  1
  Mg  Mg35  1  0.50012505  0.50170516  0.74718175  1
  Mg  Mg36  1  0.16730698  0.50202073  0.24952617  1
  Mg  Mg37  1  0.49937269  0.50050968  0.24734056  1
  Mg  Mg38  1  0.16562962  -0.00097281  0.75237661  1
  Mg  Mg39  1  0.33251913  0.25228809  0.25228831  1
  Mg  Mg40  1  0.16791448  0.00017482  0.25112598  1
  Mg  Mg41  1  0.67054003  0.25194176  0.25137755  1
  Mg  Mg42  1  0.00154757  0.74966190  0.75023662  1
  Mg  Mg43  1  0.83298970  0.50081611  0.74891132  1
  Mg  Mg44  1  0.83103537  -0.00057783  0.75430604  1
  Mg  Mg45  1  0.49915426  0.00251593  0.25057359  1
  Mg  Mg46  1  0.83404893  0.00119494  0.24875840  1
  Mg  Mg47  1  0.50214620  -0.00086732  0.74914885  1
  Mg  Mg48  1  -0.00034909  0.74900903  0.24679081  1
  Mg  Mg49  1  0.33558605  0.74481397  0.25152285  1
  Mg  Mg50  1  0.33660023  0.75005250  0.74765359  1
  Mg  Mg51  1  0.66595455  0.74664269  0.24874234  1
  Mg  Mg52  1  -0.00237739  0.25064552  0.75254174  1
  Mg  Mg53  1  0.00065363  0.91600797  0.24896018  1
  Mg  Mg54  1  -0.00446473  0.58226941  0.24620446  1
  Mg  Mg55  1  0.17085929  0.66469749  0.74859807  1
  Mg  Mg56  1  0.33530780  0.58471546  0.74608631  1
  Mg  Mg57  1  -0.00238114  0.08462090  0.75331340  1
  Mg  Mg58  1  0.16855540  0.83395377  0.75018450  1
  Mg  Mg59  1  0.50043297  0.16482941  0.25112300  1
  Mg  Mg60  1  0.16748762  0.33343806  0.75308177  1
  Mg  Mg61  1  0.83342322  0.16897026  0.24799729  1
  Mg  Mg62  1  0.83056178  0.66228933  0.24671101  1
  Mg  Mg63  1  -0.00076148  0.91564083  0.75367875  1
  Mg  Mg64  1  0.50061169  0.66048017  0.24934457  1
  Mg  Mg65  1  0.16470759  0.33595452  0.24955443  1
  Mg  Mg66  1  0.16710491  0.16754235  0.25214243  1
  Mg  Mg67  1  0.50363955  0.33194811  0.75143101  1
  Mg  Mg68  1  0.66416483  0.91648352  0.24766468  1
  Mg  Mg69  1  0.66953178  0.41626433  0.24628214  1
  Mg  Mg70  1  -0.00561369  0.41782659  0.25249375  1
  Mg  Mg71  1  0.66847276  0.58306372  0.24884521  1
  Mg  Mg72  1  0.66604266  0.08767105  0.75128163  1
  Mg  Mg73  1  0.83243438  0.83308667  0.75257387  1
  Mg  Mg74  1  0.83382755  0.66658752  0.74873803  1
  Mg  Mg75  1  0.66342998  0.58456901  0.74567539  1
  Mg  Mg76  1  0.16830433  0.83240807  0.25034422  1
  Mg  Mg77  1  0.49833577  0.83013615  0.74792763  1
  Mg  Mg78  1  0.66606567  0.41485565  0.74881001  1
  Mg  Mg79  1  0.83100322  0.83403138  0.24649653  1
  Mg  Mg80  1  0.00290977  0.58370424  0.74787032  1
  Mg  Mg81  1  0.16696870  0.16560255  0.75430702  1
  Mg  Mg82  1  0.66474550  0.08504626  0.24862724  1
  Mg  Mg83  1  0.66718010  0.91495194  0.74950317  1
  Mg  Mg84  1  -0.00107855  0.41625548  0.75187686  1
  Mg  Mg85  1  0.33503625  0.91498863  0.25240895  1
  Mg  Mg86  1  0.17008920  0.66322759  0.24788393  1
  Mg  Mg87  1  0.50406330  0.16661173  0.75059209  1
  Mg  Mg88  1  0.00078180  0.08509616  0.25006331  1
  Mg  Mg89  1  0.33446731  0.91400084  0.75098803  1
  Mg  Mg90  1  0.33485949  0.08557349  0.25223055  1
  Mg  Mg91  1  0.82993522  0.16750504  0.75408068  1
  Mg  Mg92  1  0.50035471  0.33386671  0.25133239  1
  Mg  Mg93  1  0.33502237  0.08318984  0.75222263  1
  Mg  Mg94  1  0.33432426  0.41347981  0.75285822  1
  Mg  Mg95  1  0.49988741  0.83271285  0.25096382  1
  Fe  Fe96  1  0.35834771  0.66352876  0.11041154  1
  Fe  Fe97  1  0.30689898  0.83450175  0.89096902  1
  Fe  Fe98  1  0.47313736  0.08569137  0.39179509  1
  Fe  Fe99  1  0.19211055  0.57881218  0.60882098  1
  Fe  Fe100  1  0.52890157  0.08572374  0.61054419  1
  Fe  Fe101  1  0.85476688  0.42028482  0.11108979  1
  Fe  Fe102  1  0.80720671  0.91384471  0.89189834  1
  Fe  Fe103  1  0.53024442  0.57716613  0.10500964  1
  Fe  Fe104  1  0.46944331  0.57947654  0.39136735  1
  Fe  Fe105  1  0.52099487  0.08649500  0.10882161  1
  Fe  Fe106  1  0.35376689  0.83380244  0.60795840  1
  Fe  Fe107  1  0.69597875  0.67095615  0.10586394  1
  Fe  Fe108  1  0.52680189  0.58301286  0.60655099  1
  Fe  Fe109  1  0.64315288  0.66808911  0.39134123  1
  Fe  Fe110  1  0.31011781  0.32919964  0.89290469  1
  Fe  Fe111  1  0.64303777  0.17056559  0.89096080  1
  Fe  Fe112  1  0.81422988  0.41587490  0.38838773  1
  Si  Si113  1  0.35533816  0.66537393  0.60853142  1
  Si  Si114  1  0.03268279  0.66903187  0.11223563  1
  Si  Si115  1  0.98378210  0.32889487  0.38929248  1
  Si  Si116  1  0.13429370  0.91828224  0.88961459  1
  Si  Si117  1  0.52118650  0.40985084  0.61129595  1
  Si  Si118  1  0.13807441  0.08100370  0.38602500  1
  Si  Si119  1  0.13760079  0.41557524  0.88893304  1
  Si  Si120  1  0.29743127  0.66638604  0.38678652  1
  Si  Si121  1  0.47804089  0.40752891  0.38755754  1
  Si  Si122  1  0.97726120  0.16555646  0.38521814  1
  Si  Si123  1  0.18553908  0.41034601  0.61317849  1
  Si  Si124  1  0.02919259  0.16630202  0.11578624  1
  Si  Si125  1  0.35285279  0.16539278  0.61498496  1
  Si  Si126  1  0.63959966  0.66483180  0.88152879  1
  Si  Si127  1  0.30654715  0.83067567  0.38613539  1
  Si  Si128  1  0.63362615  0.83295630  0.88603671  1
  Si  Si129  1  0.86686313  0.58396957  0.61305018  1
  Si  Si130  1  0.97414716  0.82797946  0.88749552  1
  Si  Si131  1  0.70137225  0.17023013  0.61358005  1
  Si  Si132  1  0.69201524  0.33580244  0.61586815  1
  Si  Si133  1  0.81239944  0.08544012  0.38414268  1
  Si  Si134  1  0.80918873  0.58815621  0.88449849  1
  Si  Si135  1  0.02084565  0.32981876  0.61684248  1
  Si  Si136  1  0.97117061  0.67102934  0.38209358  1
  Si  Si137  1  0.81080518  0.92107772  0.38346371  1
  Si  Si138  1  0.68821928  0.84171446  0.11134401  1
  Si  Si139  1  0.85992878  0.91847993  0.61566316  1
  Si  Si140  1  0.18609883  0.92235170  0.61246633  1
  Si  Si141  1  0.18659965  0.41683211  0.11555183  1
  Si  Si142  1  0.64487737  0.34066125  0.88770514  1
  Si  Si143  1  0.14197172  0.58027954  0.88481426  1
  Si  Si144  1  0.13208683  0.58520436  0.38216344  1
  Si  Si145  1  0.13585986  0.08476118  0.88798258  1
  Si  Si146  1  0.69983715  0.83252571  0.61385801  1
  Si  Si147  1  0.35117493  0.33280583  0.11793939  1
  Si  Si148  1  0.02850345  0.67133573  0.61242776  1
  Si  Si149  1  0.51923254  0.40541150  0.11184064  1
  Si  Si150  1  0.18621014  0.08603651  0.61723326  1
  Si  Si151  1  0.64825048  0.16707926  0.38750378  1
  Si  Si152  1  0.97873361  0.66475835  0.88383570  1
  Si  Si153  1  0.86579318  0.59275503  0.10778568  1
  Si  Si154  1  0.81425438  0.08360631  0.89198592  1
  Si  Si155  1  0.97504352  0.83559220  0.38367033  1
  Si  Si156  1  0.30353143  0.33343813  0.38558701  1
  Si  Si157  1  0.47547473  0.58294538  0.88125545  1
  Si  Si158  1  0.80697541  0.42485868  0.88429467  1
  Si  Si159  1  0.64733658  0.83811939  0.38607370  1
  Si  Si160  1  0.97178981  0.33803305  0.88614312  1
  Si  Si161  1  0.18990327  0.57937161  0.11125642  1
  Si  Si162  1  0.86111994  0.08289623  0.61760043  1
  Si  Si163  1  0.19323375  0.08372356  0.11669255  1
  Si  Si164  1  0.02773834  0.83462464  0.11370805  1
  Si  Si165  1  0.64378461  0.33205065  0.38736378  1
  Si  Si166  1  0.97392358  0.17286207  0.88828951  1
  Si  Si167  1  0.85964068  0.42044016  0.61539549  1
  Si  Si168  1  0.47499829  0.91257935  0.38739856  1
  Si  Si169  1  0.02386305  0.83643888  0.61577713  1
  Si  Si170  1  0.70244313  0.66425559  0.61111909  1
  Si  Si171  1  0.69754998  0.16155539  0.11241054  1
  Si  Si172  1  0.47523994  0.91872058  0.88642473  1
  Si  Si173  1  0.47803820  0.41944075  0.88718729  1
  Si  Si174  1  0.14245889  0.91658805  0.38550823  1
  Si  Si175  1  0.19343819  0.91922582  0.11644962  1
  Si  Si176  1  0.51873867  0.91728141  0.11454404  1
  Si  Si177  1  0.81303499  0.58413348  0.38717369  1
  Si  Si178  1  0.53072851  0.91165779  0.60983263  1
  Si  Si179  1  0.30851400  0.15732208  0.88958571  1
  Si  Si180  1  0.68674655  0.32709229  0.11181665  1
  Si  Si181  1  0.35552222  0.83313253  0.11578546  1
  Si  Si182  1  0.02587559  0.33162496  0.11193199  1
  Si  Si183  1  0.35218760  0.17208054  0.11373118  1
  Si  Si184  1  0.86077631  0.91818040  0.11380611  1
  Si  Si185  1  0.30988321  0.66315380  0.88599938  1
  Si  Si186  1  0.29970750  0.16947403  0.39013352  1
  Si  Si187  1  0.02333451  0.16666568  0.61851067  1
  Si  Si188  1  0.14160532  0.41956673  0.38539121  1
  Si  Si189  1  0.47438088  0.08189701  0.88688409  1
  Si  Si190  1  0.35471954  0.33017731  0.61633443  1
  Si  Si191  1  0.86544777  0.08351767  0.11485788  1
  O  O192  1  0.27179816  0.11674560  0.08613135  1
  O  O193  1  0.26589622  0.11788199  0.58699918  1
  O  O194  1  0.26720829  0.60157566  0.07552638  1
  O  O195  1  0.28887549  0.60188177  0.57639524  1
  O  O196  1  0.62215679  0.10938697  0.07883821  1
  O  O197  1  0.61653451  0.13176111  0.57601129  1
  O  O198  1  0.61891323  0.60604215  0.06444627  1
  O  O199  1  0.62332129  0.61853264  0.57531396  1
  O  O200  1  0.94714170  0.11619158  0.08670451  1
  O  O201  1  0.94526751  0.11250013  0.58929873  1
  O  O202  1  0.95388575  0.61871067  0.08058127  1
  O  O203  1  0.94643853  0.61987799  0.58436328  1
  O  O204  1  0.11071995  0.36063426  0.08384681  1
  O  O205  1  0.10490124  0.35428978  0.58743285  1
  O  O206  1  0.10728076  0.87343410  0.08619422  1
  O  O207  1  0.10130477  0.87227791  0.58441483  1
  O  O208  1  0.43232683  0.35738240  0.08546683  1
  O  O209  1  0.43569096  0.35904189  0.58530396  1
  O  O210  1  0.44205708  0.85921525  0.08923306  1
  O  O211  1  0.44918903  0.86585703  0.57491665  1
  O  O212  1  0.75530633  0.36816813  0.07636817  1
  O  O213  1  0.76925885  0.38046888  0.58811160  1
  O  O214  1  0.77178592  0.87878238  0.08527885  1
  O  O215  1  0.77766609  0.87135694  0.58264900  1
  O  O216  1  0.27271407  0.38830939  0.09033418  1
  O  O217  1  0.26872272  0.37632016  0.58635048  1
  O  O218  1  0.27766955  0.89248213  0.08965850  1
  O  O219  1  0.26220051  0.89899038  0.57626960  1
  O  O220  1  0.59243711  0.35972561  0.08220144  1
  O  O221  1  0.59968557  0.36954930  0.58175409  1
  O  O222  1  0.60681301  0.89553863  0.08805765  1
  O  O223  1  0.61332935  0.87467128  0.58266488  1
  O  O224  1  0.94498219  0.37484105  0.07496768  1
  O  O225  1  0.93663875  0.37738282  0.58667825  1
  O  O226  1  0.94058107  0.88010795  0.08580531  1
  O  O227  1  0.94127462  0.88625331  0.58590707  1
  O  O228  1  0.10891137  0.13062812  0.08681021  1
  O  O229  1  0.10558001  0.13878769  0.58819133  1
  O  O230  1  0.11246664  0.63681665  0.08195104  1
  O  O231  1  0.10512725  0.64632633  0.57713744  1
  O  O232  1  0.43080426  0.15060428  0.07886854  1
  O  O233  1  0.42593085  0.13392056  0.57903711  1
  O  O234  1  0.44228683  0.63638482  0.06566752  1
  O  O235  1  0.44179211  0.65004725  0.57967959  1
  O  O236  1  0.78412803  0.13245262  0.08632113  1
  O  O237  1  0.78257103  0.13326865  0.58433677  1
  O  O238  1  0.79783601  0.65283067  0.07610410  1
  O  O239  1  0.78632806  0.63352393  0.58231992  1
  O  O240  1  0.05416787  0.10893645  0.41404444  1
  O  O241  1  0.06219824  0.12915210  0.91786823  1
  O  O242  1  0.05199202  0.62006784  0.41195381  1
  O  O243  1  0.06150378  0.61541372  0.91388680  1
  O  O244  1  0.38249392  0.12769826  0.42556650  1
  O  O245  1  0.38350045  0.09796324  0.91258535  1
  O  O246  1  0.37336903  0.61688954  0.42179813  1
  O  O247  1  0.39445524  0.61436660  0.91192470  1
  O  O248  1  0.73354431  0.11730072  0.41494162  1
  O  O249  1  0.73632195  0.11148605  0.92536623  1
  O  O250  1  0.73669633  0.60921372  0.42429338  1
  O  O251  1  0.73053287  0.62429752  0.91421900  1
  O  O252  1  0.23314339  0.38235564  0.41576957  1
  O  O253  1  0.21362426  0.36483959  0.92376803  1
  O  O254  1  0.22870078  0.87282186  0.41439511  1
  O  O255  1  0.21639663  0.87682102  0.92650227  1
  O  O256  1  0.55643012  0.35133835  0.41585887  1
  O  O257  1  0.56611905  0.37740298  0.91754097  1
  O  O258  1  0.56384599  0.86940783  0.41374554  1
  O  O259  1  0.55079319  0.86192525  0.91605806  1
  O  O260  1  0.90847176  0.35561789  0.42535663  1
  O  O261  1  0.88981030  0.37330898  0.91208283  1
  O  O262  1  0.89562327  0.87234643  0.41311291  1
  O  O263  1  0.89592716  0.84844747  0.92288596  1
  O  O264  1  0.07144380  0.37492322  0.41914784  1
  O  O265  1  0.05239600  0.38853569  0.91756320  1
  O  O266  1  0.06077466  0.88234442  0.41359298  1
  O  O267  1  0.05174830  0.88367786  0.91572234  1
  O  O268  1  0.39566327  0.36811330  0.41301880  1
  O  O269  1  0.40427178  0.38655092  0.92302977  1
  O  O270  1  0.39639138  0.87029419  0.41407969  1
  O  O271  1  0.39522294  0.89851631  0.92082401  1
  O  O272  1  0.71854779  0.38341550  0.42412303  1
  O  O273  1  0.72775281  0.39306149  0.91515079  1
  O  O274  1  0.72715015  0.89556243  0.41184097  1
  O  O275  1  0.71356027  0.87831930  0.92517674  1
  O  O276  1  0.21661324  0.13279335  0.41609088  1
  O  O277  1  0.22525086  0.12367365  0.91731999  1
  O  O278  1  0.21159738  0.63607218  0.41316529  1
  O  O279  1  0.22857813  0.62421089  0.91300355  1
  O  O280  1  0.57398802  0.13520625  0.42265203  1
  O  O281  1  0.54375958  0.13847985  0.92159687  1
  O  O282  1  0.55437157  0.64005130  0.43073123  1
  O  O283  1  0.56004231  0.63004741  0.91167083  1
  O  O284  1  0.89538325  0.13457286  0.41445720  1
  O  O285  1  0.89700918  0.13768793  0.91884184  1
  O  O286  1  0.89028314  0.64500606  0.41277973  1
  O  O287  1  0.89619049  0.63472941  0.91270584  1
  O  O288  1  0.17415664  0.00161230  0.08824008  1
  O  O289  1  0.15790578  0.00596496  0.58763615  1
  O  O290  1  0.15985953  0.49680995  0.08440380  1
  O  O291  1  0.15822082  0.48533116  0.57688730  1
  O  O292  1  0.48653153  -0.00695950  0.08086996  1
  O  O293  1  0.52287585  -0.00810928  0.57700361  1
  O  O294  1  0.50660028  0.48133766  0.07421017  1
  O  O295  1  0.50347619  0.48679984  0.57587133  1
  O  O296  1  0.85463197  0.00103333  0.08558013  1
  O  O297  1  0.84679794  0.00107085  0.58654699  1
  O  O298  1  0.84407864  0.51397779  0.07501201  1
  O  O299  1  0.85536581  0.50173962  0.58305686  1
  O  O300  1  0.01617103  0.24661390  0.08503318  1
  O  O301  1  -0.00065041  0.24737922  0.58908305  1
  O  O302  1  0.01796815  0.75299078  0.08436150  1
  O  O303  1  0.00313841  0.75499536  0.58717647  1
  O  O304  1  0.31818657  0.25287771  0.08796526  1
  O  O305  1  0.33101684  0.24841630  0.58811378  1
  O  O306  1  0.32250726  0.75876051  0.08178989  1
  O  O307  1  0.31651697  0.74264169  0.57830248  1
  O  O308  1  0.68251166  0.24316411  0.08360991  1
  O  O309  1  0.69948486  0.25415153  0.58577542  1
  O  O310  1  0.66853764  0.76671240  0.07403541  1
  O  O311  1  0.69502026  0.74962856  0.58608059  1
  O  O312  1  0.15438845  -0.00116122  0.41467876  1
  O  O313  1  0.13635414  0.00281936  0.91694226  1
  O  O314  1  0.14390187  0.50300832  0.41259836  1
  O  O315  1  0.15319353  0.49904092  0.91511092  1
  O  O316  1  0.48325221  -0.00976782  0.42294852  1
  O  O317  1  0.50532425  0.00054070  0.91286161  1
  O  O318  1  0.49147287  0.48383084  0.42502514  1
  O  O319  1  0.49407193  0.50264318  0.91338601  1
  O  O320  1  0.83435660  0.00293815  0.41237007  1
  O  O321  1  0.84498926  0.00526922  0.92311965  1
  O  O322  1  0.85026506  0.50821091  0.41883147  1
  O  O323  1  0.82769884  0.50645485  0.91515373  1
  O  O324  1  0.29996016  0.25252535  0.41865445  1
  O  O325  1  0.33021562  0.23382667  0.92523662  1
  O  O326  1  0.30836759  0.75024568  0.41709258  1
  O  O327  1  0.32241062  0.73983673  0.92325579  1
  O  O328  1  0.67045565  0.24908345  0.41454243  1
  O  O329  1  0.66540149  0.26443640  0.92452223  1
  O  O330  1  0.67617695  0.76357774  0.42168984  1
  O  O331  1  0.64863549  0.74787922  0.91002304  1
  O  O332  1  1.00624897  0.24414016  0.41604045  1
  O  O333  1  0.98731601  0.25578549  0.91681607  1
  O  O334  1  0.99178344  0.75379087  0.41193680  1
  O  O335  1  1.00436008  0.74566378  0.91199552  1
  O  O336  1  0.20944977  0.08367387  0.19736624  1
  O  O337  1  0.20579246  0.08424529  0.69768642  1
  O  O338  1  0.20244280  0.58235693  0.19107334  1
  O  O339  1  0.21029113  0.58057342  0.70084444  1
  O  O340  1  0.54507295  0.08394708  0.20059495  1
  O  O341  1  0.54387476  0.08251750  0.70114177  1
  O  O342  1  0.54803739  0.58214395  0.19636093  1
  O  O343  1  0.54608137  0.57842974  0.69631652  1
  O  O344  1  0.88131067  0.08167871  0.19546162  1
  O  O345  1  0.87832292  0.08139307  0.69788779  1
  O  O346  1  0.88324827  0.59343467  0.18843765  1
  O  O347  1  0.88241630  0.58362817  0.69362955  1
  O  O348  1  0.04263984  0.33155211  0.19284558  1
  O  O349  1  0.04133505  0.33196147  0.69712418  1
  O  O350  1  0.04461778  0.83585710  0.19432134  1
  O  O351  1  0.04295611  0.83609545  0.69635507  1
  O  O352  1  0.37705369  0.32708350  0.19688097  1
  O  O353  1  0.37435673  0.33194446  0.69643585  1
  O  O354  1  0.37382665  0.83492702  0.19689664  1
  O  O355  1  0.37554823  0.83630938  0.69908553  1
  O  O356  1  0.70398436  0.32880655  0.19179796  1
  O  O357  1  0.70182064  0.33610853  0.69411043  1
  O  O358  1  0.71026580  0.83830399  0.19257017  1
  O  O359  1  0.71873010  0.83895559  0.69282825  1
  O  O360  1  0.19799441  0.41692055  0.19470548  1
  O  O361  1  0.20481022  0.41332636  0.69401079  1
  O  O362  1  0.20812914  0.91766962  0.19701449  1
  O  O363  1  0.20332852  0.91995930  0.69326665  1
  O  O364  1  0.54162991  0.41021673  0.19238026  1
  O  O365  1  0.53993025  0.41309547  0.69215501  1
  O  O366  1  0.54006956  0.91793868  0.19599066  1
  O  O367  1  0.54541250  0.91519443  0.69116749  1
  O  O368  1  0.88112606  0.41558313  0.19948865  1
  O  O369  1  0.88231443  0.42392598  0.69453130  1
  O  O370  1  0.87940734  0.91832460  0.19447644  1
  O  O371  1  0.88006276  0.91758322  0.69577636  1
  O  O372  1  0.04592300  0.16485101  0.19618153  1
  O  O373  1  0.04356111  0.16546161  0.69874249  1
  O  O374  1  0.04680960  0.67017573  0.19276878  1
  O  O375  1  0.04521640  0.66818733  0.69349821  1
  O  O376  1  0.37053789  0.16757525  0.19463188  1
  O  O377  1  0.37098306  0.16507525  0.69583311  1
  O  O378  1  0.38005177  0.66981519  0.20078896  1
  O  O379  1  0.36653013  0.66575985  0.68964108  1
  O  O380  1  0.71308932  0.16247258  0.19348030  1
  O  O381  1  0.71729449  0.16248110  0.69296196  1
  O  O382  1  0.71354820  0.66921191  0.19800700  1
  O  O383  1  0.72044354  0.65885602  0.69070333  1
  O  O384  1  0.12220085  0.08166143  0.30540446  1
  O  O385  1  0.11996876  0.08392316  0.80741770  1
  O  O386  1  0.11676140  0.58619567  0.30211765  1
  O  O387  1  0.12209366  0.58203245  0.80450195  1
  O  O388  1  0.45245985  0.08398223  0.30045196  1
  O  O389  1  0.45501664  0.08359721  0.80595082  1
  O  O390  1  0.45958098  0.58007514  0.30205971  1
  O  O391  1  0.45257278  0.57921556  0.80206784  1
  O  O392  1  0.79432411  0.08341926  0.30382317  1
  O  O393  1  0.79511416  0.08263211  0.81033748  1
  O  O394  1  0.79177155  0.58680849  0.30679785  1
  O  O395  1  0.79368724  0.58547449  0.80426502  1
  O  O396  1  0.28126732  0.32670241  0.30659499  1
  O  O397  1  0.28692575  0.33089247  0.80098309  1
  O  O398  1  0.28753409  0.83444006  0.30567395  1
  O  O399  1  0.28455782  0.83441970  0.79965455  1
  O  O400  1  0.62567487  0.33148030  0.30654875  1
  O  O401  1  0.62305835  0.33868463  0.80770340  1
  O  O402  1  0.62721261  0.83687460  0.30501471  1
  O  O403  1  0.61806610  0.84121750  0.80658510  1
  O  O404  1  0.96770419  0.33048927  0.30953972  1
  O  O405  1  0.96456555  0.33423750  0.80717995  1
  O  O406  1  0.95740840  0.83667326  0.30341223  1
  O  O407  1  0.95842154  0.83196632  0.80632058  1
  O  O408  1  0.12154551  0.41640128  0.30549804  1
  O  O409  1  0.12235466  0.41537854  0.80768362  1
  O  O410  1  0.12294967  0.91694596  0.30493672  1
  O  O411  1  0.12119495  0.91785877  0.80834571  1
  O  O412  1  0.46717162  0.41289864  0.30817262  1
  O  O413  1  0.45769358  0.41488779  0.80620883  1
  O  O414  1  0.45625858  0.91639521  0.30637129  1
  O  O415  1  0.45677074  0.91930051  0.80550715  1
  O  O416  1  0.78558837  0.41237836  0.30071899  1
  O  O417  1  0.78756609  0.42668270  0.80530388  1
  O  O418  1  0.79408706  0.91878190  0.30311624  1
  O  O419  1  0.78980798  0.91565608  0.80043420  1
  O  O420  1  0.28596466  0.16635719  0.30899530  1
  O  O421  1  0.28778498  0.16304091  0.80836083  1
  O  O422  1  0.28168723  0.67370052  0.30728255  1
  O  O423  1  0.29008515  0.66660139  0.80538801  1
  O  O424  1  0.62838047  0.16553676  0.30683346  1
  O  O425  1  0.62235691  0.16757394  0.80086467  1
  O  O426  1  0.62178635  0.66858158  0.29993264  1
  O  O427  1  0.62517803  0.65822114  0.80357647  1
  O  O428  1  0.95872572  0.16484574  0.30495034  1
  O  O429  1  0.95885973  0.16780145  0.80810248  1
  O  O430  1  0.95608331  0.67100049  0.30183538  1
  O  O431  1  0.96068171  0.66475774  0.80326624  1
  F  F432  1  0.04641933  0.00018766  0.20192150  1
  F  F433  1  0.04377537  0.00069608  0.70501193  1
  F  F434  1  0.04458618  0.49933195  0.20181728  1
  F  F435  1  0.04664329  0.49785151  0.70305778  1
  F  F436  1  0.37359495  -0.00106302  0.20321908  1
  F  F437  1  0.37654545  0.00084162  0.70304346  1
  F  F438  1  0.38634383  0.50367603  0.19268213  1
  F  F439  1  0.37614353  0.49486741  0.70238528  1
  F  F440  1  0.71442857  0.00027275  0.20231348  1
  F  F441  1  0.71367181  0.00310686  0.70229407  1
  F  F442  1  0.70826384  0.50011457  0.19837540  1
  F  F443  1  0.71407249  0.49991325  0.69995176  1
  F  F444  1  0.20945000  0.24789843  0.20250346  1
  F  F445  1  0.20813091  0.24621972  0.70335925  1
  F  F446  1  0.21021731  0.75220907  0.20171759  1
  F  F447  1  0.20713591  0.75003513  0.70055277  1
  F  F448  1  0.54675942  0.24763813  0.20597904  1
  F  F449  1  0.53289476  0.25059046  0.69851827  1
  F  F450  1  0.54494405  0.75506245  0.20200453  1
  F  F451  1  0.53276454  0.75395912  0.69394341  1
  F  F452  1  0.88386811  0.24130333  0.19778394  1
  F  F453  1  0.88504038  0.23891916  0.69989576  1
  F  F454  1  0.88163887  0.75629608  0.19953036  1
  F  F455  1  0.88287941  0.75100404  0.70102813  1
  F  F456  1  0.28611902  -0.00017238  0.30005090  1
  F  F457  1  0.28477835  0.00025795  0.79763628  1
  F  F458  1  0.27580639  0.50897428  0.30583287  1
  F  F459  1  0.28774766  0.49567253  0.79954838  1
  F  F460  1  0.62445429  -0.00091528  0.29862429  1
  F  F461  1  0.62392742  -0.00114194  0.79755020  1
  F  F462  1  0.62266628  0.49655319  0.29554778  1
  F  F463  1  0.62207516  0.49735053  0.79586417  1
  F  F464  1  0.95712032  -0.00029462  0.29823068  1
  F  F465  1  0.95585889  0.00012783  0.80073346  1
  F  F466  1  0.96270225  0.50381846  0.30105797  1
  F  F467  1  0.95641415  0.50227427  0.79863214  1
  F  F468  1  0.11901835  0.24868167  0.29754608  1
  F  F469  1  0.12020126  0.24874425  0.80039373  1
  F  F470  1  0.11843125  0.75291095  0.29715301  1
  F  F471  1  0.12119696  0.74939660  0.79740559  1
  F  F472  1  0.45349708  0.24701855  0.29951542  1
  F  F473  1  0.45255127  0.24928879  0.79896445  1
  F  F474  1  0.45449971  0.75558675  0.30145831  1
  F  F475  1  0.45174303  0.75234051  0.80014512  1
  F  F476  1  0.78870877  0.24280650  0.29873562  1
  F  F477  1  0.79165804  0.24047136  0.80802807  1
  F  F478  1  0.79166554  0.75501678  0.29652279  1
  F  F479  1  0.80255282  0.74784386  0.80106545  1
