# generated using pymatgen
data_K24Na3Li5Mg64Fe17Si79(O5F)48
_symmetry_space_group_name_H-M   'P 1'
_cell_length_a   16.08680418
_cell_length_b   18.59261053
_cell_length_c   20.55112580
_cell_angle_alpha   89.99244139
_cell_angle_beta   100.02699805
_cell_angle_gamma   89.99540670
_symmetry_Int_Tables_number   1
_chemical_formula_structural   K24Na3Li5Mg64Fe17Si79(O5F)48
_chemical_formula_sum   'K24 Na3 Li5 Mg64 Fe17 Si79 O240 F48'
_cell_volume   6052.86634793
_cell_formula_units_Z   1
loop_
 _symmetry_equiv_pos_site_id
 _symmetry_equiv_pos_as_xyz
  1  'x, y, z'
loop_
 _atom_site_type_symbol
 _atom_site_label
 _atom_site_symmetry_multiplicity
 _atom_site_fract_x
 _atom_site_fract_y
 _atom_site_fract_z
 _atom_site_occupancy
  K  K0  1  0.00231517  -0.00651475  0.00342704  1
  K  K1  1  0.00212528  0.00719017  0.50042328  1
  K  K2  1  0.00082770  0.50271226  0.00059751  1
  K  K3  1  0.00796184  0.50921034  0.50294798  1
  K  K4  1  0.33893655  -0.00224527  0.00181886  1
  K  K5  1  0.34765195  0.00145266  0.50636015  1
  K  K6  1  0.33149613  0.50929537  0.00218970  1
  K  K7  1  0.32589453  0.49278019  0.50243744  1
  K  K8  1  0.64913691  0.00646929  -0.00661665  1
  K  K9  1  0.67022244  0.00220273  0.49416085  1
  K  K10  1  0.65683412  0.49665383  0.00152460  1
  K  K11  1  0.66298585  0.49835813  0.50660756  1
  K  K12  1  0.17565903  0.25520783  0.00217785  1
  K  K13  1  0.18016894  0.24732820  0.50250748  1
  K  K14  1  0.16670731  0.74737583  0.00079693  1
  K  K15  1  0.17143041  0.74636080  0.50337385  1
  K  K16  1  0.50553554  0.24528144  -0.00634919  1
  K  K17  1  0.49512922  0.25342945  0.50576693  1
  K  K18  1  0.50056323  0.74824640  0.00114008  1
  K  K19  1  0.50579781  0.75020243  0.50632985  1
  K  K20  1  0.82761227  0.24848013  -0.00191720  1
  K  K21  1  0.82829914  0.24603798  0.49905159  1
  K  K22  1  0.83134317  0.75504887  -0.00448159  1
  K  K23  1  0.83158762  0.74305784  0.50789693  1
  Na  Na24  1  0.67287640  0.74634713  0.76005864  1
  Na  Na25  1  0.16704988  0.67080846  0.24383553  1
  Na  Na26  1  0.50195097  0.16754402  0.75315705  1
  Li  Li27  1  0.49981929  -0.00438477  0.25267099  1
  Li  Li28  1  0.33170399  0.74833192  0.74916789  1
  Li  Li29  1  0.49897204  0.83812388  0.24981472  1
  Li  Li30  1  0.83265869  0.16512328  0.25679337  1
  Li  Li31  1  0.83067053  0.66607290  0.76254424  1
  Mg  Mg32  1  0.16683827  -0.00000499  0.24918918  1
  Mg  Mg33  1  0.49964931  0.50475041  0.75057824  1
  Mg  Mg34  1  0.16837953  0.50149114  0.24736584  1
  Mg  Mg35  1  0.00040568  0.75043612  0.24828229  1
  Mg  Mg36  1  0.83239776  0.50356815  0.74875846  1
  Mg  Mg37  1  0.16410126  0.50273987  0.74554417  1
  Mg  Mg38  1  0.33572004  0.24964006  0.74894199  1
  Mg  Mg39  1  0.66631508  0.25073738  0.75045913  1
  Mg  Mg40  1  0.66438787  0.75219271  0.24876809  1
  Mg  Mg41  1  0.50043383  -0.00076716  0.75287003  1
  Mg  Mg42  1  -0.00435117  0.74765926  0.74632406  1
  Mg  Mg43  1  0.83221464  0.00319841  0.25610067  1
  Mg  Mg44  1  0.00056386  0.24818982  0.74485834  1
  Mg  Mg45  1  0.16764080  -0.00001778  0.74511257  1
  Mg  Mg46  1  -0.00210529  0.25047105  0.25027823  1
  Mg  Mg47  1  0.83489314  0.49922749  0.24554086  1
  Mg  Mg48  1  0.50243821  0.50127774  0.24874848  1
  Mg  Mg49  1  0.33282600  0.25044515  0.25167564  1
  Mg  Mg50  1  0.33752468  0.75388116  0.24686935  1
  Mg  Mg51  1  0.83441581  -0.00017369  0.75234905  1
  Mg  Mg52  1  0.66986951  0.24658820  0.25380877  1
  Mg  Mg53  1  -0.00536203  0.58701626  0.74578104  1
  Mg  Mg54  1  0.50074117  0.16297283  0.25436163  1
  Mg  Mg55  1  0.83268452  0.66607595  0.24545445  1
  Mg  Mg56  1  0.16694567  0.83112669  0.74646564  1
  Mg  Mg57  1  0.50086071  0.33620230  0.74906057  1
  Mg  Mg58  1  0.00087623  0.91586391  0.74870678  1
  Mg  Mg59  1  0.16741310  0.16569543  0.74432208  1
  Mg  Mg60  1  0.33473285  0.91301849  0.75248301  1
  Mg  Mg61  1  0.16486909  0.33431380  0.74454658  1
  Mg  Mg62  1  0.33645782  0.08344084  0.74867319  1
  Mg  Mg63  1  0.00047220  0.08474137  0.74533297  1
  Mg  Mg64  1  0.33482677  0.08192376  0.25084788  1
  Mg  Mg65  1  0.66605673  0.58499818  0.24631162  1
  Mg  Mg66  1  0.66825283  0.41597916  0.75009891  1
  Mg  Mg67  1  0.16606753  0.16591822  0.25160286  1
  Mg  Mg68  1  0.33180697  0.41779263  0.74561942  1
  Mg  Mg69  1  0.32827674  0.58774355  0.74718985  1
  Mg  Mg70  1  -0.00348113  0.08564388  0.25419998  1
  Mg  Mg71  1  0.83200696  0.33377996  0.74706815  1
  Mg  Mg72  1  0.83597768  0.83074742  0.75304075  1
  Mg  Mg73  1  0.33657942  0.91745467  0.24804040  1
  Mg  Mg74  1  0.33370020  0.58629102  0.24658553  1
  Mg  Mg75  1  0.66990395  0.58561684  0.75442835  1
  Mg  Mg76  1  0.16815573  0.33588844  0.24846621  1
  Mg  Mg77  1  0.66753215  0.08219739  0.25746786  1
  Mg  Mg78  1  0.83392415  0.33139250  0.24858116  1
  Mg  Mg79  1  -0.00157887  0.58393380  0.24539966  1
  Mg  Mg80  1  0.66564514  0.08435972  0.75259786  1
  Mg  Mg81  1  -0.00048689  0.91607912  0.25009408  1
  Mg  Mg82  1  0.16273013  0.66671319  0.74443919  1
  Mg  Mg83  1  0.83156669  0.16528941  0.74936067  1
  Mg  Mg84  1  0.49777332  0.66892410  0.75232256  1
  Mg  Mg85  1  0.50066823  0.66892173  0.24655011  1
  Mg  Mg86  1  0.83168169  0.83578215  0.25345142  1
  Mg  Mg87  1  0.33210126  0.41622328  0.25009915  1
  Mg  Mg88  1  0.66808710  0.91411081  0.75369457  1
  Mg  Mg89  1  0.50035377  0.83011413  0.75522598  1
  Mg  Mg90  1  0.66242129  0.91796226  0.25625124  1
  Mg  Mg91  1  -0.00127837  0.41616059  0.24662333  1
  Mg  Mg92  1  0.16794574  0.83583641  0.24779032  1
  Mg  Mg93  1  0.66789286  0.41435761  0.24730744  1
  Mg  Mg94  1  -0.00256789  0.41613638  0.74437574  1
  Mg  Mg95  1  0.50015411  0.33382784  0.25063901  1
  Fe  Fe96  1  0.85430396  0.41412122  0.10703334  1
  Fe  Fe97  1  0.80749824  0.57903667  0.89505768  1
  Fe  Fe98  1  0.97019460  0.67195311  0.88857924  1
  Fe  Fe99  1  0.46765485  0.07931263  0.89453710  1
  Fe  Fe100  1  0.19255723  0.58489857  0.60435785  1
  Fe  Fe101  1  0.19446358  0.41871224  0.10755981  1
  Fe  Fe102  1  0.02401499  0.16562811  0.60563776  1
  Fe  Fe103  1  0.30907128  0.33136261  0.39130480  1
  Fe  Fe104  1  0.63554294  0.66334913  0.89627297  1
  Fe  Fe105  1  0.01808512  0.67012239  0.60346477  1
  Fe  Fe106  1  0.68859002  0.33012639  0.60914256  1
  Fe  Fe107  1  0.64508169  0.16923854  0.89413874  1
  Fe  Fe108  1  0.36821086  0.16309729  0.60955583  1
  Fe  Fe109  1  0.52803370  0.58169637  0.10826851  1
  Fe  Fe110  1  0.85522768  0.58688115  0.10598941  1
  Fe  Fe111  1  0.19188820  0.91811390  0.10929961  1
  Fe  Fe112  1  0.81101524  0.08603693  0.39571323  1
  Si  Si113  1  0.52713312  0.91827765  0.12039111  1
  Si  Si114  1  0.47392299  0.07903969  0.38655209  1
  Si  Si115  1  0.85438357  0.57746613  0.60803339  1
  Si  Si116  1  0.97637806  0.33766633  0.38557411  1
  Si  Si117  1  0.35967925  0.33611707  0.61166131  1
  Si  Si118  1  0.29987167  0.16905584  0.88634809  1
  Si  Si119  1  0.80800560  0.58194737  0.38399579  1
  Si  Si120  1  0.47530132  0.58794030  0.38471178  1
  Si  Si121  1  0.85604637  0.91787811  0.11741074  1
  Si  Si122  1  0.35873239  0.67045814  0.10985889  1
  Si  Si123  1  0.35947976  0.83356712  0.61700722  1
  Si  Si124  1  0.14238648  0.58435876  0.38119685  1
  Si  Si125  1  0.64315876  0.83119413  0.38769762  1
  Si  Si126  1  0.47141746  0.41998153  0.88326079  1
  Si  Si127  1  0.36294309  0.83623476  0.11251152  1
  Si  Si128  1  0.13866550  0.42047996  0.38685727  1
  Si  Si129  1  0.80768092  0.41550004  0.38425337  1
  Si  Si130  1  0.97568298  0.82972592  0.38654275  1
  Si  Si131  1  0.68782642  0.16004619  0.12021841  1
  Si  Si132  1  0.53702117  0.07241465  0.61280709  1
  Si  Si133  1  0.69232212  0.32287507  0.11402401  1
  Si  Si134  1  0.31057562  0.66963901  0.38289485  1
  Si  Si135  1  0.02028645  0.16748255  0.11673465  1
  Si  Si136  1  0.47768988  0.42209482  0.38719551  1
  Si  Si137  1  0.46076831  0.58560390  0.88681871  1
  Si  Si138  1  0.64070693  0.33624241  0.38556875  1
  Si  Si139  1  0.64383054  0.66684097  0.38587145  1
  Si  Si140  1  0.81334433  0.08299206  0.88952662  1
  Si  Si141  1  0.52262003  0.42479984  0.61259784  1
  Si  Si142  1  0.18864865  0.41320168  0.60956108  1
  Si  Si143  1  0.97542102  0.66473758  0.38356619  1
  Si  Si144  1  0.47279290  0.90928290  0.89154030  1
  Si  Si145  1  0.19108514  0.91392417  0.61308534  1
  Si  Si146  1  0.30341835  0.82840172  0.88401493  1
  Si  Si147  1  0.98227979  0.17285545  0.38996356  1
  Si  Si148  1  0.97673217  0.16378708  0.88300429  1
  Si  Si149  1  0.36385763  0.66819602  0.61247346  1
  Si  Si150  1  0.69306941  0.16097634  0.61291245  1
  Si  Si151  1  0.69638608  0.82961398  0.61821356  1
  Si  Si152  1  0.52816727  0.90963290  0.61681981  1
  Si  Si153  1  0.85632333  0.07989706  0.61393929  1
  Si  Si154  1  0.69639326  0.66316491  0.61763108  1
  Si  Si155  1  0.14031115  0.08437996  0.88169943  1
  Si  Si156  1  0.97689517  0.32753374  0.88125811  1
  Si  Si157  1  0.85747793  0.08211640  0.11896400  1
  Si  Si158  1  0.18756209  0.08857178  0.11346949  1
  Si  Si159  1  0.69480408  0.67672358  0.11240476  1
  Si  Si160  1  0.02429642  0.66773401  0.11263111  1
  Si  Si161  1  0.30668946  0.33423104  0.88131017  1
  Si  Si162  1  0.52764657  0.58928716  0.61544070  1
  Si  Si163  1  0.14043055  0.08066864  0.38653713  1
  Si  Si164  1  0.01925988  0.83972929  0.61108858  1
  Si  Si165  1  0.81329130  0.91820207  0.88751228  1
  Si  Si166  1  0.29319534  0.66392113  0.88211449  1
  Si  Si167  1  0.81659319  0.41310991  0.88537888  1
  Si  Si168  1  0.52362761  0.08082996  0.12070417  1
  Si  Si169  1  0.52943208  0.40958884  0.11275038  1
  Si  Si170  1  0.36573768  0.33091945  0.11313549  1
  Si  Si171  1  0.14018128  0.91474455  0.38590360  1
  Si  Si172  1  0.47598883  0.91427111  0.38554867  1
  Si  Si173  1  0.98199450  0.83950552  0.88682651  1
  Si  Si174  1  0.01958965  0.83256496  0.11166550  1
  Si  Si175  1  0.19719746  0.07959379  0.60799029  1
  Si  Si176  1  0.64304244  0.34153259  0.88815555  1
  Si  Si177  1  0.81096133  0.91304359  0.39256623  1
  Si  Si178  1  0.64554069  0.83780108  0.89109771  1
  Si  Si179  1  0.02161045  0.33492239  0.60930253  1
  Si  Si180  1  0.35861545  0.16603215  0.11727015  1
  Si  Si181  1  0.85888609  0.41509443  0.60968873  1
  Si  Si182  1  0.63549117  0.16947937  0.39200278  1
  Si  Si183  1  0.30938676  0.15862822  0.38828148  1
  Si  Si184  1  0.85441412  0.91829256  0.61665559  1
  Si  Si185  1  0.02748892  0.33118892  0.11103364  1
  Si  Si186  1  0.30983891  0.83494922  0.38647348  1
  Si  Si187  1  0.68895951  0.84032774  0.11826344  1
  Si  Si188  1  0.14549831  0.92145433  0.88283589  1
  Si  Si189  1  0.13253641  0.57856103  0.88456910  1
  Si  Si190  1  0.13978154  0.41459832  0.88089592  1
  Si  Si191  1  0.19254712  0.58824221  0.11084111  1
  O  O192  1  0.27042458  0.12395901  0.08690220  1
  O  O193  1  0.27888529  0.10041587  0.57554175  1
  O  O194  1  0.27198144  0.62514896  0.08111483  1
  O  O195  1  0.28990576  0.61825833  0.57250696  1
  O  O196  1  0.60589663  0.10927798  0.08964605  1
  O  O197  1  0.62501706  0.09634299  0.58712693  1
  O  O198  1  0.62189732  0.62136252  0.07889745  1
  O  O199  1  0.60804478  0.62101750  0.58427397  1
  O  O200  1  0.93769970  0.11614716  0.08798958  1
  O  O201  1  0.93678160  0.09814877  0.57995182  1
  O  O202  1  0.95773577  0.60939014  0.07712414  1
  O  O203  1  0.92545545  0.60941948  0.56893829  1
  O  O204  1  0.11278654  0.34691412  0.08049403  1
  O  O205  1  0.10906794  0.35821788  0.58319118  1
  O  O206  1  0.09354773  0.86429826  0.07589181  1
  O  O207  1  0.10455073  0.86912347  0.58303936  1
  O  O208  1  0.45460488  0.35013980  0.08758374  1
  O  O209  1  0.43312279  0.38331208  0.58400575  1
  O  O210  1  0.45058385  0.86391297  0.08750143  1
  O  O211  1  0.43898603  0.86831376  0.58544681  1
  O  O212  1  0.77190810  0.34167029  0.07977379  1
  O  O213  1  0.78710527  0.35853314  0.57629862  1
  O  O214  1  0.77122977  0.87088176  0.08868439  1
  O  O215  1  0.77462784  0.86517257  0.58561228  1
  O  O216  1  0.29217734  0.38351226  0.07678595  1
  O  O217  1  0.27073045  0.37839881  0.58316733  1
  O  O218  1  0.28693620  0.88683347  0.07510846  1
  O  O219  1  0.27207166  0.87812159  0.58471138  1
  O  O220  1  0.61233531  0.37644540  0.08593283  1
  O  O221  1  0.59656933  0.39183890  0.57700348  1
  O  O222  1  0.61099896  0.89447467  0.08864203  1
  O  O223  1  0.60510749  0.86860188  0.58705619  1
  O  O224  1  0.95426236  0.38561126  0.07714562  1
  O  O225  1  0.94952617  0.39699567  0.58451916  1
  O  O226  1  0.93326086  0.88158453  0.08628009  1
  O  O227  1  0.94036589  0.89789491  0.58710996  1
  O  O228  1  0.10430148  0.14082660  0.08735408  1
  O  O229  1  0.11891775  0.13034339  0.57420088  1
  O  O230  1  0.11708396  0.64914452  0.09220192  1
  O  O231  1  0.10596662  0.64209434  0.56163367  1
  O  O232  1  0.43904870  0.12921683  0.08989959  1
  O  O233  1  0.46149617  0.12329725  0.57655780  1
  O  O234  1  0.43259183  0.63745168  0.07462339  1
  O  O235  1  0.45106014  0.64429521  0.58467615  1
  O  O236  1  0.77100503  0.12853426  0.09145256  1
  O  O237  1  0.78002848  0.13640184  0.58599634  1
  O  O238  1  0.78269847  0.66665058  0.08575274  1
  O  O239  1  0.76807819  0.62578823  0.58053199  1
  O  O240  1  0.06929114  0.12533227  0.41784003  1
  O  O241  1  0.05555085  0.10914144  0.91072009  1
  O  O242  1  0.06395670  0.62227192  0.41144137  1
  O  O243  1  0.05672355  0.60397061  0.92050107  1
  O  O244  1  0.39132702  0.10693261  0.41641805  1
  O  O245  1  0.37329015  0.12002010  0.92638720  1
  O  O246  1  0.39904311  0.62749253  0.41608724  1
  O  O247  1  0.37407993  0.61333304  0.91241336  1
  O  O248  1  0.71954789  0.12966942  0.42914251  1
  O  O249  1  0.74200729  0.11213564  0.92862558  1
  O  O250  1  0.73150767  0.62203181  0.41536067  1
  O  O251  1  0.71258616  0.59494706  0.93219307  1
  O  O252  1  0.21670601  0.37230135  0.42351139  1
  O  O253  1  0.22626057  0.36909037  0.91033605  1
  O  O254  1  0.23089538  0.87471110  0.41523779  1
  O  O255  1  0.22790773  0.87210234  0.91412156  1
  O  O256  1  0.57043037  0.38456080  0.41462911  1
  O  O257  1  0.56229785  0.38269083  0.91420659  1
  O  O258  1  0.56313412  0.86849011  0.41630808  1
  O  O259  1  0.56419827  0.87058514  0.92169995  1
  O  O260  1  0.89341381  0.36970273  0.41371639  1
  O  O261  1  0.89198041  0.35109353  0.90961958  1
  O  O262  1  0.89719018  0.86371002  0.41783722  1
  O  O263  1  0.89865390  0.87114179  0.91623504  1
  O  O264  1  0.05276666  0.39349904  0.41435098  1
  O  O265  1  0.06046998  0.37726322  0.91035082  1
  O  O266  1  0.06475438  0.87235343  0.41585120  1
  O  O267  1  0.06055178  0.89795411  0.91180494  1
  O  O268  1  0.40784276  0.38484896  0.42357993  1
  O  O269  1  0.39435458  0.37725229  0.91136632  1
  O  O270  1  0.39816062  0.87710809  0.41891764  1
  O  O271  1  0.39647821  0.86092468  0.91602884  1
  O  O272  1  0.73166226  0.37525058  0.41459135  1
  O  O273  1  0.72973838  0.38909940  0.91294394  1
  O  O274  1  0.73148511  0.87239320  0.42037301  1
  O  O275  1  0.73070019  0.89004923  0.91765178  1
  O  O276  1  0.23132857  0.11727792  0.41578662  1
  O  O277  1  0.21141523  0.14392612  0.91178819  1
  O  O278  1  0.22948881  0.63097045  0.40847426  1
  O  O279  1  0.21557560  0.62881882  0.91382086  1
  O  O280  1  0.55397482  0.13090949  0.41802572  1
  O  O281  1  0.56137636  0.13046903  0.93501984  1
  O  O282  1  0.56425303  0.63037554  0.41490195  1
  O  O283  1  0.53424207  0.63568823  0.92559851  1
  O  O284  1  0.90887757  0.14157155  0.42648138  1
  O  O285  1  0.89818021  0.13351542  0.91577892  1
  O  O286  1  0.89726439  0.62460716  0.41239356  1
  O  O287  1  0.88167281  0.65058364  0.93032656  1
  O  O288  1  0.16642578  0.01264137  0.07653744  1
  O  O289  1  0.17402984  -0.00501085  0.58317751  1
  O  O290  1  0.16836848  0.51247735  0.07245583  1
  O  O291  1  0.16875875  0.48932335  0.57302986  1
  O  O292  1  0.50253697  -0.00026476  0.09059145  1
  O  O293  1  0.51931693  -0.01058491  0.58250016  1
  O  O294  1  0.50571085  0.48599414  0.07712910  1
  O  O295  1  0.50646005  0.50848036  0.58423621  1
  O  O296  1  0.84298703  0.00015859  0.08749172  1
  O  O297  1  0.82276037  -0.00155364  0.58924134  1
  O  O298  1  0.81071949  0.50030272  0.07258510  1
  O  O299  1  0.82960759  0.49503113  0.57916611  1
  O  O300  1  -0.00396818  0.24760886  0.08737226  1
  O  O301  1  -0.01022667  0.25896020  0.57559636  1
  O  O302  1  -0.00205638  0.75017205  0.08506026  1
  O  O303  1  -0.01038635  0.76582478  0.57368741  1
  O  O304  1  0.34492691  0.24737478  0.08664947  1
  O  O305  1  0.35371938  0.25841938  0.57642751  1
  O  O306  1  0.34357255  0.75395973  0.08328055  1
  O  O307  1  0.34642383  0.75240500  0.58559642  1
  O  O308  1  0.66299348  0.24022430  0.08938011  1
  O  O309  1  0.66038167  0.23588257  0.57745644  1
  O  O310  1  0.66243826  0.76020734  0.08999245  1
  O  O311  1  0.68619940  0.74710140  0.58863793  1
  O  O312  1  0.14287870  -0.00266672  0.41537195  1
  O  O313  1  0.16801590  0.00391275  0.91101404  1
  O  O314  1  0.15570406  0.50405235  0.41466454  1
  O  O315  1  0.15718313  0.49511195  0.91125269  1
  O  O316  1  0.49225935  -0.00342333  0.41662984  1
  O  O317  1  0.47385340  -0.01524729  0.93034483  1
  O  O318  1  0.48846413  0.50621586  0.41437440  1
  O  O319  1  0.47293604  0.50118774  0.91394535  1
  O  O320  1  0.82559304  -0.01021726  0.42926732  1
  O  O321  1  0.83799690  -0.00007775  0.91559697  1
  O  O322  1  0.81682104  0.49894285  0.41329441  1
  O  O323  1  0.85331679  0.48616532  0.92018848  1
  O  O324  1  0.32421448  0.23608755  0.42345563  1
  O  O325  1  0.31602150  0.25310412  0.91257461  1
  O  O326  1  0.31691421  0.75174639  0.41557732  1
  O  O327  1  0.30376667  0.74605864  0.91322282  1
  O  O328  1  0.63862647  0.25503423  0.41648493  1
  O  O329  1  0.65727666  0.26562662  0.92642099  1
  O  O330  1  0.65338886  0.74826241  0.41821106  1
  O  O331  1  0.66727195  0.75985115  0.92369931  1
  O  O332  1  1.00133993  0.25723009  0.41592539  1
  O  O333  1  1.00130135  0.24565826  0.91058016  1
  O  O334  1  0.98677839  0.74668053  0.41431637  1
  O  O335  1  1.01121416  0.76449886  0.92176934  1
  O  O336  1  0.20716629  0.08543138  0.19460175  1
  O  O337  1  0.21048997  0.08132473  0.68985834  1
  O  O338  1  0.21725927  0.57740204  0.19028480  1
  O  O339  1  0.20867398  0.58341995  0.69651418  1
  O  O340  1  0.54453730  0.08501341  0.20015910  1
  O  O341  1  0.55008831  0.07106069  0.69247757  1
  O  O342  1  0.54545260  0.58338977  0.20050590  1
  O  O343  1  0.54231145  0.58509472  0.69521502  1
  O  O344  1  0.87942031  0.07919819  0.19836824  1
  O  O345  1  0.87597758  0.08210222  0.69517373  1
  O  O346  1  0.87621198  0.58334854  0.19934058  1
  O  O347  1  0.87908233  0.57458831  0.68726015  1
  O  O348  1  0.04434746  0.33226676  0.19306736  1
  O  O349  1  0.04145540  0.33268509  0.69070761  1
  O  O350  1  0.04045011  0.83594151  0.19292939  1
  O  O351  1  0.04225188  0.83713772  0.69189039  1
  O  O352  1  0.37984179  0.33256983  0.19425580  1
  O  O353  1  0.37635308  0.33589592  0.69261978  1
  O  O354  1  0.37477487  0.83656162  0.19251677  1
  O  O355  1  0.37808817  0.83693156  0.69621345  1
  O  O356  1  0.70918981  0.32883753  0.19518184  1
  O  O357  1  0.71122283  0.33280506  0.70061927  1
  O  O358  1  0.71046195  0.83844153  0.19888163  1
  O  O359  1  0.71565635  0.83896758  0.69686755  1
  O  O360  1  0.21219366  0.41808357  0.19930209  1
  O  O361  1  0.20740676  0.41620838  0.69080657  1
  O  O362  1  0.21096057  0.91965724  0.20098895  1
  O  O363  1  0.20984368  0.91478267  0.69343565  1
  O  O364  1  0.54507259  0.41418576  0.19424582  1
  O  O365  1  0.54163237  0.42140664  0.69337648  1
  O  O366  1  0.54728498  0.91734932  0.19924257  1
  O  O367  1  0.54445201  0.91236692  0.69690866  1
  O  O368  1  0.87725552  0.41445871  0.20007063  1
  O  O369  1  0.87560992  0.41409313  0.69081854  1
  O  O370  1  0.87538181  0.91793026  0.19815863  1
  O  O371  1  0.87601270  0.91827329  0.69697327  1
  O  O372  1  0.04134115  0.16528607  0.19726147  1
  O  O373  1  0.04564917  0.16604502  0.69772258  1
  O  O374  1  0.03147937  0.66916589  0.19252052  1
  O  O375  1  0.04294083  0.66718765  0.69516943  1
  O  O376  1  0.37615959  0.16645446  0.19782915  1
  O  O377  1  0.36859693  0.16759498  0.69846341  1
  O  O378  1  0.37764770  0.66799339  0.19098000  1
  O  O379  1  0.37748629  0.66362099  0.69227482  1
  O  O380  1  0.70418716  0.16324280  0.19971323  1
  O  O381  1  0.71204258  0.16430346  0.69379729  1
  O  O382  1  0.70939671  0.67060903  0.19440334  1
  O  O383  1  0.71401773  0.65920352  0.69566783  1
  O  O384  1  0.12248777  0.08197682  0.30591922  1
  O  O385  1  0.12426977  0.08250631  0.80141825  1
  O  O386  1  0.11991410  0.57927784  0.30218526  1
  O  O387  1  0.11816796  0.57983509  0.80398970  1
  O  O388  1  0.45457107  0.08387002  0.30709172  1
  O  O389  1  0.45069223  0.07337286  0.80416528  1
  O  O390  1  0.45743185  0.58626952  0.30468562  1
  O  O391  1  0.44874030  0.58414408  0.80587761  1
  O  O392  1  0.78846088  0.08199220  0.30563887  1
  O  O393  1  0.79424324  0.08309940  0.80840636  1
  O  O394  1  0.78760937  0.58340953  0.30406101  1
  O  O395  1  0.78846140  0.57799725  0.80354438  1
  O  O396  1  0.29030338  0.33228858  0.29984462  1
  O  O397  1  0.28777406  0.33524858  0.80096112  1
  O  O398  1  0.29242449  0.83525321  0.30676036  1
  O  O399  1  0.28498679  0.83472713  0.80460392  1
  O  O400  1  0.62346855  0.33432930  0.30512934  1
  O  O401  1  0.62241032  0.33721233  0.80738061  1
  O  O402  1  0.62955298  0.83153771  0.30854329  1
  O  O403  1  0.62151764  0.84202846  0.81131104  1
  O  O404  1  0.95858026  0.33416455  0.30538988  1
  O  O405  1  0.95942668  0.33027946  0.80076085  1
  O  O406  1  0.95656674  0.83424931  0.30621307  1
  O  O407  1  0.96164542  0.83830915  0.80599873  1
  O  O408  1  0.12259043  0.41722928  0.30608253  1
  O  O409  1  0.12139974  0.41440675  0.80043272  1
  O  O410  1  0.12147519  0.91697077  0.30582177  1
  O  O411  1  0.12598059  0.91863192  0.80237863  1
  O  O412  1  0.45869983  0.41837522  0.30609115  1
  O  O413  1  0.45436322  0.42002510  0.80279276  1
  O  O414  1  0.45265395  0.91512017  0.30714397  1
  O  O415  1  0.45618979  0.91314985  0.81045818  1
  O  O416  1  0.78841540  0.41658509  0.30420123  1
  O  O417  1  0.79545201  0.41484856  0.80446352  1
  O  O418  1  0.79221843  0.91543802  0.31159517  1
  O  O419  1  0.79360218  0.91750993  0.80719084  1
  O  O420  1  0.28991887  0.16329533  0.30719223  1
  O  O421  1  0.28566894  0.16672666  0.80567564  1
  O  O422  1  0.30131361  0.67034081  0.30390940  1
  O  O423  1  0.28036838  0.66511190  0.80274835  1
  O  O424  1  0.62185142  0.16727094  0.31129588  1
  O  O425  1  0.63606705  0.16806539  0.80365710  1
  O  O426  1  0.62670204  0.66761682  0.30605915  1
  O  O427  1  0.61316786  0.65636209  0.80595862  1
  O  O428  1  0.96477259  0.16886563  0.30984624  1
  O  O429  1  0.95648596  0.16470020  0.80279925  1
  O  O430  1  0.95592615  0.66806790  0.30379765  1
  O  O431  1  0.95504351  0.66755659  0.79790092  1
  F  F432  1  0.04321216  0.00125937  0.20408758  1
  F  F433  1  0.04544410  -0.00063390  0.69959416  1
  F  F434  1  0.04595659  0.49900982  0.20055547  1
  F  F435  1  0.04468504  0.49836376  0.69824239  1
  F  F436  1  0.37249688  0.00237485  0.20042150  1
  F  F437  1  0.37875424  -0.00602530  0.70110594  1
  F  F438  1  0.38159816  0.49963444  0.20331809  1
  F  F439  1  0.37763045  0.50173761  0.70066283  1
  F  F440  1  0.71184935  -0.00230265  0.20634845  1
  F  F441  1  0.71410321  -0.00081858  0.70686140  1
  F  F442  1  0.71060739  0.49911450  0.20177966  1
  F  F443  1  0.70984119  0.49761772  0.70106569  1
  F  F444  1  0.21208978  0.24601934  0.20216865  1
  F  F445  1  0.21207670  0.25111687  0.69980246  1
  F  F446  1  0.21902713  0.76275758  0.19776741  1
  F  F447  1  0.20649550  0.75116459  0.69667396  1
  F  F448  1  0.54596461  0.24787516  0.20695487  1
  F  F449  1  0.54876885  0.26162991  0.69879841  1
  F  F450  1  0.54858577  0.74786309  0.20028808  1
  F  F451  1  0.53473830  0.75190385  0.70054171  1
  F  F452  1  0.87986557  0.24911326  0.20415687  1
  F  F453  1  0.87816544  0.24769511  0.70060917  1
  F  F454  1  0.87729820  0.75535072  0.20446758  1
  F  F455  1  0.88115820  0.76293466  0.69462341  1
  F  F456  1  0.28711705  0.00227756  0.30080498  1
  F  F457  1  0.28550884  -0.00101368  0.79516231  1
  F  F458  1  0.29149534  0.50394329  0.29940544  1
  F  F459  1  0.28552515  0.49737066  0.79555483  1
  F  F460  1  0.62730879  -0.00017979  0.30739977  1
  F  F461  1  0.62317459  -0.00118192  0.80083737  1
  F  F462  1  0.62417313  0.49789612  0.29860038  1
  F  F463  1  0.61922041  0.49724752  0.79729396  1
  F  F464  1  0.95670206  -0.00171178  0.30203149  1
  F  F465  1  0.95816991  0.00155313  0.79665768  1
  F  F466  1  0.95641653  0.50028257  0.29885590  1
  F  F467  1  0.95550714  0.49692631  0.79328184  1
  F  F468  1  0.12204025  0.25052590  0.29703551  1
  F  F469  1  0.12269205  0.25164458  0.79523706  1
  F  F470  1  0.11699648  0.76157857  0.29987697  1
  F  F471  1  0.11965054  0.75250655  0.79515048  1
  F  F472  1  0.45473769  0.25036691  0.29980723  1
  F  F473  1  0.44967664  0.26446728  0.80286581  1
  F  F474  1  0.45549569  0.74732134  0.29770029  1
  F  F475  1  0.45320432  0.74976679  0.80134152  1
  F  F476  1  0.78638871  0.25614342  0.30323794  1
  F  F477  1  0.79316686  0.24879155  0.79824448  1
  F  F478  1  0.78820816  0.74941214  0.29876788  1
  F  F479  1  0.80572053  0.75556262  0.80817530  1
