# generated using pymatgen
data_K24Na3Li5Mg64Fe17Si79(O5F)48
_symmetry_space_group_name_H-M   'P 1'
_cell_length_a   16.07573669
_cell_length_b   18.56880013
_cell_length_c   20.53768346
_cell_angle_alpha   90.01056218
_cell_angle_beta   100.01416102
_cell_angle_gamma   89.98272894
_symmetry_Int_Tables_number   1
_chemical_formula_structural   K24Na3Li5Mg64Fe17Si79(O5F)48
_chemical_formula_sum   'K24 Na3 Li5 Mg64 Fe17 Si79 O240 F48'
_cell_volume   6037.24327747
_cell_formula_units_Z   1
loop_
 _symmetry_equiv_pos_site_id
 _symmetry_equiv_pos_as_xyz
  1  'x, y, z'
loop_
 _atom_site_type_symbol
 _atom_site_label
 _atom_site_symmetry_multiplicity
 _atom_site_fract_x
 _atom_site_fract_y
 _atom_site_fract_z
 _atom_site_occupancy
  K  K0  1  -0.00280626  -0.00133449  -0.00268237  1
  K  K1  1  0.00475282  -0.00308604  0.50582239  1
  K  K2  1  0.00342603  0.50671905  -0.00305438  1
  K  K3  1  -0.00510642  0.50298732  0.50343525  1
  K  K4  1  0.33659824  -0.00009304  -0.00482833  1
  K  K5  1  0.33283237  0.00426542  0.50235254  1
  K  K6  1  0.32662155  0.49427805  -0.00323075  1
  K  K7  1  0.34030000  0.50116628  0.50471890  1
  K  K8  1  0.66619702  -0.00455690  0.00035822  1
  K  K9  1  0.66492997  0.00561623  0.50317154  1
  K  K10  1  0.66458533  0.50037441  -0.00374515  1
  K  K11  1  0.66990673  0.50986938  0.51200441  1
  K  K12  1  0.15719840  0.24978247  -0.00177479  1
  K  K13  1  0.16945572  0.24059486  0.49862942  1
  K  K14  1  0.15867740  0.75506377  0.00027752  1
  K  K15  1  0.16841288  0.76349629  0.50365332  1
  K  K16  1  0.50139423  0.24378359  -0.00067145  1
  K  K17  1  0.50782152  0.23243350  0.50536230  1
  K  K18  1  0.50586324  0.75739009  0.00112950  1
  K  K19  1  0.51232967  0.75544716  0.50782722  1
  K  K20  1  0.83626529  0.24590177  -0.00012447  1
  K  K21  1  0.82526796  0.23857600  0.50785900  1
  K  K22  1  0.82752638  0.75156456  -0.00138609  1
  K  K23  1  0.82492990  0.75835777  0.50965356  1
  Na  Na24  1  -0.00087959  0.75032744  0.24611000  1
  Na  Na25  1  0.33516779  0.92025487  0.25593027  1
  Na  Na26  1  0.33224895  0.08093927  0.75289247  1
  Li  Li27  1  0.83387721  -0.00522294  0.74974971  1
  Li  Li28  1  0.67967063  0.75635967  0.74728918  1
  Li  Li29  1  0.82827128  0.83851324  0.74759068  1
  Li  Li30  1  0.66527560  0.91652130  0.24694470  1
  Li  Li31  1  0.16697976  0.16276975  0.24648992  1
  Mg  Mg32  1  0.49990251  -0.00175742  0.74989080  1
  Mg  Mg33  1  0.16396787  0.50024350  0.75114830  1
  Mg  Mg34  1  0.16845249  0.00278001  0.25117012  1
  Mg  Mg35  1  0.33364652  0.74889311  0.74773001  1
  Mg  Mg36  1  0.33159051  0.24737062  0.25306706  1
  Mg  Mg37  1  -0.00544162  0.75322253  0.74661148  1
  Mg  Mg38  1  0.16757308  0.00014609  0.74959075  1
  Mg  Mg39  1  0.33476626  0.75139352  0.25110903  1
  Mg  Mg40  1  0.83031092  0.50292676  0.74970132  1
  Mg  Mg41  1  0.16714965  0.50176268  0.24869421  1
  Mg  Mg42  1  0.66824245  0.75228194  0.24946217  1
  Mg  Mg43  1  0.66809059  0.24818778  0.24930654  1
  Mg  Mg44  1  0.49984419  0.50094342  0.75132395  1
  Mg  Mg45  1  0.50208408  -0.00082326  0.25450706  1
  Mg  Mg46  1  0.50170031  0.49917442  0.24878900  1
  Mg  Mg47  1  0.66728327  0.24738351  0.75025376  1
  Mg  Mg48  1  0.33265693  0.24873031  0.75395599  1
  Mg  Mg49  1  0.83401421  0.50072389  0.25043900  1
  Mg  Mg50  1  0.00429477  0.24893207  0.25119884  1
  Mg  Mg51  1  -0.00333947  0.24850973  0.75154402  1
  Mg  Mg52  1  0.83196213  -0.00178916  0.24752548  1
  Mg  Mg53  1  0.50253499  0.83553379  0.25229154  1
  Mg  Mg54  1  0.83298057  0.16447539  0.24771106  1
  Mg  Mg55  1  0.66752575  0.41569902  0.75050702  1
  Mg  Mg56  1  0.83236415  0.66735222  0.24749938  1
  Mg  Mg57  1  0.33355294  0.91501229  0.74861687  1
  Mg  Mg58  1  -0.00020434  0.41592138  0.25053559  1
  Mg  Mg59  1  0.66392077  0.58379385  0.24756735  1
  Mg  Mg60  1  0.66744353  0.08176266  0.25034531  1
  Mg  Mg61  1  0.83283314  0.33389194  0.75089578  1
  Mg  Mg62  1  0.50085243  0.16327387  0.25436597  1
  Mg  Mg63  1  0.33457376  0.58453903  0.24857398  1
  Mg  Mg64  1  0.66783082  0.58902306  0.75017980  1
  Mg  Mg65  1  0.50031105  0.16376256  0.75166967  1
  Mg  Mg66  1  0.49938059  0.33316028  0.24927908  1
  Mg  Mg67  1  0.16645279  0.83355502  0.24972265  1
  Mg  Mg68  1  0.82993528  0.83508946  0.24946238  1
  Mg  Mg69  1  0.16564650  0.66678007  0.74983691  1
  Mg  Mg70  1  0.16617624  0.66736702  0.24915194  1
  Mg  Mg71  1  0.83208935  0.33311761  0.24880243  1
  Mg  Mg72  1  -0.00339420  0.58644921  0.74967655  1
  Mg  Mg73  1  0.33489445  0.58350870  0.75100068  1
  Mg  Mg74  1  0.66899902  0.08121953  0.74979926  1
  Mg  Mg75  1  0.50413050  0.66582386  0.75051249  1
  Mg  Mg76  1  0.50297997  0.33274585  0.75174594  1
  Mg  Mg77  1  0.67278769  0.91528838  0.74672091  1
  Mg  Mg78  1  0.83311396  0.16033885  0.74914432  1
  Mg  Mg79  1  0.33476931  0.41571216  0.75327231  1
  Mg  Mg80  1  -0.00054378  0.91597301  0.24800669  1
  Mg  Mg81  1  0.16546992  0.33216574  0.25172451  1
  Mg  Mg82  1  0.66335063  0.41550187  0.24698708  1
  Mg  Mg83  1  -0.00025461  0.58537180  0.24850572  1
  Mg  Mg84  1  -0.00006922  0.41679863  0.75152774  1
  Mg  Mg85  1  0.16588584  0.83549722  0.74675163  1
  Mg  Mg86  1  -0.00357658  0.91790314  0.74787955  1
  Mg  Mg87  1  0.00210785  0.08558825  0.24748965  1
  Mg  Mg88  1  -0.00100874  0.08266824  0.74980641  1
  Mg  Mg89  1  0.33440503  0.08367556  0.25601502  1
  Mg  Mg90  1  0.50508690  0.83087181  0.74813803  1
  Mg  Mg91  1  0.50083851  0.66590841  0.24892451  1
  Mg  Mg92  1  0.82848662  0.67228271  0.74820891  1
  Mg  Mg93  1  0.16571984  0.33467050  0.75252284  1
  Mg  Mg94  1  0.33350549  0.41454439  0.25010013  1
  Mg  Mg95  1  0.16629477  0.16500979  0.75125199  1
  Fe  Fe96  1  0.19170538  0.91927560  0.60648602  1
  Fe  Fe97  1  0.68771472  0.83385980  0.11128758  1
  Fe  Fe98  1  0.13881495  0.42084143  0.89055817  1
  Fe  Fe99  1  0.02720068  0.66537739  0.10763300  1
  Fe  Fe100  1  0.47223310  0.58334582  0.88993484  1
  Fe  Fe101  1  0.96797194  0.16349442  0.89007519  1
  Fe  Fe102  1  0.47518682  0.08200902  0.89122046  1
  Fe  Fe103  1  0.69122539  0.16232584  0.60848639  1
  Fe  Fe104  1  0.51851529  0.41477867  0.10817968  1
  Fe  Fe105  1  0.14277552  0.08238489  0.89080724  1
  Fe  Fe106  1  0.47649787  0.08073904  0.39702282  1
  Fe  Fe107  1  0.69085039  0.16443334  0.11017720  1
  Fe  Fe108  1  0.52102344  0.58405546  0.10900528  1
  Fe  Fe109  1  0.64530216  0.32869134  0.88892959  1
  Fe  Fe110  1  0.68945682  0.67465448  0.60724009  1
  Fe  Fe111  1  0.03189739  0.16860199  0.11232869  1
  Fe  Fe112  1  0.80827079  0.58529641  0.88951142  1
  Si  Si113  1  0.47963419  0.90869547  0.39313325  1
  Si  Si114  1  0.19143674  0.58268979  0.61373284  1
  Si  Si115  1  0.63701571  0.66754660  0.88872353  1
  Si  Si116  1  0.19210969  0.41691093  0.61403462  1
  Si  Si117  1  0.85843773  0.58046858  0.11400317  1
  Si  Si118  1  0.86189701  0.91836453  0.61261631  1
  Si  Si119  1  0.64701626  0.16918162  0.38952609  1
  Si  Si120  1  0.64616616  0.83153961  0.88125068  1
  Si  Si121  1  0.85982854  0.58350633  0.61051757  1
  Si  Si122  1  0.52375785  0.91704395  0.61411232  1
  Si  Si123  1  0.36032843  0.67314141  0.11440419  1
  Si  Si124  1  0.51560017  0.91808993  0.11504800  1
  Si  Si125  1  0.35781681  0.17204250  0.61531206  1
  Si  Si126  1  0.31072996  0.82817031  0.88282124  1
  Si  Si127  1  0.69174434  0.84525249  0.60845516  1
  Si  Si128  1  0.30208993  0.66594944  0.88467746  1
  Si  Si129  1  0.52409313  0.41765574  0.61368773  1
  Si  Si130  1  0.80986724  0.91475621  0.88174893  1
  Si  Si131  1  0.97254447  0.67361825  0.88444146  1
  Si  Si132  1  0.47479036  0.41565996  0.38769597  1
  Si  Si133  1  0.20029134  0.08238513  0.11642770  1
  Si  Si134  1  0.02653876  0.17184836  0.61135599  1
  Si  Si135  1  0.18979449  0.91960228  0.11646355  1
  Si  Si136  1  0.18932290  0.08991558  0.60994575  1
  Si  Si137  1  0.64388354  0.33542105  0.38669960  1
  Si  Si138  1  0.97866301  0.83687722  0.88179882  1
  Si  Si139  1  0.52213950  0.58286084  0.61035011  1
  Si  Si140  1  0.85917703  0.91704839  0.11235284  1
  Si  Si141  1  0.35435223  0.32383875  0.11524015  1
  Si  Si142  1  0.64433424  0.16245656  0.88739791  1
  Si  Si143  1  0.36238026  0.82959129  0.61070814  1
  Si  Si144  1  0.97334544  0.83558713  0.38599795  1
  Si  Si145  1  0.85781169  0.41756187  0.11693837  1
  Si  Si146  1  0.80971107  0.58285921  0.38639507  1
  Si  Si147  1  0.30623189  0.33597412  0.38858281  1
  Si  Si148  1  0.02422794  0.33570432  0.61331309  1
  Si  Si149  1  0.35878232  0.33513837  0.61450431  1
  Si  Si150  1  0.97499316  0.16478843  0.38695005  1
  Si  Si151  1  0.80995030  0.41688881  0.38635652  1
  Si  Si152  1  0.13912772  0.58312031  0.38738611  1
  Si  Si153  1  0.97238431  0.66718656  0.38597762  1
  Si  Si154  1  0.80917372  0.91635364  0.38707591  1
  Si  Si155  1  0.13784013  0.59102418  0.88533500  1
  Si  Si156  1  0.80124841  0.07746563  0.88553857  1
  Si  Si157  1  0.47449708  0.58249497  0.38695269  1
  Si  Si158  1  0.51772671  0.08089924  0.61267408  1
  Si  Si159  1  0.97476543  0.33145823  0.38663520  1
  Si  Si160  1  0.19466271  0.41621143  0.11655500  1
  Si  Si161  1  0.52246321  0.08089073  0.11616239  1
  Si  Si162  1  0.97038960  0.33471784  0.88692300  1
  Si  Si163  1  0.35636067  0.66425613  0.61284010  1
  Si  Si164  1  0.02583693  0.66420249  0.61308738  1
  Si  Si165  1  0.69306244  0.33646226  0.11255929  1
  Si  Si166  1  0.30668798  0.66341123  0.38738951  1
  Si  Si167  1  0.80965060  0.41774484  0.88653245  1
  Si  Si168  1  0.02352455  0.34001568  0.11416433  1
  Si  Si169  1  0.86344292  0.08154536  0.11207383  1
  Si  Si170  1  0.13929973  0.41807517  0.38720329  1
  Si  Si171  1  0.47866810  0.91043224  0.88612960  1
  Si  Si172  1  0.30469937  0.17311616  0.88982544  1
  Si  Si173  1  0.86623214  0.08237505  0.60898908  1
  Si  Si174  1  0.35427262  0.83396226  0.11772108  1
  Si  Si175  1  0.64414507  0.82874311  0.38806934  1
  Si  Si176  1  0.64314171  0.66402068  0.38647269  1
  Si  Si177  1  0.36048276  0.16233079  0.11961488  1
  Si  Si178  1  0.81088436  0.08190822  0.38696557  1
  Si  Si179  1  0.14247348  0.91576470  0.38668129  1
  Si  Si180  1  0.47568009  0.41255200  0.88730950  1
  Si  Si181  1  0.02114050  0.83006245  0.60899494  1
  Si  Si182  1  0.02627215  0.83980561  0.11171432  1
  Si  Si183  1  0.30871843  0.33484990  0.88770673  1
  Si  Si184  1  0.30700938  0.82783054  0.38745396  1
  Si  Si185  1  0.14000461  0.08170813  0.38615284  1
  Si  Si186  1  0.69131097  0.33587199  0.61074202  1
  Si  Si187  1  0.69352757  0.66192184  0.11271566  1
  Si  Si188  1  0.14737021  0.91325063  0.88512404  1
  Si  Si189  1  0.20108995  0.58311713  0.11242962  1
  Si  Si190  1  0.30505208  0.16916198  0.39068886  1
  Si  Si191  1  0.85862409  0.41796556  0.61371428  1
  O  O192  1  0.29029962  0.10145072  0.09108652  1
  O  O193  1  0.26753084  0.13396712  0.58399860  1
  O  O194  1  0.28716308  0.61255531  0.08753238  1
  O  O195  1  0.26678498  0.62226735  0.58235058  1
  O  O196  1  0.60121332  0.10029141  0.08009433  1
  O  O197  1  0.59019038  0.11236213  0.57486087  1
  O  O198  1  0.62665324  0.59925304  0.08457059  1
  O  O199  1  0.58903125  0.62159025  0.57178634  1
  O  O200  1  0.94939368  0.09865756  0.08368100  1
  O  O201  1  0.94221550  0.12643321  0.57855875  1
  O  O202  1  0.93866259  0.59909190  0.07973805  1
  O  O203  1  0.94332293  0.61580672  0.58206783  1
  O  O204  1  0.10572831  0.37579821  0.08733727  1
  O  O205  1  0.10219182  0.37620872  0.58346409  1
  O  O206  1  0.10849545  0.87111114  0.08104064  1
  O  O207  1  0.09115774  0.86769534  0.57207165  1
  O  O208  1  0.43373737  0.34405203  0.08090059  1
  O  O209  1  0.43507036  0.37495848  0.58351255  1
  O  O210  1  0.43324259  0.86541929  0.08507448  1
  O  O211  1  0.44681990  0.86089486  0.58416353  1
  O  O212  1  0.78523466  0.35825610  0.09001227  1
  O  O213  1  0.76898164  0.37884506  0.58204059  1
  O  O214  1  0.78476005  0.86425316  0.07759450  1
  O  O215  1  0.76721404  0.88954343  0.57867898  1
  O  O216  1  0.27113095  0.37535890  0.08830299  1
  O  O217  1  0.26958442  0.37824801  0.58343394  1
  O  O218  1  0.27356049  0.88690536  0.09044150  1
  O  O219  1  0.28062903  0.87282936  0.57282548  1
  O  O220  1  0.62537494  0.39825092  0.08422770  1
  O  O221  1  0.60324581  0.38262396  0.58346952  1
  O  O222  1  0.59255533  0.89283517  0.07885418  1
  O  O223  1  0.60481859  0.89336076  0.58028036  1
  O  O224  1  0.94501766  0.39726588  0.08980128  1
  O  O225  1  0.93639895  0.37909608  0.58293553  1
  O  O226  1  0.94771432  0.89605532  0.08583205  1
  O  O227  1  0.92851753  0.86651889  0.57978956  1
  O  O228  1  0.13173952  0.14082692  0.08304407  1
  O  O229  1  0.10534922  0.13973854  0.57899387  1
  O  O230  1  0.12318785  0.63016127  0.07473181  1
  O  O231  1  0.10395642  0.62528172  0.58279041  1
  O  O232  1  0.44626368  0.14049343  0.09115308  1
  O  O233  1  0.43100672  0.12843200  0.58483086  1
  O  O234  1  0.44393173  0.66039264  0.08303724  1
  O  O235  1  0.42778638  0.61878771  0.58221569  1
  O  O236  1  0.78927300  0.13673559  0.07978067  1
  O  O237  1  0.77822350  0.11766894  0.57137756  1
  O  O238  1  0.78359626  0.63868305  0.08869290  1
  O  O239  1  0.77760673  0.62526648  0.57271155  1
  O  O240  1  0.06333427  0.12259576  0.41726284  1
  O  O241  1  0.04940710  0.09978478  0.92860898  1
  O  O242  1  0.06372191  0.62671242  0.41650008  1
  O  O243  1  0.05313584  0.61973286  0.91195390  1
  O  O244  1  0.39015242  0.13229760  0.43029179  1
  O  O245  1  0.37737546  0.11553707  0.92040297  1
  O  O246  1  0.39684958  0.62175647  0.41740536  1
  O  O247  1  0.36839872  0.60603883  0.91767034  1
  O  O248  1  0.73900804  0.12897254  0.41600245  1
  O  O249  1  0.71019574  0.09447837  0.90969552  1
  O  O250  1  0.72919476  0.61703850  0.41589049  1
  O  O251  1  0.71164572  0.61312530  0.92315104  1
  O  O252  1  0.23189953  0.38215372  0.41773199  1
  O  O253  1  0.22882482  0.35793926  0.92169429  1
  O  O254  1  0.23162488  0.87288953  0.41655975  1
  O  O255  1  0.22597920  0.85498544  0.91069421  1
  O  O256  1  0.56461981  0.37399962  0.41604295  1
  O  O257  1  0.54188494  0.34964788  0.91622680  1
  O  O258  1  0.56753820  0.86238781  0.42272399  1
  O  O259  1  0.56241653  0.85886711  0.91198054  1
  O  O260  1  0.89808200  0.37275445  0.41675287  1
  O  O261  1  0.87880780  0.35258407  0.90963764  1
  O  O262  1  0.89944651  0.87578899  0.42030434  1
  O  O263  1  0.89689641  0.86816668  0.91168682  1
  O  O264  1  0.06426219  0.37387798  0.41659045  1
  O  O265  1  0.03770962  0.39672230  0.91834516  1
  O  O266  1  0.06556736  0.87405189  0.41625305  1
  O  O267  1  0.06323781  0.88398145  0.91426206  1
  O  O268  1  0.39741899  0.37619243  0.41847219  1
  O  O269  1  0.38446417  0.39371210  0.91124617  1
  O  O270  1  0.40003905  0.86248854  0.41670834  1
  O  O271  1  0.39535059  0.87482814  0.91306846  1
  O  O272  1  0.73053886  0.38166882  0.41639550  1
  O  O273  1  0.72577496  0.40035723  0.91787678  1
  O  O274  1  0.73315212  0.87292119  0.41606373  1
  O  O275  1  0.72977574  0.88019138  0.91301825  1
  O  O276  1  0.22434832  0.12887018  0.41724409  1
  O  O277  1  0.22104700  0.15628740  0.92177576  1
  O  O278  1  0.23177723  0.61935765  0.41750150  1
  O  O279  1  0.20995460  0.65352628  0.90816253  1
  O  O280  1  0.57799911  0.13254468  0.42707900  1
  O  O281  1  0.56256356  0.14715926  0.92206004  1
  O  O282  1  0.56400262  0.62446505  0.41535502  1
  O  O283  1  0.55238409  0.65374747  0.92136418  1
  O  O284  1  0.90085860  0.12264992  0.41813065  1
  O  O285  1  0.87008493  0.13443540  0.92213887  1
  O  O286  1  0.89709485  0.62651062  0.41889240  1
  O  O287  1  0.89510084  0.65170605  0.92046465  1
  O  O288  1  0.17442747  0.00112492  0.08617100  1
  O  O289  1  0.17913845  0.01357374  0.57098796  1
  O  O290  1  0.18948937  0.49830181  0.08719495  1
  O  O291  1  0.18328645  0.49971740  0.58349254  1
  O  O292  1  0.48560637  0.00079323  0.09064336  1
  O  O293  1  0.49382997  -0.00222900  0.58641570  1
  O  O294  1  0.47111169  0.49996727  0.07429705  1
  O  O295  1  0.51017283  0.49869815  0.58163466  1
  O  O296  1  0.83331746  -0.00073945  0.08691716  1
  O  O297  1  0.87223200  -0.00084551  0.58079928  1
  O  O298  1  0.82610136  0.49782663  0.09045323  1
  O  O299  1  0.85355547  0.49921022  0.58179804  1
  O  O300  1  0.00127413  0.26325556  0.07979729  1
  O  O301  1  0.01385029  0.25495869  0.58058025  1
  O  O302  1  0.00299103  0.76137123  0.07870868  1
  O  O303  1  0.01327320  0.74506986  0.58157991  1
  O  O304  1  0.32524556  0.24138379  0.09104111  1
  O  O305  1  0.35024408  0.25420130  0.58193316  1
  O  O306  1  0.32371439  0.75352725  0.08801956  1
  O  O307  1  0.35126029  0.74538033  0.58153121  1
  O  O308  1  0.66327371  0.25898533  0.08091030  1
  O  O309  1  0.68040120  0.25854608  0.57422364  1
  O  O310  1  0.66429351  0.73907408  0.07966865  1
  O  O311  1  0.68027525  0.76824475  0.56951460  1
  O  O312  1  0.14967415  -0.00141894  0.41715603  1
  O  O313  1  0.17925250  -0.01181622  0.92005787  1
  O  O314  1  0.14015917  0.50043904  0.41826852  1
  O  O315  1  0.16764299  0.51565823  0.92102342  1
  O  O316  1  0.48481146  -0.01455897  0.43119287  1
  O  O317  1  0.49688153  -0.01342146  0.92350006  1
  O  O318  1  0.48206162  0.49919658  0.41711697  1
  O  O319  1  0.50756437  0.49033310  0.91784006  1
  O  O320  1  0.81399116  -0.00048117  0.41792306  1
  O  O321  1  0.82705377  -0.00457643  0.91478651  1
  O  O322  1  0.82372658  0.49966566  0.41591470  1
  O  O323  1  0.85007489  0.49338048  0.91705344  1
  O  O324  1  0.30387215  0.25465543  0.41871828  1
  O  O325  1  0.34143583  0.25489566  0.91464294  1
  O  O326  1  0.30893364  0.74488075  0.41910459  1
  O  O327  1  0.33234538  0.74678774  0.91226942  1
  O  O328  1  0.65971337  0.25408603  0.41704860  1
  O  O329  1  0.68827130  0.23765382  0.91666889  1
  O  O330  1  0.65750687  0.74510370  0.41836749  1
  O  O331  1  0.66873380  0.75079652  0.91083980  1
  O  O332  1  0.98283753  0.24871940  0.41645507  1
  O  O333  1  1.00229337  0.25757873  0.91797011  1
  O  O334  1  0.98082475  0.75093539  0.41334051  1
  O  O335  1  1.00185501  0.75528860  0.91098213  1
  O  O336  1  0.21513561  0.08079334  0.19689199  1
  O  O337  1  0.20067083  0.08512562  0.68916545  1
  O  O338  1  0.21359304  0.58294883  0.19417773  1
  O  O339  1  0.20872386  0.58262347  0.69383095  1
  O  O340  1  0.54518150  0.08409423  0.19711390  1
  O  O341  1  0.54170640  0.08313799  0.69259851  1
  O  O342  1  0.54294548  0.58268256  0.20259389  1
  O  O343  1  0.54208202  0.58272422  0.69056183  1
  O  O344  1  0.87817572  0.08341399  0.19424121  1
  O  O345  1  0.88118568  0.08713490  0.68832968  1
  O  O346  1  0.87753484  0.58127759  0.19578047  1
  O  O347  1  0.87752895  0.58290999  0.69074867  1
  O  O348  1  0.04337669  0.33694750  0.19578433  1
  O  O349  1  0.04197093  0.33512764  0.69303030  1
  O  O350  1  0.04811470  0.84099008  0.19200901  1
  O  O351  1  0.04285763  0.83203719  0.68945415  1
  O  O352  1  0.37411779  0.33082024  0.19679891  1
  O  O353  1  0.37544939  0.33580266  0.69446372  1
  O  O354  1  0.38060264  0.82787824  0.19699882  1
  O  O355  1  0.37579641  0.82972524  0.69122838  1
  O  O356  1  0.71093404  0.33395856  0.19519117  1
  O  O357  1  0.71114741  0.33498496  0.69102855  1
  O  O358  1  0.71063924  0.83311839  0.20199871  1
  O  O359  1  0.70836271  0.83911516  0.68717518  1
  O  O360  1  0.21050356  0.41669623  0.19765815  1
  O  O361  1  0.21042597  0.41711135  0.69372946  1
  O  O362  1  0.20173448  0.91800384  0.19606234  1
  O  O363  1  0.21114442  0.91546847  0.69740449  1
  O  O364  1  0.54226142  0.41515740  0.20198206  1
  O  O365  1  0.54034430  0.41749167  0.69352114  1
  O  O366  1  0.53566201  0.91606314  0.19545955  1
  O  O367  1  0.54338749  0.91452287  0.69400658  1
  O  O368  1  0.87736266  0.41690380  0.19830384  1
  O  O369  1  0.87678958  0.41752152  0.69377333  1
  O  O370  1  0.87689262  0.91568508  0.19378919  1
  O  O371  1  0.88101472  0.91630764  0.69113842  1
  O  O372  1  0.04597605  0.16970354  0.20350429  1
  O  O373  1  0.04370558  0.17201925  0.69095969  1
  O  O374  1  0.05158465  0.65732537  0.19805305  1
  O  O375  1  0.04467298  0.66481308  0.69315333  1
  O  O376  1  0.37799931  0.16732691  0.20019643  1
  O  O377  1  0.37800208  0.17630969  0.69414143  1
  O  O378  1  0.37656454  0.66792153  0.19614596  1
  O  O379  1  0.37182396  0.66490811  0.69261524  1
  O  O380  1  0.71226140  0.16611157  0.20285574  1
  O  O381  1  0.71123293  0.16563104  0.69927052  1
  O  O382  1  0.70987542  0.66452209  0.19513974  1
  O  O383  1  0.70878851  0.66743256  0.69642693  1
  O  O384  1  0.11988776  0.07982694  0.30717894  1
  O  O385  1  0.12168944  0.08289067  0.79785704  1
  O  O386  1  0.12503496  0.58131892  0.30756709  1
  O  O387  1  0.12080505  0.58546873  0.80376266  1
  O  O388  1  0.45791164  0.08377801  0.30616499  1
  O  O389  1  0.46552767  0.08045312  0.80115978  1
  O  O390  1  0.45473531  0.58215279  0.30704799  1
  O  O391  1  0.45365273  0.58315523  0.79726169  1
  O  O392  1  0.79487964  0.08192495  0.30708367  1
  O  O393  1  0.78905945  0.08164421  0.80535868  1
  O  O394  1  0.79114447  0.58251548  0.30632616  1
  O  O395  1  0.78960346  0.58472568  0.79759419  1
  O  O396  1  0.28999152  0.33674648  0.30850086  1
  O  O397  1  0.28846581  0.33553530  0.80574619  1
  O  O398  1  0.28660693  0.82479174  0.30836824  1
  O  O399  1  0.29143666  0.82863095  0.80222554  1
  O  O400  1  0.62570589  0.33391909  0.30667492  1
  O  O401  1  0.62370522  0.33256745  0.79640859  1
  O  O402  1  0.62206451  0.82698521  0.30902777  1
  O  O403  1  0.62445974  0.83524136  0.80158723  1
  O  O404  1  0.95625766  0.33436060  0.30663593  1
  O  O405  1  0.95596613  0.33525467  0.80458405  1
  O  O406  1  0.95273271  0.84065947  0.30699140  1
  O  O407  1  0.96320344  0.83517136  0.80219090  1
  O  O408  1  0.12327066  0.41915891  0.30714096  1
  O  O409  1  0.12086848  0.41850190  0.79817636  1
  O  O410  1  0.12377740  0.91577395  0.30682872  1
  O  O411  1  0.12373397  0.91375380  0.80424757  1
  O  O412  1  0.45465884  0.41578926  0.30770917  1
  O  O413  1  0.45711277  0.41546719  0.80486046  1
  O  O414  1  0.46941428  0.91393059  0.31373567  1
  O  O415  1  0.45795512  0.91164066  0.80506458  1
  O  O416  1  0.79194037  0.41612319  0.30628536  1
  O  O417  1  0.79029675  0.41801955  0.80405139  1
  O  O418  1  0.79677448  0.91807658  0.30803401  1
  O  O419  1  0.78885229  0.91636185  0.80299976  1
  O  O420  1  0.29431743  0.16951977  0.31107553  1
  O  O421  1  0.28365013  0.17531843  0.80887669  1
  O  O422  1  0.29080356  0.66313345  0.30714736  1
  O  O423  1  0.28751531  0.66600170  0.80299911  1
  O  O424  1  0.62517001  0.16832914  0.30917871  1
  O  O425  1  0.62280429  0.16547757  0.80555276  1
  O  O426  1  0.62519734  0.66533961  0.30664374  1
  O  O427  1  0.61806173  0.66046750  0.80830827  1
  O  O428  1  0.95523969  0.16684784  0.30720880  1
  O  O429  1  0.95342662  0.16586562  0.79735626  1
  O  O430  1  0.95147287  0.65907623  0.30725747  1
  O  O431  1  0.95622666  0.66937757  0.80323311  1
  F  F432  1  0.04660193  0.00029779  0.20356173  1
  F  F433  1  0.04554126  -0.00236782  0.69798499  1
  F  F434  1  0.04644258  0.49820299  0.20427944  1
  F  F435  1  0.04352633  0.50268655  0.69824669  1
  F  F436  1  0.38387040  0.00808019  0.20491385  1
  F  F437  1  0.38262399  -0.01191118  0.69657538  1
  F  F438  1  0.37750046  0.49843615  0.20498600  1
  F  F439  1  0.37490615  0.49720209  0.69916990  1
  F  F440  1  0.71437785  0.00297584  0.20222822  1
  F  F441  1  0.70537537  0.00119479  0.69616946  1
  F  F442  1  0.71398014  0.49919440  0.20581761  1
  F  F443  1  0.71022449  0.49743044  0.69754567  1
  F  F444  1  0.21319792  0.25448759  0.20647505  1
  F  F445  1  0.21130754  0.25345945  0.70128314  1
  F  F446  1  0.21403421  0.74916752  0.20195232  1
  F  F447  1  0.21089454  0.74766839  0.69824787  1
  F  F448  1  0.54538670  0.24858983  0.20658512  1
  F  F449  1  0.54322952  0.24833974  0.69928159  1
  F  F450  1  0.54570396  0.74965239  0.20501384  1
  F  F451  1  0.53502467  0.74696778  0.69650452  1
  F  F452  1  0.88111322  0.25096085  0.20507920  1
  F  F453  1  0.87838131  0.25552614  0.69739977  1
  F  F454  1  0.86589126  0.75055569  0.20035067  1
  F  F455  1  0.88336594  0.74137414  0.69179270  1
  F  F456  1  0.28228580  0.00958913  0.30871757  1
  F  F457  1  0.28491839  -0.01153496  0.80184025  1
  F  F458  1  0.28806640  0.50036367  0.29959546  1
  F  F459  1  0.28578602  0.50048079  0.79581957  1
  F  F460  1  0.62271557  0.00406161  0.30151698  1
  F  F461  1  0.62174165  -0.00319018  0.79467503  1
  F  F462  1  0.62468005  0.49890427  0.30252647  1
  F  F463  1  0.62130991  0.50041840  0.79359955  1
  F  F464  1  0.95488837  0.00094244  0.29663302  1
  F  F465  1  0.95893263  -0.00022055  0.79655430  1
  F  F466  1  0.95643833  0.49920686  0.30052779  1
  F  F467  1  0.95401516  0.50207700  0.79445544  1
  F  F468  1  0.11729339  0.26395095  0.30886037  1
  F  F469  1  0.11849743  0.25185167  0.79531901  1
  F  F470  1  0.13338115  0.74934522  0.30314061  1
  F  F471  1  0.11941584  0.75075823  0.79255719  1
  F  F472  1  0.45538972  0.25262363  0.30173500  1
  F  F473  1  0.45462894  0.25124720  0.79699504  1
  F  F474  1  0.45559052  0.74657754  0.30131283  1
  F  F475  1  0.45289895  0.74924836  0.79552546  1
  F  F476  1  0.79100980  0.25243962  0.30101087  1
  F  F477  1  0.79005168  0.25069539  0.79485772  1
  F  F478  1  0.78919152  0.74612011  0.30279135  1
  F  F479  1  0.79571763  0.75421644  0.79617261  1
