# generated using pymatgen
data_K24Na3Li5Mg64Fe17Si79(O5F)48
_symmetry_space_group_name_H-M   'P 1'
_cell_length_a   16.08847610
_cell_length_b   18.58462313
_cell_length_c   20.54915715
_cell_angle_alpha   89.99566220
_cell_angle_beta   100.01257906
_cell_angle_gamma   90.00771303
_symmetry_Int_Tables_number   1
_chemical_formula_structural   K24Na3Li5Mg64Fe17Si79(O5F)48
_chemical_formula_sum   'K24 Na3 Li5 Mg64 Fe17 Si79 O240 F48'
_cell_volume   6050.58425378
_cell_formula_units_Z   1
loop_
 _symmetry_equiv_pos_site_id
 _symmetry_equiv_pos_as_xyz
  1  'x, y, z'
loop_
 _atom_site_type_symbol
 _atom_site_label
 _atom_site_symmetry_multiplicity
 _atom_site_fract_x
 _atom_site_fract_y
 _atom_site_fract_z
 _atom_site_occupancy
  K  K0  1  0.01284146  0.00411658  0.00788452  1
  K  K1  1  0.00921627  0.00272025  0.49875158  1
  K  K2  1  0.01198022  0.49821848  -0.00715195  1
  K  K3  1  0.00129626  0.50834892  0.51178711  1
  K  K4  1  0.32596809  -0.00318558  0.00268688  1
  K  K5  1  0.32647652  -0.00204032  0.49620546  1
  K  K6  1  0.33216863  0.49284466  -0.01500239  1
  K  K7  1  0.32961034  0.49412498  0.51235195  1
  K  K8  1  0.66810039  0.00092668  0.00164834  1
  K  K9  1  0.65718435  0.00265866  0.49520143  1
  K  K10  1  0.65289712  0.50228035  -0.00920473  1
  K  K11  1  0.67537048  0.49206769  0.50652366  1
  K  K12  1  0.15123314  0.24962645  -0.01288836  1
  K  K13  1  0.18328290  0.24759157  0.50877851  1
  K  K14  1  0.17309903  0.75959228  0.00519075  1
  K  K15  1  0.17404741  0.75882785  0.49679467  1
  K  K16  1  0.48717204  0.24523580  -0.01128238  1
  K  K17  1  0.50182605  0.24501571  0.50599907  1
  K  K18  1  0.49087314  0.73911554  -0.00576230  1
  K  K19  1  0.48761047  0.75472451  0.50075970  1
  K  K20  1  0.84553655  0.24955016  -0.00752463  1
  K  K21  1  0.82512394  0.24442463  0.50676127  1
  K  K22  1  0.83738346  0.75431048  0.00294611  1
  K  K23  1  0.83727352  0.75403921  0.49727795  1
  Na  Na24  1  0.00764291  0.75631343  0.25019521  1
  Na  Na25  1  0.66916380  0.58163110  0.25478786  1
  Na  Na26  1  0.49721948  0.82914014  0.74874353  1
  Li  Li27  1  0.33207513  0.25098080  0.75076001  1
  Li  Li28  1  0.16779017  0.49676355  0.75193674  1
  Li  Li29  1  0.00778155  0.91166253  0.24570820  1
  Li  Li30  1  0.32591422  0.91519369  0.24848134  1
  Li  Li31  1  0.16325268  0.84160237  0.24562315  1
  Mg  Mg32  1  0.16701293  0.50354427  0.24920206  1
  Mg  Mg33  1  0.00114863  0.74942595  0.75046276  1
  Mg  Mg34  1  0.83367182  0.50181780  0.24976016  1
  Mg  Mg35  1  0.66703831  0.25130998  0.74985503  1
  Mg  Mg36  1  0.83256938  0.49950943  0.74707860  1
  Mg  Mg37  1  0.32990530  0.75615822  0.24523852  1
  Mg  Mg38  1  0.83286684  -0.00055705  0.75071182  1
  Mg  Mg39  1  0.50237493  0.50105180  0.25236794  1
  Mg  Mg40  1  0.83813680  -0.00223069  0.25172609  1
  Mg  Mg41  1  0.66709979  0.24813749  0.25345346  1
  Mg  Mg42  1  0.49602403  0.49589794  0.75149408  1
  Mg  Mg43  1  0.66770403  0.75067909  0.25454401  1
  Mg  Mg44  1  0.49739552  -0.00200648  0.25545883  1
  Mg  Mg45  1  -0.00123358  0.24976577  0.74770527  1
  Mg  Mg46  1  0.33354124  0.24920603  0.25281260  1
  Mg  Mg47  1  0.16679942  0.00241258  0.74685982  1
  Mg  Mg48  1  0.16568514  -0.00376847  0.24717565  1
  Mg  Mg49  1  0.49921815  -0.00108480  0.75080996  1
  Mg  Mg50  1  0.33218133  0.74674501  0.74967418  1
  Mg  Mg51  1  0.66271536  0.74735643  0.75072171  1
  Mg  Mg52  1  0.00157751  0.24976659  0.24784374  1
  Mg  Mg53  1  0.50300872  0.66733848  0.25208899  1
  Mg  Mg54  1  0.33467678  0.58686090  0.24930253  1
  Mg  Mg55  1  0.00066172  0.41746382  0.24886842  1
  Mg  Mg56  1  0.17044172  0.83406111  0.74874219  1
  Mg  Mg57  1  0.32994317  0.41211454  0.75259140  1
  Mg  Mg58  1  0.16744574  0.33540776  0.25011791  1
  Mg  Mg59  1  0.83341085  0.33574208  0.75001026  1
  Mg  Mg60  1  0.16620693  0.33413055  0.74786939  1
  Mg  Mg61  1  0.66797318  0.08371716  0.25472583  1
  Mg  Mg62  1  0.50203694  0.33446303  0.25367851  1
  Mg  Mg63  1  0.33650434  0.91501206  0.75057840  1
  Mg  Mg64  1  0.49980064  0.83460958  0.25209345  1
  Mg  Mg65  1  0.33537086  0.08541203  0.75080230  1
  Mg  Mg66  1  0.83233058  0.66580995  0.74858148  1
  Mg  Mg67  1  0.83759879  0.83444691  0.25121875  1
  Mg  Mg68  1  0.83454646  0.33419437  0.24992070  1
  Mg  Mg69  1  0.83161802  0.83265995  0.75036487  1
  Mg  Mg70  1  0.33406476  0.41729255  0.25214420  1
  Mg  Mg71  1  0.00037263  0.58750202  0.24958004  1
  Mg  Mg72  1  0.16713575  0.67214018  0.24807905  1
  Mg  Mg73  1  0.66861650  0.41588834  0.25221527  1
  Mg  Mg74  1  0.49419486  0.66226520  0.74928771  1
  Mg  Mg75  1  -0.00048249  0.08583794  0.74842067  1
  Mg  Mg76  1  0.66575354  0.08365931  0.75206803  1
  Mg  Mg77  1  0.66371488  0.91447109  0.75008850  1
  Mg  Mg78  1  -0.00001227  0.41720256  0.74459819  1
  Mg  Mg79  1  0.16704114  0.16421906  0.24834272  1
  Mg  Mg80  1  0.50190766  0.16441928  0.25634066  1
  Mg  Mg81  1  0.66297090  0.58258232  0.75015757  1
  Mg  Mg82  1  0.33124242  0.08192043  0.25153225  1
  Mg  Mg83  1  0.49900663  0.33093291  0.75119272  1
  Mg  Mg84  1  0.83286468  0.16556720  0.74742411  1
  Mg  Mg85  1  0.16776470  0.66165558  0.74945400  1
  Mg  Mg86  1  0.66613028  0.41375124  0.74878555  1
  Mg  Mg87  1  0.00175455  0.58250957  0.74754341  1
  Mg  Mg88  1  0.32833063  0.57989029  0.74931911  1
  Mg  Mg89  1  0.00070918  0.91611323  0.74944111  1
  Mg  Mg90  1  0.00232830  0.08248471  0.24746461  1
  Mg  Mg91  1  0.83479454  0.66901375  0.25127159  1
  Mg  Mg92  1  0.16715262  0.16823968  0.74974480  1
  Mg  Mg93  1  0.49891350  0.16636392  0.75389916  1
  Mg  Mg94  1  0.66817001  0.91528818  0.25502401  1
  Mg  Mg95  1  0.83483200  0.16434052  0.24927742  1
  Fe  Fe96  1  0.02540484  0.16964771  0.10918741  1
  Fe  Fe97  1  0.64634693  0.83281596  0.39443490  1
  Fe  Fe98  1  0.01994695  0.16494211  0.60735865  1
  Fe  Fe99  1  0.30388622  0.67125555  0.89078523  1
  Fe  Fe100  1  0.14421457  0.41788755  0.88765359  1
  Fe  Fe101  1  0.30241637  0.16614426  0.39032561  1
  Fe  Fe102  1  0.18925915  0.91460232  0.10775101  1
  Fe  Fe103  1  0.64234331  0.16639094  0.39404597  1
  Fe  Fe104  1  0.13603533  0.58827334  0.89056868  1
  Fe  Fe105  1  0.19149655  0.41179793  0.60911224  1
  Fe  Fe106  1  0.64916965  0.33172313  0.89045171  1
  Fe  Fe107  1  0.47001253  0.57797212  0.88987684  1
  Fe  Fe108  1  0.35410318  0.83202649  0.60824157  1
  Fe  Fe109  1  0.96801351  0.16500625  0.88802158  1
  Fe  Fe110  1  0.69684909  0.33153855  0.60779930  1
  Fe  Fe111  1  0.47760335  0.08189722  0.89237112  1
  Fe  Fe112  1  0.86399617  0.42306953  0.60692172  1
  Si  Si113  1  0.47640596  0.58750993  0.38720963  1
  Si  Si114  1  0.52262731  0.58151254  0.61381231  1
  Si  Si115  1  0.69424244  0.16541549  0.11550667  1
  Si  Si116  1  0.30531102  0.32552089  0.88703518  1
  Si  Si117  1  0.36100427  0.33514727  0.11705048  1
  Si  Si118  1  0.52835153  0.08366674  0.11823951  1
  Si  Si119  1  0.52837085  0.41603057  0.11638677  1
  Si  Si120  1  0.30378468  0.15967798  0.88737808  1
  Si  Si121  1  0.69375436  0.33146891  0.11624520  1
  Si  Si122  1  0.64754169  0.66423760  0.39095260  1
  Si  Si123  1  0.81645991  0.92001758  0.39018726  1
  Si  Si124  1  0.64561498  0.16576750  0.88839386  1
  Si  Si125  1  0.19333801  0.58597861  0.11390125  1
  Si  Si126  1  0.47181894  0.91172003  0.38802009  1
  Si  Si127  1  0.36492835  0.33202943  0.61359224  1
  Si  Si128  1  0.64428468  0.82900431  0.88572860  1
  Si  Si129  1  0.68857046  0.83207388  0.61540483  1
  Si  Si130  1  0.52663452  0.07996995  0.61579534  1
  Si  Si131  1  0.02382411  0.83791527  0.61373493  1
  Si  Si132  1  0.14209379  0.58674948  0.38454811  1
  Si  Si133  1  0.19457612  0.41939806  0.11559046  1
  Si  Si134  1  0.52762962  0.91838304  0.11643144  1
  Si  Si135  1  0.02269117  0.83262154  0.10853300  1
  Si  Si136  1  0.47508699  0.42203142  0.38667617  1
  Si  Si137  1  0.85554525  0.58621207  0.11391130  1
  Si  Si138  1  0.97618251  0.83468444  0.88449268  1
  Si  Si139  1  0.97267323  0.16834812  0.38332378  1
  Si  Si140  1  0.18818052  0.92155742  0.61063277  1
  Si  Si141  1  0.19611488  0.08796836  0.61193333  1
  Si  Si142  1  0.97464694  0.83382827  0.38572828  1
  Si  Si143  1  0.13851139  0.08031836  0.88584709  1
  Si  Si144  1  0.02366751  0.33066861  0.60776261  1
  Si  Si145  1  0.18737245  0.58249894  0.60987569  1
  Si  Si146  1  0.85657188  0.07893063  0.11169857  1
  Si  Si147  1  0.14060088  0.42088795  0.38461935  1
  Si  Si148  1  0.80624437  0.58787387  0.88303030  1
  Si  Si149  1  0.96704279  0.66983456  0.88543354  1
  Si  Si150  1  0.36543320  0.16541190  0.61676814  1
  Si  Si151  1  0.36253302  0.66505355  0.11417572  1
  Si  Si152  1  0.85306743  0.91051994  0.61496350  1
  Si  Si153  1  0.69115989  0.83381377  0.11618509  1
  Si  Si154  1  0.64390592  0.33949220  0.38844917  1
  Si  Si155  1  0.69132718  0.67023495  0.11740246  1
  Si  Si156  1  0.85591918  0.42137135  0.11486897  1
  Si  Si157  1  0.81541039  0.58139023  0.38675042  1
  Si  Si158  1  0.52824038  0.91804018  0.61283436  1
  Si  Si159  1  0.97069709  0.33766058  0.88724704  1
  Si  Si160  1  0.02293453  0.34187090  0.11231469  1
  Si  Si161  1  0.64064274  0.66480862  0.88802242  1
  Si  Si162  1  0.13754885  0.91584817  0.38224378  1
  Si  Si163  1  0.52711061  0.41721703  0.61235292  1
  Si  Si164  1  0.68558044  0.66869715  0.61466756  1
  Si  Si165  1  0.47417103  0.40581601  0.88998761  1
  Si  Si166  1  0.85427557  0.07365605  0.61127984  1
  Si  Si167  1  0.02596461  0.67295402  0.61286228  1
  Si  Si168  1  0.97529253  0.66737131  0.38634772  1
  Si  Si169  1  0.14390615  0.91605592  0.88321480  1
  Si  Si170  1  0.36639222  0.16927439  0.11745765  1
  Si  Si171  1  0.30239537  0.83448499  0.38048590  1
  Si  Si172  1  0.85566949  0.91301244  0.11436893  1
  Si  Si173  1  0.31357171  0.83890948  0.88775337  1
  Si  Si174  1  0.81318963  0.41710837  0.38563985  1
  Si  Si175  1  0.30939676  0.33871134  0.38864587  1
  Si  Si176  1  0.13426060  0.08051084  0.38674385  1
  Si  Si177  1  0.36537048  0.83081371  0.11158213  1
  Si  Si178  1  0.80112850  0.07773109  0.88678529  1
  Si  Si179  1  0.19781910  0.08800608  0.10916615  1
  Si  Si180  1  0.97748902  0.33299716  0.38436272  1
  Si  Si181  1  0.48118121  0.91719824  0.88850474  1
  Si  Si182  1  0.02473753  0.66430955  0.11262153  1
  Si  Si183  1  0.52646211  0.58174444  0.11700978  1
  Si  Si184  1  0.80768243  0.91331888  0.88598305  1
  Si  Si185  1  0.69077911  0.16017533  0.61334428  1
  Si  Si186  1  0.47098602  0.07840864  0.39222759  1
  Si  Si187  1  0.35430094  0.66286772  0.60839310  1
  Si  Si188  1  0.80798422  0.42575909  0.88744830  1
  Si  Si189  1  0.81325161  0.08328649  0.38743487  1
  Si  Si190  1  0.85509337  0.59433293  0.61030746  1
  Si  Si191  1  0.30827583  0.66957442  0.38363639  1
  O  O192  1  0.28412407  0.12303889  0.08579681  1
  O  O193  1  0.28248077  0.11633782  0.58562858  1
  O  O194  1  0.27105761  0.62612415  0.08610731  1
  O  O195  1  0.27003239  0.61367529  0.57936618  1
  O  O196  1  0.60711022  0.12051497  0.08840980  1
  O  O197  1  0.60983031  0.10681477  0.58672390  1
  O  O198  1  0.60542077  0.62248370  0.09016834  1
  O  O199  1  0.60460507  0.61666599  0.58506060  1
  O  O200  1  0.93097844  0.11112130  0.07724490  1
  O  O201  1  0.93251018  0.09654789  0.57647327  1
  O  O202  1  0.93621875  0.61866978  0.08372320  1
  O  O203  1  0.93436217  0.63555170  0.58260162  1
  O  O204  1  0.10459597  0.38025656  0.08651547  1
  O  O205  1  0.11160811  0.34032283  0.57906482  1
  O  O206  1  0.08837767  0.86690922  0.06536654  1
  O  O207  1  0.09547681  0.88206530  0.58301464  1
  O  O208  1  0.43794597  0.37614474  0.08781700  1
  O  O209  1  0.44723479  0.36405230  0.58347157  1
  O  O210  1  0.44581314  0.87049775  0.08409746  1
  O  O211  1  0.45269038  0.86617160  0.57923637  1
  O  O212  1  0.77226401  0.37114663  0.08802545  1
  O  O213  1  0.77910042  0.36439233  0.56284658  1
  O  O214  1  0.76867100  0.86749984  0.08343763  1
  O  O215  1  0.77513959  0.85483490  0.58767355  1
  O  O216  1  0.27236618  0.37771075  0.08859122  1
  O  O217  1  0.28557480  0.37662975  0.57397670  1
  O  O218  1  0.28050425  0.86912658  0.07471073  1
  O  O219  1  0.25583152  0.88459527  0.57165420  1
  O  O220  1  0.60511751  0.37441135  0.08796995  1
  O  O221  1  0.60441346  0.39286846  0.57703713  1
  O  O222  1  0.60835633  0.88372019  0.08731850  1
  O  O223  1  0.61555370  0.89009797  0.58604094  1
  O  O224  1  0.93981350  0.39448181  0.08654941  1
  O  O225  1  0.96328331  0.39775777  0.57736869  1
  O  O226  1  0.92866878  0.87255488  0.08112852  1
  O  O227  1  0.93393962  0.87873075  0.58496678  1
  O  O228  1  0.12174055  0.14188529  0.07684455  1
  O  O229  1  0.11906153  0.13709441  0.57554104  1
  O  O230  1  0.10344623  0.62555285  0.08265023  1
  O  O231  1  0.10331640  0.63594144  0.58232438  1
  O  O232  1  0.44645410  0.13366033  0.08854139  1
  O  O233  1  0.44564659  0.13113038  0.58616595  1
  O  O234  1  0.43702998  0.62041689  0.08502067  1
  O  O235  1  0.43757457  0.62660142  0.58196543  1
  O  O236  1  0.76827497  0.12479628  0.08415633  1
  O  O237  1  0.77052418  0.12311662  0.58449227  1
  O  O238  1  0.77019565  0.63395190  0.08589349  1
  O  O239  1  0.77005122  0.64566055  0.58469656  1
  O  O240  1  0.04810876  0.11222168  0.41160995  1
  O  O241  1  0.05896851  0.10322646  0.91939062  1
  O  O242  1  0.06539637  0.62560529  0.41534400  1
  O  O243  1  0.03416601  0.61380288  0.92218368  1
  O  O244  1  0.38964252  0.10313425  0.42355628  1
  O  O245  1  0.37907926  0.10820945  0.92481182  1
  O  O246  1  0.39814318  0.62826630  0.41457930  1
  O  O247  1  0.38667598  0.60990563  0.93371601  1
  O  O248  1  0.73527258  0.10545476  0.42316807  1
  O  O249  1  0.71174473  0.09730058  0.91093008  1
  O  O250  1  0.72950325  0.60842216  0.41274381  1
  O  O251  1  0.72317533  0.61216280  0.91410754  1
  O  O252  1  0.22960148  0.38070508  0.41400089  1
  O  O253  1  0.23037520  0.35221552  0.92463143  1
  O  O254  1  0.22467995  0.87083367  0.41220900  1
  O  O255  1  0.22764008  0.86947747  0.91423099  1
  O  O256  1  0.56384665  0.38041039  0.41448476  1
  O  O257  1  0.54960206  0.35111213  0.92253666  1
  O  O258  1  0.54869567  0.86200925  0.42578745  1
  O  O259  1  0.55881838  0.85664536  0.91214064  1
  O  O260  1  0.89563242  0.36604317  0.41276161  1
  O  O261  1  0.88637620  0.37114500  0.91434278  1
  O  O262  1  0.89927752  0.86948353  0.42096636  1
  O  O263  1  0.89469425  0.86761203  0.91387833  1
  O  O264  1  0.06155255  0.38199600  0.41206795  1
  O  O265  1  0.04755879  0.38866355  0.92129668  1
  O  O266  1  0.06383521  0.87468857  0.41640453  1
  O  O267  1  0.06099197  0.88274251  0.91106409  1
  O  O268  1  0.39483873  0.38776111  0.41524369  1
  O  O269  1  0.38991957  0.37376281  0.91701137  1
  O  O270  1  0.38604709  0.88139397  0.41382269  1
  O  O271  1  0.39336859  0.89383613  0.91521484  1
  O  O272  1  0.72839805  0.39040066  0.41236130  1
  O  O273  1  0.72931805  0.40460055  0.92323278  1
  O  O274  1  0.73901768  0.89511594  0.42602051  1
  O  O275  1  0.72878444  0.87807250  0.91716096  1
  O  O276  1  0.21046344  0.12929272  0.42504978  1
  O  O277  1  0.21754819  0.13373347  0.91561428  1
  O  O278  1  0.23186210  0.62748138  0.41322513  1
  O  O279  1  0.20579402  0.66255402  0.92503760  1
  O  O280  1  0.55108325  0.12701112  0.42670591  1
  O  O281  1  0.56340873  0.14932105  0.92224593  1
  O  O282  1  0.56556159  0.62684416  0.41834334  1
  O  O283  1  0.56622985  0.63710593  0.92444184  1
  O  O284  1  0.88978316  0.14166844  0.41294321  1
  O  O285  1  0.87483434  0.12947054  0.92282320  1
  O  O286  1  0.89886304  0.62971294  0.42012523  1
  O  O287  1  0.87583573  0.65079173  0.90917927  1
  O  O288  1  0.18409844  0.01010535  0.07354324  1
  O  O289  1  0.17676962  0.00504642  0.58372051  1
  O  O290  1  0.18869265  0.50203511  0.08724449  1
  O  O291  1  0.16472885  0.50591298  0.57366672  1
  O  O292  1  0.51548009  0.00169353  0.08777321  1
  O  O293  1  0.50713369  -0.00010682  0.58290325  1
  O  O294  1  0.52484955  0.49865073  0.08780687  1
  O  O295  1  0.50384399  0.50031389  0.58373675  1
  O  O296  1  0.83846904  -0.00466774  0.08442936  1
  O  O297  1  0.82685958  -0.00977047  0.58540745  1
  O  O298  1  0.83551239  0.50345762  0.08632139  1
  O  O299  1  0.83841790  0.51885153  0.57262632  1
  O  O300  1  0.00198623  0.26521247  0.07797670  1
  O  O301  1  -0.02064388  0.25522156  0.57741952  1
  O  O302  1  0.00736782  0.74570519  0.08292258  1
  O  O303  1  0.01729022  0.75606966  0.58310323  1
  O  O304  1  0.35632850  0.25273124  0.08845746  1
  O  O305  1  0.35419222  0.24715411  0.58636725  1
  O  O306  1  0.36360067  0.74603562  0.08374797  1
  O  O307  1  0.33864099  0.73915023  0.57029855  1
  O  O308  1  0.68465560  0.24885926  0.08732049  1
  O  O309  1  0.66889391  0.23633011  0.57765354  1
  O  O310  1  0.67476205  0.75161817  0.08539615  1
  O  O311  1  0.66093352  0.75102528  0.58750478  1
  O  O312  1  0.14537595  -0.00276687  0.41618416  1
  O  O313  1  0.16288140  -0.00284335  0.91247207  1
  O  O314  1  0.14877798  0.50364784  0.41319111  1
  O  O315  1  0.17319814  0.50321028  0.93271199  1
  O  O316  1  0.49038273  -0.00584615  0.41656187  1
  O  O317  1  0.51532449  -0.00951149  0.92673529  1
  O  O318  1  0.48363320  0.50458229  0.41557228  1
  O  O319  1  0.49550938  0.48434325  0.92408122  1
  O  O320  1  0.84714686  0.00272393  0.41326934  1
  O  O321  1  0.82247975  -0.00543729  0.91501395  1
  O  O322  1  0.83521630  0.49856106  0.41462948  1
  O  O323  1  0.83836154  0.50900766  0.91304242  1
  O  O324  1  0.32312494  0.26155884  0.42373252  1
  O  O325  1  0.32693230  0.24212320  0.91427765  1
  O  O326  1  0.31472820  0.75155246  0.41338678  1
  O  O327  1  0.34087985  0.76376549  0.92296793  1
  O  O328  1  0.65988800  0.26259667  0.42381318  1
  O  O329  1  0.69098564  0.23958556  0.91873928  1
  O  O330  1  0.67323505  0.73881474  0.42970873  1
  O  O331  1  0.66767260  0.74766152  0.91521324  1
  O  O332  1  0.99546022  0.25069369  0.41166960  1
  O  O333  1  0.98594987  0.25826202  0.92131688  1
  O  O334  1  0.98517052  0.74988719  0.41520083  1
  O  O335  1  0.98987944  0.75297538  0.91351315  1
  O  O336  1  0.21119320  0.08619024  0.19039757  1
  O  O337  1  0.21071549  0.08472777  0.69279086  1
  O  O338  1  0.21110384  0.58390436  0.19463655  1
  O  O339  1  0.20844420  0.58516972  0.68942677  1
  O  O340  1  0.54517837  0.08279953  0.19841052  1
  O  O341  1  0.54546475  0.08121340  0.69602095  1
  O  O342  1  0.53675831  0.58174537  0.19640583  1
  O  O343  1  0.54290639  0.58133416  0.69384482  1
  O  O344  1  0.87419446  0.08294202  0.19260174  1
  O  O345  1  0.87366264  0.07674644  0.69226952  1
  O  O346  1  0.87614653  0.58480066  0.19426692  1
  O  O347  1  0.87344813  0.58942293  0.69110081  1
  O  O348  1  0.04301794  0.33848581  0.19363183  1
  O  O349  1  0.03873247  0.33037742  0.68978903  1
  O  O350  1  0.04803483  0.83895105  0.18623685  1
  O  O351  1  0.04151057  0.83540700  0.69401759  1
  O  O352  1  0.37860640  0.33581183  0.19778133  1
  O  O353  1  0.38102825  0.33564912  0.69343200  1
  O  O354  1  0.38351194  0.82972034  0.19157611  1
  O  O355  1  0.36371513  0.83138378  0.69796991  1
  O  O356  1  0.71088137  0.33191039  0.19690971  1
  O  O357  1  0.71378901  0.33318205  0.69971153  1
  O  O358  1  0.71067198  0.83430074  0.19634707  1
  O  O359  1  0.70876481  0.83175247  0.69582590  1
  O  O360  1  0.21182372  0.41897537  0.19648846  1
  O  O361  1  0.21384567  0.41349790  0.69878012  1
  O  O362  1  0.21168457  0.91921912  0.19569201  1
  O  O363  1  0.20640038  0.91790676  0.69147999  1
  O  O364  1  0.54469284  0.41546017  0.19687462  1
  O  O365  1  0.54298331  0.41781422  0.69309659  1
  O  O366  1  0.54487615  0.91855407  0.19663435  1
  O  O367  1  0.54815504  0.92185625  0.69271543  1
  O  O368  1  0.87650127  0.41835835  0.19552196  1
  O  O369  1  0.87499171  0.41802093  0.69908996  1
  O  O370  1  0.87019442  0.91566384  0.19377600  1
  O  O371  1  0.87465628  0.91303902  0.69548280  1
  O  O372  1  0.04578565  0.16930213  0.20106008  1
  O  O373  1  0.04539586  0.16425155  0.69867933  1
  O  O374  1  0.04673614  0.65894028  0.19194500  1
  O  O375  1  0.04080157  0.67135707  0.69281958  1
  O  O376  1  0.38319055  0.17006119  0.19782886  1
  O  O377  1  0.38064933  0.16332673  0.69594710  1
  O  O378  1  0.37980234  0.66482919  0.19466542  1
  O  O379  1  0.37365447  0.66503875  0.68869176  1
  O  O380  1  0.71259260  0.16664509  0.19598157  1
  O  O381  1  0.70995612  0.16246748  0.69448953  1
  O  O382  1  0.71357586  0.67305062  0.19655736  1
  O  O383  1  0.70722303  0.66640513  0.69507835  1
  O  O384  1  0.12321475  0.08355145  0.30632702  1
  O  O385  1  0.12215682  0.07981209  0.80487707  1
  O  O386  1  0.12389764  0.58426923  0.30420325  1
  O  O387  1  0.11712030  0.58666076  0.79899280  1
  O  O388  1  0.45707405  0.08340695  0.31047946  1
  O  O389  1  0.45668680  0.08161482  0.80081109  1
  O  O390  1  0.45818781  0.58495377  0.30659673  1
  O  O391  1  0.45319816  0.57973169  0.79779166  1
  O  O392  1  0.79187727  0.08444877  0.30612496  1
  O  O393  1  0.78927182  0.07933257  0.80560433  1
  O  O394  1  0.80348963  0.58267986  0.30730790  1
  O  O395  1  0.78716653  0.58562374  0.80235046  1
  O  O396  1  0.29116365  0.33720167  0.30723325  1
  O  O397  1  0.28681410  0.33105569  0.80737580  1
  O  O398  1  0.29058995  0.83065643  0.30207138  1
  O  O399  1  0.28968014  0.83638747  0.80697113  1
  O  O400  1  0.62508068  0.33456684  0.30714422  1
  O  O401  1  0.62170544  0.33330375  0.79911434  1
  O  O402  1  0.62364765  0.83339741  0.30230514  1
  O  O403  1  0.63371266  0.83087140  0.80638462  1
  O  O404  1  0.95824357  0.33493917  0.30342333  1
  O  O405  1  0.95423894  0.33366507  0.80598303  1
  O  O406  1  0.95091842  0.83818909  0.30757459  1
  O  O407  1  0.95601663  0.83441882  0.80383622  1
  O  O408  1  0.12364179  0.41975024  0.30381224  1
  O  O409  1  0.11646337  0.41406956  0.79746203  1
  O  O410  1  0.12009608  0.91999294  0.30385290  1
  O  O411  1  0.12371112  0.91580753  0.80255943  1
  O  O412  1  0.45634589  0.41888553  0.30587393  1
  O  O413  1  0.45726630  0.41141082  0.80847000  1
  O  O414  1  0.46154971  0.91369662  0.30793428  1
  O  O415  1  0.45778131  0.92284947  0.80881540  1
  O  O416  1  0.79416481  0.41647611  0.30492209  1
  O  O417  1  0.78742953  0.42301719  0.80678532  1
  O  O418  1  0.79276828  0.91685037  0.30909803  1
  O  O419  1  0.79012537  0.91354813  0.80541649  1
  O  O420  1  0.28680860  0.16882213  0.29835345  1
  O  O421  1  0.28578898  0.15729574  0.80735326  1
  O  O422  1  0.29266366  0.66582564  0.30358867  1
  O  O423  1  0.28675197  0.66549762  0.79794884  1
  O  O424  1  0.62347408  0.16719212  0.30166626  1
  O  O425  1  0.62525186  0.16562114  0.80654312  1
  O  O426  1  0.62150966  0.67258157  0.31144849  1
  O  O427  1  0.62276731  0.66460987  0.80704741  1
  O  O428  1  0.95441312  0.16975292  0.30287377  1
  O  O429  1  0.95070558  0.16447173  0.79672296  1
  O  O430  1  0.95459621  0.66104063  0.30719296  1
  O  O431  1  0.95333750  0.66994776  0.80423466  1
  F  F432  1  0.04725545  0.00785208  0.19650243  1
  F  F433  1  0.04360278  -0.00183313  0.70080623  1
  F  F434  1  0.04555595  0.50104964  0.20115105  1
  F  F435  1  0.02895786  0.50286797  0.69246870  1
  F  F436  1  0.38436870  0.00710493  0.20256736  1
  F  F437  1  0.37793436  -0.00221759  0.70021294  1
  F  F438  1  0.37944343  0.49998998  0.20375133  1
  F  F439  1  0.37702128  0.49529209  0.70030423  1
  F  F440  1  0.71272895  -0.00000294  0.20608125  1
  F  F441  1  0.71280140  -0.00252926  0.70367186  1
  F  F442  1  0.71652987  0.49023377  0.19957643  1
  F  F443  1  0.70965203  0.50219717  0.70064438  1
  F  F444  1  0.21357378  0.25709521  0.20079658  1
  F  F445  1  0.21027176  0.24815583  0.70281405  1
  F  F446  1  0.21694802  0.74004375  0.19255427  1
  F  F447  1  0.20657729  0.75121788  0.69982621  1
  F  F448  1  0.54516550  0.25275651  0.20359586  1
  F  F449  1  0.54531244  0.24560947  0.70102897  1
  F  F450  1  0.54730357  0.74787390  0.20222086  1
  F  F451  1  0.54905732  0.73706328  0.69872980  1
  F  F452  1  0.87764682  0.25207134  0.20069177  1
  F  F453  1  0.87470684  0.25047015  0.69960881  1
  F  F454  1  0.86798163  0.74989717  0.19913996  1
  F  F455  1  0.87791713  0.75166207  0.70111698  1
  F  F456  1  0.28353016  0.00637397  0.29989590  1
  F  F457  1  0.28580175  -0.00176368  0.79445969  1
  F  F458  1  0.28860813  0.50247553  0.29852014  1
  F  F459  1  0.29406086  0.49848110  0.80085724  1
  F  F460  1  0.62200330  0.00006740  0.30097749  1
  F  F461  1  0.62343101  -0.00225744  0.79893067  1
  F  F462  1  0.61791103  0.48963474  0.30358659  1
  F  F463  1  0.61986616  0.49956326  0.79686386  1
  F  F464  1  0.95325255  0.00815356  0.29827854  1
  F  F465  1  0.95396204  -0.00297975  0.79693217  1
  F  F466  1  0.95714000  0.50008959  0.29672209  1
  F  F467  1  0.95095853  0.50526054  0.79635853  1
  F  F468  1  0.12215755  0.25613514  0.29855468  1
  F  F469  1  0.11904373  0.24990698  0.79839229  1
  F  F470  1  0.13613863  0.74252175  0.30701081  1
  F  F471  1  0.11943426  0.75418347  0.79614099  1
  F  F472  1  0.45594443  0.25311196  0.30118929  1
  F  F473  1  0.45817234  0.24908229  0.79949373  1
  F  F474  1  0.45280528  0.74869129  0.29715725  1
  F  F475  1  0.44995690  0.73782855  0.80100285  1
  F  F476  1  0.79050005  0.25092662  0.29796112  1
  F  F477  1  0.78939975  0.24704713  0.79733194  1
  F  F478  1  0.78977016  0.75031900  0.30210104  1
  F  F479  1  0.78753391  0.74913483  0.79663556  1
