# generated using pymatgen
data_K24Na3Li5Mg64Fe17Si79(O5F)48
_symmetry_space_group_name_H-M   'P 1'
_cell_length_a   16.10702535
_cell_length_b   18.59955988
_cell_length_c   20.55829980
_cell_angle_alpha   89.98803643
_cell_angle_beta   100.02589482
_cell_angle_gamma   90.00758910
_symmetry_Int_Tables_number   1
_chemical_formula_structural   K24Na3Li5Mg64Fe17Si79(O5F)48
_chemical_formula_sum   'K24 Na3 Li5 Mg64 Fe17 Si79 O240 F48'
_cell_volume   6064.87699456
_cell_formula_units_Z   1
loop_
 _symmetry_equiv_pos_site_id
 _symmetry_equiv_pos_as_xyz
  1  'x, y, z'
loop_
 _atom_site_type_symbol
 _atom_site_label
 _atom_site_symmetry_multiplicity
 _atom_site_fract_x
 _atom_site_fract_y
 _atom_site_fract_z
 _atom_site_occupancy
  K  K0  1  0.00457285  -0.00609653  0.00864551  1
  K  K1  1  0.00752983  0.00932699  0.48259773  1
  K  K2  1  -0.00526180  0.49129810  0.00591850  1
  K  K3  1  0.00678184  0.50463106  0.49459704  1
  K  K4  1  0.34200092  0.00511491  0.01679163  1
  K  K5  1  0.32495109  0.00276816  0.48711112  1
  K  K6  1  0.34057260  0.50771139  0.01492083  1
  K  K7  1  0.33962978  0.49854650  0.48978767  1
  K  K8  1  0.66474080  0.00275458  0.01042669  1
  K  K9  1  0.66763450  0.00163718  0.48964512  1
  K  K10  1  0.66125258  0.50293376  0.00371487  1
  K  K11  1  0.66292621  0.49227056  0.49272629  1
  K  K12  1  0.17232704  0.24672658  0.01112242  1
  K  K13  1  0.16180207  0.24484750  0.49035527  1
  K  K14  1  0.17121826  0.74383216  0.01587878  1
  K  K15  1  0.16377272  0.74766732  0.48598079  1
  K  K16  1  0.49582350  0.25277949  0.01197586  1
  K  K17  1  0.49200524  0.25687551  0.49512463  1
  K  K18  1  0.49035672  0.74103727  0.01248566  1
  K  K19  1  0.50895821  0.74627299  0.49662514  1
  K  K20  1  0.83475240  0.25837206  0.00698842  1
  K  K21  1  0.83356011  0.25129199  0.48909762  1
  K  K22  1  0.83642916  0.74249082  0.00117034  1
  K  K23  1  0.83625509  0.73947775  0.49603887  1
  Na  Na24  1  0.49395410  0.50038476  0.24937918  1
  Na  Na25  1  0.17449368  0.66568258  0.25617436  1
  Na  Na26  1  0.66429708  0.92044131  0.24570585  1
  Li  Li27  1  0.66440293  0.25063688  0.24663642  1
  Li  Li28  1  0.16848893  -0.00256090  0.25537295  1
  Li  Li29  1  0.33078187  0.58160965  0.24792939  1
  Li  Li30  1  0.33618005  0.41731291  0.74937604  1
  Li  Li31  1  0.83270446  0.16780355  0.74632855  1
  Mg  Mg32  1  0.83457060  0.00304592  0.75134274  1
  Mg  Mg33  1  0.16887154  0.50007252  0.24972329  1
  Mg  Mg34  1  0.67014184  0.24893019  0.74497679  1
  Mg  Mg35  1  -0.00237598  0.74901942  0.75379708  1
  Mg  Mg36  1  0.00281620  0.75110090  0.25726640  1
  Mg  Mg37  1  0.49738115  0.50066877  0.75328126  1
  Mg  Mg38  1  0.83173977  0.00114383  0.25176265  1
  Mg  Mg39  1  0.33586403  0.25289106  0.74442703  1
  Mg  Mg40  1  0.66431446  0.74999215  0.24994609  1
  Mg  Mg41  1  0.33334400  0.25092171  0.24496018  1
  Mg  Mg42  1  -0.00031446  0.24910129  0.74733901  1
  Mg  Mg43  1  0.49965755  0.00117467  0.74776872  1
  Mg  Mg44  1  0.83327562  0.49793503  0.74650521  1
  Mg  Mg45  1  0.66647789  0.74944514  0.75427899  1
  Mg  Mg46  1  0.16638793  0.00100016  0.75099746  1
  Mg  Mg47  1  0.50147064  0.00297843  0.24505461  1
  Mg  Mg48  1  0.33206235  0.74889743  0.25381547  1
  Mg  Mg49  1  0.33278135  0.74890678  0.75480283  1
  Mg  Mg50  1  0.16971416  0.49904827  0.75081524  1
  Mg  Mg51  1  0.83220081  0.49893826  0.24870067  1
  Mg  Mg52  1  -0.00025835  0.24926903  0.25015078  1
  Mg  Mg53  1  0.00434946  0.58298422  0.25410686  1
  Mg  Mg54  1  0.16780324  0.16674099  0.74694210  1
  Mg  Mg55  1  0.16504961  0.83429404  0.75412031  1
  Mg  Mg56  1  0.33596323  0.58139597  0.75614138  1
  Mg  Mg57  1  0.49779716  0.83573833  0.24684486  1
  Mg  Mg58  1  0.83274453  0.66290654  0.75188606  1
  Mg  Mg59  1  0.50205880  0.66514749  0.75730863  1
  Mg  Mg60  1  0.00293017  0.08296252  0.25232354  1
  Mg  Mg61  1  0.33197168  0.08389676  0.24435632  1
  Mg  Mg62  1  0.00015978  0.41432152  0.74524457  1
  Mg  Mg63  1  0.49873848  0.33654726  0.74645498  1
  Mg  Mg64  1  0.16500265  0.33350656  0.25019085  1
  Mg  Mg65  1  0.66622795  0.41438100  0.74506487  1
  Mg  Mg66  1  0.66834523  0.91723208  0.75362970  1
  Mg  Mg67  1  0.49449189  0.66475612  0.25080767  1
  Mg  Mg68  1  0.50025675  0.16770181  0.24208928  1
  Mg  Mg69  1  0.33043929  0.41938244  0.24611092  1
  Mg  Mg70  1  0.33240597  0.91644037  0.75128883  1
  Mg  Mg71  1  -0.00274172  0.58227590  0.74927279  1
  Mg  Mg72  1  0.83229799  0.33245326  0.25064867  1
  Mg  Mg73  1  0.16665824  0.16227696  0.24767867  1
  Mg  Mg74  1  0.00197812  0.41485407  0.25006370  1
  Mg  Mg75  1  -0.00147355  0.08525013  0.74941188  1
  Mg  Mg76  1  0.66568417  0.58505646  0.75383592  1
  Mg  Mg77  1  0.83175602  0.83395368  0.25346899  1
  Mg  Mg78  1  0.33096795  0.91749634  0.25089381  1
  Mg  Mg79  1  0.33348614  0.08665078  0.74502775  1
  Mg  Mg80  1  0.50062218  0.83414634  0.75395871  1
  Mg  Mg81  1  0.66902743  0.08529019  0.74652037  1
  Mg  Mg82  1  0.49952214  0.33229993  0.24575469  1
  Mg  Mg83  1  0.49909751  0.16716822  0.74436946  1
  Mg  Mg84  1  0.83236470  0.16761068  0.24988022  1
  Mg  Mg85  1  0.66440728  0.41396905  0.25066024  1
  Mg  Mg86  1  0.83544785  0.83422980  0.75470488  1
  Mg  Mg87  1  0.66471971  0.08721459  0.24503739  1
  Mg  Mg88  1  0.83492270  0.66623407  0.25276528  1
  Mg  Mg89  1  0.17135338  0.33481555  0.74827584  1
  Mg  Mg90  1  -0.00032624  0.91498342  0.75525475  1
  Mg  Mg91  1  0.16551607  0.66514323  0.75231130  1
  Mg  Mg92  1  0.66411702  0.58258518  0.25077198  1
  Mg  Mg93  1  0.00262373  0.91781668  0.25483916  1
  Mg  Mg94  1  0.17047442  0.83596133  0.25545237  1
  Mg  Mg95  1  0.83158038  0.32953367  0.74323395  1
  Fe  Fe96  1  0.97454953  0.83048335  0.89530862  1
  Fe  Fe97  1  0.35372153  0.66243576  0.11196027  1
  Fe  Fe98  1  0.31942921  0.83518857  0.39570324  1
  Fe  Fe99  1  0.35871088  0.16999962  0.60450249  1
  Fe  Fe100  1  0.15193468  0.58551122  0.39604712  1
  Fe  Fe101  1  0.68805780  0.32689229  0.60432379  1
  Fe  Fe102  1  0.35424143  0.16914654  0.10310831  1
  Fe  Fe103  1  0.85665964  0.58019382  0.60903305  1
  Fe  Fe104  1  0.53050729  0.08461132  0.10174834  1
  Fe  Fe105  1  0.47186417  0.58408887  0.89689188  1
  Fe  Fe106  1  0.97259659  0.17010818  0.38896587  1
  Fe  Fe107  1  0.47244278  0.41243420  0.38806710  1
  Fe  Fe108  1  0.02097409  0.32524489  0.10759989  1
  Fe  Fe109  1  0.14419684  0.41642806  0.39152581  1
  Fe  Fe110  1  0.14305404  0.91281669  0.39384528  1
  Fe  Fe111  1  0.18605340  0.41932550  0.10656210  1
  Fe  Fe112  1  0.64521761  0.67353389  0.89630991  1
  Si  Si113  1  0.64456212  0.84349941  0.88943833  1
  Si  Si114  1  0.69583769  0.33554328  0.11418977  1
  Si  Si115  1  0.18811724  0.07977627  0.11034343  1
  Si  Si116  1  0.63856682  0.83267707  0.38368048  1
  Si  Si117  1  0.96834573  0.34062315  0.38972444  1
  Si  Si118  1  0.80996399  0.41119678  0.88170630  1
  Si  Si119  1  0.31033669  0.33145049  0.88212428  1
  Si  Si120  1  0.80644331  0.92380725  0.88899831  1
  Si  Si121  1  0.97178816  0.66573692  0.39082854  1
  Si  Si122  1  0.69150005  0.83674011  0.61827844  1
  Si  Si123  1  0.86000726  0.07770293  0.11634763  1
  Si  Si124  1  0.64089055  0.16782120  0.37971933  1
  Si  Si125  1  0.47976013  0.41198790  0.88715797  1
  Si  Si126  1  0.14619055  0.08657046  0.38856240  1
  Si  Si127  1  0.64132920  0.66905138  0.38651403  1
  Si  Si128  1  0.02025436  0.67164419  0.11869702  1
  Si  Si129  1  0.79993972  0.41809363  0.38356623  1
  Si  Si130  1  0.68975701  0.15739049  0.60981870  1
  Si  Si131  1  0.13733313  0.57978528  0.88446264  1
  Si  Si132  1  0.18909074  0.07999036  0.61158489  1
  Si  Si133  1  0.97833657  0.33314550  0.88195545  1
  Si  Si134  1  0.31386383  0.16291197  0.38121800  1
  Si  Si135  1  0.80409704  0.91616651  0.38580485  1
  Si  Si136  1  0.02909963  0.66745916  0.61506075  1
  Si  Si137  1  0.29775728  0.66811361  0.88944812  1
  Si  Si138  1  0.52219628  0.91395651  0.61664622  1
  Si  Si139  1  0.35779521  0.34122462  0.61098396  1
  Si  Si140  1  0.81121698  0.08712851  0.88303931  1
  Si  Si141  1  0.52207486  0.91285319  0.10915076  1
  Si  Si142  1  0.69007419  0.67084273  0.61452105  1
  Si  Si143  1  0.86160941  0.40863839  0.60787115  1
  Si  Si144  1  0.85671522  0.42017548  0.11224954  1
  Si  Si145  1  0.02078721  0.15680661  0.11130535  1
  Si  Si146  1  0.47983309  0.08643904  0.38006270  1
  Si  Si147  1  0.03250062  0.33273273  0.61306714  1
  Si  Si148  1  0.64273136  0.32914394  0.88238942  1
  Si  Si149  1  0.19438578  0.58544093  0.61829485  1
  Si  Si150  1  0.32520410  0.67025982  0.39653651  1
  Si  Si151  1  0.96695123  0.83306025  0.39162343  1
  Si  Si152  1  0.30883488  0.16772367  0.88199307  1
  Si  Si153  1  0.47324179  0.91776572  0.88607199  1
  Si  Si154  1  0.47485361  0.08362205  0.88231595  1
  Si  Si155  1  0.80416660  0.58321328  0.38475022  1
  Si  Si156  1  0.35634425  0.83219098  0.61819579  1
  Si  Si157  1  0.53171432  0.41339844  0.11386383  1
  Si  Si158  1  0.02484888  0.83264011  0.61765399  1
  Si  Si159  1  0.97760137  0.16862132  0.88311610  1
  Si  Si160  1  0.02043332  0.83508893  0.11834050  1
  Si  Si161  1  0.80708880  0.57643178  0.88867304  1
  Si  Si162  1  0.18810870  0.91520609  0.11697465  1
  Si  Si163  1  0.70343590  0.16952991  0.11057732  1
  Si  Si164  1  0.48214729  0.58385518  0.39095208  1
  Si  Si165  1  0.19312698  0.42085984  0.61588275  1
  Si  Si166  1  0.02546231  0.16609280  0.61331977  1
  Si  Si167  1  0.35404879  0.83488555  0.11153420  1
  Si  Si168  1  0.52380533  0.58926101  0.61754674  1
  Si  Si169  1  0.86091119  0.08197328  0.61440804  1
  Si  Si170  1  0.17950517  0.58351556  0.10947443  1
  Si  Si171  1  0.85351477  0.91466338  0.11701980  1
  Si  Si172  1  0.85941211  0.91717120  0.61651112  1
  Si  Si173  1  0.30548176  0.32573236  0.38581004  1
  Si  Si174  1  0.53133538  0.58169766  0.11399440  1
  Si  Si175  1  0.80241717  0.08151390  0.38699808  1
  Si  Si176  1  0.52756638  0.07811033  0.61032188  1
  Si  Si177  1  0.35765559  0.66792599  0.61939801  1
  Si  Si178  1  0.48123892  0.92416476  0.38550616  1
  Si  Si179  1  0.86075669  0.58547950  0.11694239  1
  Si  Si180  1  0.97450372  0.65855165  0.88951978  1
  Si  Si181  1  0.14390761  0.92130890  0.88995449  1
  Si  Si182  1  0.52423063  0.42421598  0.61197801  1
  Si  Si183  1  0.14527442  0.41528216  0.88325561  1
  Si  Si184  1  0.63992624  0.32923901  0.38420788  1
  Si  Si185  1  0.69127638  0.82714722  0.11509653  1
  Si  Si186  1  0.64263790  0.16425590  0.88187038  1
  Si  Si187  1  0.30720018  0.83522485  0.88775432  1
  Si  Si188  1  0.18985979  0.91490949  0.61741977  1
  Si  Si189  1  0.14315573  0.08671387  0.88450825  1
  Si  Si190  1  0.69488513  0.66482710  0.11573646  1
  Si  Si191  1  0.35791583  0.34097969  0.10655005  1
  O  O192  1  0.25829565  0.11112924  0.07019768  1
  O  O193  1  0.26409849  0.10943616  0.57679178  1
  O  O194  1  0.25421829  0.61569741  0.07277650  1
  O  O195  1  0.27733473  0.61599518  0.59058334  1
  O  O196  1  0.62259808  0.12820988  0.06973404  1
  O  O197  1  0.61779718  0.09418183  0.58562703  1
  O  O198  1  0.61300839  0.61679154  0.08454087  1
  O  O199  1  0.60044462  0.62851259  0.58748284  1
  O  O200  1  0.94511966  0.09679769  0.08669829  1
  O  O201  1  0.93843254  0.12166578  0.58520961  1
  O  O202  1  0.93651366  0.62359515  0.08528477  1
  O  O203  1  0.95189325  0.61929019  0.57865577  1
  O  O204  1  0.10579995  0.35426838  0.06442634  1
  O  O205  1  0.11367120  0.36721850  0.58535874  1
  O  O206  1  0.10054031  0.86866860  0.08812702  1
  O  O207  1  0.10569436  0.86697329  0.58955473  1
  O  O208  1  0.44470336  0.37268033  0.08130974  1
  O  O209  1  0.43695216  0.38021590  0.58347125  1
  O  O210  1  0.43122927  0.87320377  0.07895893  1
  O  O211  1  0.43911049  0.86350540  0.59010050  1
  O  O212  1  0.76487581  0.38293140  0.08179286  1
  O  O213  1  0.79088983  0.34993541  0.57762265  1
  O  O214  1  0.76841300  0.86812503  0.08533244  1
  O  O215  1  0.77055176  0.87372358  0.58868497  1
  O  O216  1  0.28554266  0.39745397  0.07468901  1
  O  O217  1  0.27617325  0.39518572  0.58690288  1
  O  O218  1  0.26638024  0.88202806  0.08387263  1
  O  O219  1  0.27293028  0.88188270  0.59144369  1
  O  O220  1  0.60490852  0.37140230  0.08055357  1
  O  O221  1  0.60050265  0.39423219  0.57794987  1
  O  O222  1  0.60033937  0.86481209  0.08644853  1
  O  O223  1  0.60522169  0.88240334  0.58907210  1
  O  O224  1  0.92470410  0.38329117  0.07402787  1
  O  O225  1  0.95097995  0.38198734  0.58412867  1
  O  O226  1  0.93509226  0.88259374  0.08742547  1
  O  O227  1  0.93759646  0.87717632  0.58881190  1
  O  O228  1  0.10017521  0.12357828  0.08023145  1
  O  O229  1  0.10145558  0.12532059  0.58443036  1
  O  O230  1  0.09983192  0.64286853  0.08741236  1
  O  O231  1  0.11669037  0.64055586  0.59074767  1
  O  O232  1  0.43513864  0.13053818  0.05838929  1
  O  O233  1  0.45474018  0.13126093  0.57476189  1
  O  O234  1  0.44631461  0.62058884  0.07782056  1
  O  O235  1  0.43975638  0.63851581  0.59048912  1
  O  O236  1  0.78648850  0.13417402  0.08308906  1
  O  O237  1  0.77484857  0.12532458  0.58389332  1
  O  O238  1  0.77549478  0.63129870  0.08684661  1
  O  O239  1  0.76302078  0.64015851  0.57758361  1
  O  O240  1  0.07473688  0.12524527  0.42447202  1
  O  O241  1  0.06314605  0.12172028  0.91377645  1
  O  O242  1  0.05634273  0.62799071  0.42801551  1
  O  O243  1  0.05246420  0.60139142  0.91334470  1
  O  O244  1  0.39594443  0.11119385  0.41019863  1
  O  O245  1  0.39514722  0.12151006  0.90889665  1
  O  O246  1  0.40415169  0.61380965  0.42570517  1
  O  O247  1  0.37188821  0.61735333  0.92504608  1
  O  O248  1  0.71700584  0.11212303  0.41246653  1
  O  O249  1  0.72957101  0.12014227  0.91208822  1
  O  O250  1  0.72861455  0.62402306  0.41504608  1
  O  O251  1  0.73425775  0.60705478  0.92562068  1
  O  O252  1  0.21989784  0.33949600  0.41605261  1
  O  O253  1  0.23008448  0.36785033  0.91078268  1
  O  O254  1  0.23196420  0.86114756  0.43956898  1
  O  O255  1  0.23257532  0.87765170  0.91665850  1
  O  O256  1  0.56453793  0.35119198  0.42258597  1
  O  O257  1  0.56471629  0.36138669  0.91462607  1
  O  O258  1  0.56344097  0.87171507  0.41544731  1
  O  O259  1  0.55885761  0.87333307  0.91553910  1
  O  O260  1  0.88246912  0.37197463  0.41568348  1
  O  O261  1  0.89686852  0.36588808  0.91063409  1
  O  O262  1  0.88494258  0.86779518  0.42015236  1
  O  O263  1  0.87811938  0.86933764  0.92496970  1
  O  O264  1  0.04216602  0.39555740  0.42113633  1
  O  O265  1  0.06289771  0.38107964  0.91043634  1
  O  O266  1  0.04786977  0.87636640  0.42859822  1
  O  O267  1  0.06921670  0.89027761  0.92468571  1
  O  O268  1  0.37886962  0.37913205  0.42296284  1
  O  O269  1  0.39842038  0.37226137  0.91237826  1
  O  O270  1  0.40685846  0.90338216  0.42491192  1
  O  O271  1  0.39538444  0.87895205  0.91476550  1
  O  O272  1  0.72108642  0.38290231  0.41284405  1
  O  O273  1  0.73169797  0.37244214  0.91092492  1
  O  O274  1  0.72310372  0.88033247  0.41293974  1
  O  O275  1  0.71455983  0.90805207  0.91154669  1
  O  O276  1  0.23534274  0.13232519  0.41394441  1
  O  O277  1  0.22889783  0.13311059  0.91146936  1
  O  O278  1  0.24422946  0.64495567  0.42947357  1
  O  O279  1  0.20922168  0.64000301  0.91202036  1
  O  O280  1  0.55675821  0.14223721  0.41022870  1
  O  O281  1  0.56342918  0.12627407  0.91047104  1
  O  O282  1  0.56652697  0.63589203  0.42151847  1
  O  O283  1  0.55339093  0.64951317  0.93358980  1
  O  O284  1  0.88400028  0.12449527  0.42453164  1
  O  O285  1  0.89567078  0.13578117  0.91134893  1
  O  O286  1  0.89061981  0.62578781  0.41665049  1
  O  O287  1  0.89423610  0.62150732  0.91652128  1
  O  O288  1  0.16851602  -0.00451314  0.08433243  1
  O  O289  1  0.16937678  -0.00437351  0.58795340  1
  O  O290  1  0.14528823  0.50911698  0.07166166  1
  O  O291  1  0.17027669  0.50410672  0.59020231  1
  O  O292  1  0.52362960  -0.01208432  0.06976488  1
  O  O293  1  0.50249902  -0.00573186  0.58619506  1
  O  O294  1  0.52957520  0.49715798  0.08745267  1
  O  O295  1  0.50667255  0.50869188  0.58684400  1
  O  O296  1  0.83376231  -0.00385119  0.08699753  1
  O  O297  1  0.85082986  -0.00140233  0.58491714  1
  O  O298  1  0.84616012  0.50475086  0.08588278  1
  O  O299  1  0.83704957  0.48707091  0.57529923  1
  O  O300  1  -0.01013995  0.23112786  0.07440454  1
  O  O301  1  0.01804484  0.24916021  0.58563993  1
  O  O302  1  0.00141326  0.75387770  0.08776072  1
  O  O303  1  0.01215856  0.75120251  0.58823405  1
  O  O304  1  0.33769053  0.26362286  0.06961473  1
  O  O305  1  0.33742771  0.26455085  0.57377962  1
  O  O306  1  0.34039982  0.75730464  0.07594933  1
  O  O307  1  0.33731580  0.75017193  0.59074019  1
  O  O308  1  0.69988950  0.25405292  0.08367633  1
  O  O309  1  0.66024884  0.23204869  0.57303598  1
  O  O310  1  0.68345559  0.74575704  0.08331785  1
  O  O311  1  0.67417715  0.75565191  0.58879237  1
  O  O312  1  0.16165899  0.00830225  0.42399980  1
  O  O313  1  0.16102285  0.00561010  0.91418325  1
  O  O314  1  0.17778929  0.49876946  0.43944276  1
  O  O315  1  0.16287495  0.49783906  0.91110953  1
  O  O316  1  0.51144697  0.00696081  0.41025568  1
  O  O317  1  0.48334638  0.00134183  0.91253294  1
  O  O318  1  0.50577969  0.50470826  0.42214362  1
  O  O319  1  0.49678409  0.48787068  0.92511285  1
  O  O320  1  0.81230649  -0.00214735  0.41650478  1
  O  O321  1  0.83130080  0.00663390  0.91512912  1
  O  O322  1  0.81073212  0.50082957  0.41320758  1
  O  O323  1  0.82519628  0.49179231  0.91333714  1
  O  O324  1  0.33865373  0.24298002  0.41068993  1
  O  O325  1  0.32157119  0.24885613  0.91211247  1
  O  O326  1  0.35915709  0.74670469  0.43171251  1
  O  O327  1  0.31287886  0.75280959  0.91565064  1
  O  O328  1  0.67080668  0.24709907  0.41008463  1
  O  O329  1  0.65663084  0.24621102  0.91105226  1
  O  O330  1  0.65631593  0.75169627  0.41692123  1
  O  O331  1  0.67882409  0.76956280  0.92412926  1
  O  O332  1  0.98425096  0.26246486  0.42547748  1
  O  O333  1  0.99348189  0.25111556  0.91172361  1
  O  O334  1  0.96890191  0.74912489  0.41863297  1
  O  O335  1  0.99561736  0.73519020  0.92592090  1
  O  O336  1  0.21050898  0.08545209  0.18991944  1
  O  O337  1  0.20822795  0.08229299  0.69306746  1
  O  O338  1  0.20261246  0.57636330  0.18834113  1
  O  O339  1  0.21151215  0.58535388  0.69890925  1
  O  O340  1  0.54486873  0.08432350  0.19319963  1
  O  O341  1  0.54278277  0.08114529  0.69182567  1
  O  O342  1  0.55003450  0.59052761  0.19327129  1
  O  O343  1  0.54384815  0.58609879  0.69770462  1
  O  O344  1  0.87612550  0.08042703  0.19616626  1
  O  O345  1  0.88027606  0.07930557  0.69422111  1
  O  O346  1  0.87610614  0.58487761  0.19710627  1
  O  O347  1  0.87722311  0.58264229  0.70150142  1
  O  O348  1  0.04024147  0.33026317  0.19947272  1
  O  O349  1  0.04773321  0.33185447  0.69384100  1
  O  O350  1  0.03724430  0.83417525  0.19797443  1
  O  O351  1  0.04358030  0.83401574  0.69824777  1
  O  O352  1  0.37387550  0.33315547  0.18718146  1
  O  O353  1  0.37913598  0.33322026  0.69123514  1
  O  O354  1  0.37622829  0.83642158  0.19190655  1
  O  O355  1  0.37566440  0.83362772  0.69899739  1
  O  O356  1  0.71391754  0.33769214  0.19359143  1
  O  O357  1  0.71029613  0.33201139  0.69647553  1
  O  O358  1  0.71448834  0.82464550  0.19429510  1
  O  O359  1  0.71072682  0.83600910  0.69890334  1
  O  O360  1  0.20731022  0.41313876  0.19785794  1
  O  O361  1  0.20692557  0.41829112  0.69563136  1
  O  O362  1  0.20958250  0.91581015  0.19587954  1
  O  O363  1  0.20838749  0.91589695  0.69838963  1
  O  O364  1  0.55111351  0.40950765  0.19269609  1
  O  O365  1  0.54291535  0.41983403  0.69319457  1
  O  O366  1  0.53263559  0.91715952  0.18867846  1
  O  O367  1  0.54253626  0.91542078  0.69740471  1
  O  O368  1  0.87474494  0.41728088  0.19298128  1
  O  O369  1  0.87840162  0.41314264  0.69003847  1
  O  O370  1  0.87317972  0.91462839  0.19706183  1
  O  O371  1  0.87637132  0.91784832  0.69696009  1
  O  O372  1  0.04276138  0.16228664  0.19167624  1
  O  O373  1  0.04454464  0.16527809  0.69391889  1
  O  O374  1  0.03046867  0.67016464  0.19771476  1
  O  O375  1  0.04296427  0.66734273  0.69642722  1
  O  O376  1  0.37667978  0.16648213  0.19470051  1
  O  O377  1  0.37828017  0.16691995  0.69696689  1
  O  O378  1  0.37714567  0.66966856  0.20143118  1
  O  O379  1  0.37534114  0.66935556  0.69986579  1
  O  O380  1  0.71578609  0.16533249  0.19026196  1
  O  O381  1  0.70596058  0.16352918  0.69020041  1
  O  O382  1  0.71224696  0.66628743  0.19612196  1
  O  O383  1  0.71071624  0.66857715  0.69544543  1
  O  O384  1  0.12289899  0.08664043  0.30804103  1
  O  O385  1  0.12398384  0.08499302  0.80367010  1
  O  O386  1  0.11849385  0.57427648  0.30674150  1
  O  O387  1  0.12018448  0.58173212  0.80364874  1
  O  O388  1  0.45792383  0.08476464  0.30038530  1
  O  O389  1  0.45766251  0.08231545  0.80187472  1
  O  O390  1  0.46537536  0.59074509  0.31252985  1
  O  O391  1  0.45591256  0.58430801  0.80410921  1
  O  O392  1  0.78935634  0.08325182  0.30652559  1
  O  O393  1  0.78946357  0.08287812  0.80335340  1
  O  O394  1  0.78923193  0.58439089  0.30453323  1
  O  O395  1  0.78826700  0.58048632  0.80761153  1
  O  O396  1  0.28925460  0.32797729  0.30464903  1
  O  O397  1  0.29022565  0.32917739  0.80226524  1
  O  O398  1  0.29314185  0.83684891  0.30370027  1
  O  O399  1  0.28909480  0.83545646  0.80683424  1
  O  O400  1  0.62087978  0.33423832  0.30453020  1
  O  O401  1  0.62360051  0.33149486  0.80224754  1
  O  O402  1  0.61892628  0.82794628  0.30468932  1
  O  O403  1  0.62353566  0.83781623  0.80793620  1
  O  O404  1  0.95226006  0.33547917  0.30833545  1
  O  O405  1  0.95906394  0.33262307  0.80154497  1
  O  O406  1  0.95268346  0.83422094  0.31071122  1
  O  O407  1  0.95561711  0.83298893  0.80285163  1
  O  O408  1  0.12026066  0.41598728  0.30042082  1
  O  O409  1  0.12412251  0.41503522  0.80276323  1
  O  O410  1  0.11989944  0.91517667  0.30364841  1
  O  O411  1  0.12462933  0.91817637  0.80846440  1
  O  O412  1  0.44872256  0.40544182  0.29868243  1
  O  O413  1  0.46436644  0.41494777  0.80682719  1
  O  O414  1  0.46062247  0.91953572  0.30492067  1
  O  O415  1  0.45521998  0.91782259  0.80522935  1
  O  O416  1  0.78807014  0.41773177  0.30335960  1
  O  O417  1  0.79204188  0.41397546  0.80147823  1
  O  O418  1  0.79602588  0.91710644  0.30684091  1
  O  O419  1  0.79203683  0.91960680  0.80757020  1
  O  O420  1  0.29086343  0.16398100  0.30125267  1
  O  O421  1  0.28890997  0.16628031  0.80155759  1
  O  O422  1  0.30446099  0.67388186  0.31734222  1
  O  O423  1  0.28619729  0.66872889  0.80827000  1
  O  O424  1  0.62259718  0.16672031  0.30039727  1
  O  O425  1  0.62343102  0.16470441  0.80139547  1
  O  O426  1  0.62510921  0.66787348  0.30636920  1
  O  O427  1  0.62392165  0.66879535  0.80301764  1
  O  O428  1  0.95372188  0.16637770  0.29764266  1
  O  O429  1  0.96339006  0.16709955  0.80355352  1
  O  O430  1  0.95540358  0.66597168  0.30998654  1
  O  O431  1  0.95696779  0.66488300  0.80831688  1
  F  F432  1  0.03452933  -0.00067760  0.20156833  1
  F  F433  1  0.04510813  -0.00176527  0.70431442  1
  F  F434  1  0.03532974  0.50060025  0.19919049  1
  F  F435  1  0.04628975  0.50002560  0.70144266  1
  F  F436  1  0.37828174  -0.00063396  0.19860848  1
  F  F437  1  0.37732820  -0.00203539  0.70107559  1
  F  F438  1  0.36544779  0.49885935  0.19305772  1
  F  F439  1  0.37877161  0.50337100  0.70322766  1
  F  F440  1  0.71815429  0.00938813  0.19645764  1
  F  F441  1  0.71303201  -0.00242800  0.70234953  1
  F  F442  1  0.71281092  0.50183311  0.20000459  1
  F  F443  1  0.71131197  0.50187380  0.70208735  1
  F  F444  1  0.20974705  0.24773135  0.20056832  1
  F  F445  1  0.21153633  0.24930467  0.69855048  1
  F  F446  1  0.21337404  0.75977451  0.20112342  1
  F  F447  1  0.21108816  0.75172374  0.70564738  1
  F  F448  1  0.54173449  0.25074400  0.19469752  1
  F  F449  1  0.54609671  0.25044639  0.70005789  1
  F  F450  1  0.54590786  0.75056699  0.19988692  1
  F  F451  1  0.54371770  0.75350063  0.70478313  1
  F  F452  1  0.87721703  0.25218482  0.19965045  1
  F  F453  1  0.88376898  0.25017195  0.69822208  1
  F  F454  1  0.87901999  0.75067235  0.20740725  1
  F  F455  1  0.87695763  0.74933032  0.70333104  1
  F  F456  1  0.29441969  0.00309139  0.29704336  1
  F  F457  1  0.28882978  0.00225653  0.79705348  1
  F  F458  1  0.28665921  0.49653160  0.30008776  1
  F  F459  1  0.28460234  0.50344799  0.80247474  1
  F  F460  1  0.61868875  0.00928330  0.29864701  1
  F  F461  1  0.62050216  0.00246662  0.79635215  1
  F  F462  1  0.63572105  0.49979418  0.30168485  1
  F  F463  1  0.62314878  0.49734127  0.79721932  1
  F  F464  1  0.95238111  0.00002294  0.30171178  1
  F  F465  1  0.95634543  0.00160928  0.80013146  1
  F  F466  1  0.94960290  0.49954790  0.29767468  1
  F  F467  1  0.95557451  0.49444827  0.79672731  1
  F  F468  1  0.12090383  0.24469362  0.29642975  1
  F  F469  1  0.12295196  0.24940588  0.79549129  1
  F  F470  1  0.11675962  0.76001147  0.30630106  1
  F  F471  1  0.12050503  0.75001183  0.80011716  1
  F  F472  1  0.45505033  0.24856593  0.29311479  1
  F  F473  1  0.45717169  0.25046993  0.79601405  1
  F  F474  1  0.45928158  0.75546688  0.29742643  1
  F  F475  1  0.45363293  0.75331367  0.80199241  1
  F  F476  1  0.79216465  0.24995339  0.29824954  1
  F  F477  1  0.78889089  0.24990809  0.79675319  1
  F  F478  1  0.78656796  0.74874939  0.30129989  1
  F  F479  1  0.78890900  0.74995835  0.79924957  1
