# generated using pymatgen
data_K24Na3Li5Mg64Fe17Si79(O5F)48
_symmetry_space_group_name_H-M   'P 1'
_cell_length_a   16.09056515
_cell_length_b   18.58171523
_cell_length_c   20.54836344
_cell_angle_alpha   89.98302397
_cell_angle_beta   100.01280679
_cell_angle_gamma   90.02748165
_symmetry_Int_Tables_number   1
_chemical_formula_structural   K24Na3Li5Mg64Fe17Si79(O5F)48
_chemical_formula_sum   'K24 Na3 Li5 Mg64 Fe17 Si79 O240 F48'
_cell_volume   6050.18434772
_cell_formula_units_Z   1
loop_
 _symmetry_equiv_pos_site_id
 _symmetry_equiv_pos_as_xyz
  1  'x, y, z'
loop_
 _atom_site_type_symbol
 _atom_site_label
 _atom_site_symmetry_multiplicity
 _atom_site_fract_x
 _atom_site_fract_y
 _atom_site_fract_z
 _atom_site_occupancy
  K  K0  1  0.00766724  -0.00210757  0.00213349  1
  K  K1  1  0.00018802  -0.00442411  0.49904843  1
  K  K2  1  0.00741978  0.50911033  -0.00068043  1
  K  K3  1  0.01151081  0.50601363  0.49646373  1
  K  K4  1  0.32799583  -0.00826861  0.00137422  1
  K  K5  1  0.33341220  -0.00581008  0.49929021  1
  K  K6  1  0.32148054  0.50751345  -0.00041341  1
  K  K7  1  0.33026369  0.50624138  0.49749219  1
  K  K8  1  0.66035952  -0.00226987  -0.00597007  1
  K  K9  1  0.67426433  -0.01087796  0.49903282  1
  K  K10  1  0.66662325  0.50558095  -0.00402606  1
  K  K11  1  0.66548004  0.51062076  0.50425321  1
  K  K12  1  0.15761541  0.25803842  0.00155217  1
  K  K13  1  0.16798050  0.25797100  0.49309236  1
  K  K14  1  0.15912463  0.74821045  -0.00337811  1
  K  K15  1  0.15791720  0.74840763  0.49818246  1
  K  K16  1  0.50377227  0.24372960  -0.00232041  1
  K  K17  1  0.49661398  0.25299561  0.50006667  1
  K  K18  1  0.49933644  0.75125350  -0.01018567  1
  K  K19  1  0.51053775  0.74611718  0.50948427  1
  K  K20  1  0.83596212  0.24531864  -0.00267170  1
  K  K21  1  0.83391599  0.24503869  0.49731722  1
  K  K22  1  0.83331959  0.75199876  -0.00553629  1
  K  K23  1  0.82579763  0.74916255  0.51297688  1
  Na  Na24  1  -0.00121993  0.74957523  0.24120078  1
  Na  Na25  1  0.50150400  0.82535986  0.75132584  1
  Na  Na26  1  0.16685911  0.16941370  0.74927008  1
  Li  Li27  1  0.49738215  0.50113741  0.25274670  1
  Li  Li28  1  0.16332135  0.50187267  0.74848984  1
  Li  Li29  1  0.50444632  0.67094137  0.75078085  1
  Li  Li30  1  0.82976451  0.66826027  0.75568895  1
  Li  Li31  1  0.16679371  0.33589488  0.25035405  1
  Mg  Mg32  1  0.66450908  0.25006675  0.75609101  1
  Mg  Mg33  1  0.66714587  0.74683119  0.25624224  1
  Mg  Mg34  1  0.16768749  0.00013962  0.24483611  1
  Mg  Mg35  1  0.16476034  -0.00094535  0.74664100  1
  Mg  Mg36  1  0.33436130  0.75055444  0.24778477  1
  Mg  Mg37  1  0.16789650  0.49884947  0.24727818  1
  Mg  Mg38  1  -0.00562720  0.74890948  0.74423816  1
  Mg  Mg39  1  0.83258761  -0.00033183  0.74777235  1
  Mg  Mg40  1  0.66868089  0.74889126  0.74995001  1
  Mg  Mg41  1  0.66840611  0.25150232  0.25305668  1
  Mg  Mg42  1  0.49852988  0.50239324  0.74976887  1
  Mg  Mg43  1  0.00518488  0.25068742  0.24954720  1
  Mg  Mg44  1  0.50230019  -0.00088181  0.25467349  1
  Mg  Mg45  1  0.83040336  0.50400631  0.75247900  1
  Mg  Mg46  1  0.33271194  0.25173537  0.25184281  1
  Mg  Mg47  1  0.33078442  0.25138103  0.74974400  1
  Mg  Mg48  1  0.83447044  0.00257936  0.25034516  1
  Mg  Mg49  1  0.49942111  -0.00318521  0.75473712  1
  Mg  Mg50  1  0.33490549  0.74658061  0.75056246  1
  Mg  Mg51  1  0.83476557  0.49939141  0.25045692  1
  Mg  Mg52  1  0.00072332  0.25121795  0.75022645  1
  Mg  Mg53  1  0.66544087  0.58143799  0.25560865  1
  Mg  Mg54  1  0.33205256  0.41658815  0.25110168  1
  Mg  Mg55  1  0.16531722  0.16945923  0.24610782  1
  Mg  Mg56  1  0.16515383  0.83451369  0.24442198  1
  Mg  Mg57  1  0.66797454  0.41732783  0.75480473  1
  Mg  Mg58  1  0.00503864  0.41472001  0.24925141  1
  Mg  Mg59  1  0.83127701  0.83222897  0.74666896  1
  Mg  Mg60  1  0.33263269  0.91282590  0.75062593  1
  Mg  Mg61  1  0.16666735  0.66562047  0.24642888  1
  Mg  Mg62  1  0.83411697  0.66454146  0.25029815  1
  Mg  Mg63  1  0.83319327  0.33573680  0.75318086  1
  Mg  Mg64  1  0.66575100  0.08471903  0.75418442  1
  Mg  Mg65  1  0.66459251  0.41829946  0.25224112  1
  Mg  Mg66  1  0.83580370  0.33343318  0.25144174  1
  Mg  Mg67  1  0.32899048  0.41918093  0.75010179  1
  Mg  Mg68  1  0.33252691  0.58339998  0.74851337  1
  Mg  Mg69  1  0.16335034  0.66239180  0.74675621  1
  Mg  Mg70  1  0.66611318  0.91385015  0.75003503  1
  Mg  Mg71  1  0.33425963  0.08468897  0.24921062  1
  Mg  Mg72  1  0.00220315  0.58340575  0.24765705  1
  Mg  Mg73  1  0.67087208  0.08531279  0.25426014  1
  Mg  Mg74  1  0.33151530  0.08308268  0.75229759  1
  Mg  Mg75  1  0.83349849  0.16683459  0.75221044  1
  Mg  Mg76  1  0.50310885  0.16693971  0.25453285  1
  Mg  Mg77  1  -0.00044495  0.08590068  0.24681272  1
  Mg  Mg78  1  0.16347577  0.83171831  0.74710936  1
  Mg  Mg79  1  0.50220419  0.83397771  0.25414209  1
  Mg  Mg80  1  0.16525837  0.33638806  0.74814546  1
  Mg  Mg81  1  0.83643029  0.16427672  0.25080625  1
  Mg  Mg82  1  0.33480834  0.91637400  0.24954782  1
  Mg  Mg83  1  0.49954722  0.33714140  0.25228804  1
  Mg  Mg84  1  0.00012825  0.91418608  0.74485283  1
  Mg  Mg85  1  0.33478913  0.58226709  0.24895605  1
  Mg  Mg86  1  0.49970647  0.33490090  0.75405596  1
  Mg  Mg87  1  0.50181175  0.66278980  0.25313484  1
  Mg  Mg88  1  -0.00263218  0.58253109  0.74569134  1
  Mg  Mg89  1  0.66989716  0.91538113  0.25642807  1
  Mg  Mg90  1  0.49965822  0.16562508  0.75551470  1
  Mg  Mg91  1  -0.00221059  0.91642516  0.24459181  1
  Mg  Mg92  1  0.83330860  0.83260970  0.24996845  1
  Mg  Mg93  1  0.00028697  0.41779081  0.74869220  1
  Mg  Mg94  1  0.00222844  0.08450394  0.74840153  1
  Mg  Mg95  1  0.66556092  0.58736783  0.75283792  1
  Fe  Fe96  1  0.97281892  0.67084637  0.88300894  1
  Fe  Fe97  1  0.14206543  0.92080663  0.88590154  1
  Fe  Fe98  1  0.01980828  0.66545650  0.10525916  1
  Fe  Fe99  1  0.02420932  0.83004217  0.60470614  1
  Fe  Fe100  1  0.19051525  0.91632550  0.10727701  1
  Fe  Fe101  1  0.68907194  0.83750068  0.60640298  1
  Fe  Fe102  1  0.85471675  0.08163268  0.10658888  1
  Fe  Fe103  1  0.69334787  0.66190372  0.61165320  1
  Fe  Fe104  1  0.81034885  0.08654395  0.39396699  1
  Fe  Fe105  1  0.02552456  0.16973681  0.10626519  1
  Fe  Fe106  1  0.64269996  0.16273718  0.89475956  1
  Fe  Fe107  1  0.64516880  0.65972076  0.39408152  1
  Fe  Fe108  1  0.81008709  0.41971465  0.89260356  1
  Fe  Fe109  1  0.14646782  0.41996859  0.38897119  1
  Fe  Fe110  1  0.19680943  0.58398670  0.10764519  1
  Fe  Fe111  1  0.64380311  0.83518272  0.89347698  1
  Fe  Fe112  1  0.47788665  0.91665029  0.39302088  1
  Si  Si113  1  0.01663086  0.83871093  0.10720512  1
  Si  Si114  1  0.02690151  0.33145509  0.61182729  1
  Si  Si115  1  0.81328151  0.41236284  0.38579100  1
  Si  Si116  1  0.36069344  0.83226912  0.61481549  1
  Si  Si117  1  0.68770509  0.33211553  0.61664282  1
  Si  Si118  1  0.97764630  0.33305457  0.38734428  1
  Si  Si119  1  0.35519841  0.16819704  0.61561943  1
  Si  Si120  1  0.46584890  0.58321509  0.38860715  1
  Si  Si121  1  0.19257960  0.08029407  0.61310020  1
  Si  Si122  1  0.30640434  0.66157544  0.88300530  1
  Si  Si123  1  0.47805204  0.08744424  0.38924592  1
  Si  Si124  1  0.81144024  0.91585795  0.38815790  1
  Si  Si125  1  0.81667209  0.08161689  0.88699704  1
  Si  Si126  1  0.30405293  0.83562725  0.38596577  1
  Si  Si127  1  0.68747330  0.33539027  0.11690571  1
  Si  Si128  1  0.98201209  0.16876614  0.38859297  1
  Si  Si129  1  0.19731121  0.91536380  0.60807328  1
  Si  Si130  1  0.97315645  0.66496368  0.38369185  1
  Si  Si131  1  0.13997362  0.41520200  0.88241993  1
  Si  Si132  1  0.97047032  0.83200365  0.38192750  1
  Si  Si133  1  0.19231181  0.41752526  0.61433577  1
  Si  Si134  1  0.13972887  0.58007907  0.88243329  1
  Si  Si135  1  0.19864085  0.09044158  0.11053774  1
  Si  Si136  1  0.47158516  0.58093808  0.88398226  1
  Si  Si137  1  0.64277162  0.34098080  0.38800066  1
  Si  Si138  1  0.53322826  0.08222999  0.11927750  1
  Si  Si139  1  0.01769153  0.33856139  0.11110850  1
  Si  Si140  1  0.36086904  0.33080055  0.11549315  1
  Si  Si141  1  0.97766759  0.33101218  0.88656156  1
  Si  Si142  1  0.30559529  0.33542340  0.88527248  1
  Si  Si143  1  0.97983304  0.16616181  0.88400129  1
  Si  Si144  1  0.02512958  0.16671155  0.61292265  1
  Si  Si145  1  0.14286836  0.58849195  0.38723780  1
  Si  Si146  1  0.13541749  0.91424626  0.38230207  1
  Si  Si147  1  0.63903793  0.66342215  0.88952985  1
  Si  Si148  1  0.52125005  0.57847291  0.61442271  1
  Si  Si149  1  0.85287130  0.57916036  0.11285502  1
  Si  Si150  1  0.68710462  0.16759947  0.61663417  1
  Si  Si151  1  0.85611781  0.09118736  0.61366630  1
  Si  Si152  1  0.47312815  0.41639946  0.38717231  1
  Si  Si153  1  0.53064306  0.58188995  0.11802229  1
  Si  Si154  1  0.81548123  0.57578946  0.38872820  1
  Si  Si155  1  0.84944227  0.91530981  0.11271688  1
  Si  Si156  1  0.81115319  0.91937334  0.88521488  1
  Si  Si157  1  0.80576937  0.58618712  0.89073589  1
  Si  Si158  1  0.97313341  0.83954336  0.88309137  1
  Si  Si159  1  0.51940179  0.08604500  0.61682029  1
  Si  Si160  1  0.86263536  0.57112195  0.60999013  1
  Si  Si161  1  0.30613806  0.17206706  0.88510308  1
  Si  Si162  1  0.19312867  0.41281832  0.11207206  1
  Si  Si163  1  0.14290883  0.08005572  0.38354537  1
  Si  Si164  1  0.30541361  0.67162429  0.38376132  1
  Si  Si165  1  0.64822906  0.82999028  0.39057460  1
  Si  Si166  1  0.36905921  0.16555687  0.11715452  1
  Si  Si167  1  0.35779375  0.66634855  0.61358673  1
  Si  Si168  1  0.52174960  0.41420590  0.61662875  1
  Si  Si169  1  0.19478662  0.58312718  0.61212062  1
  Si  Si170  1  0.30296304  0.82615523  0.88557011  1
  Si  Si171  1  0.36762911  0.83418707  0.11288287  1
  Si  Si172  1  0.53468915  0.91668525  0.11853817  1
  Si  Si173  1  0.69115977  0.17257679  0.11568473  1
  Si  Si174  1  0.69334133  0.82760214  0.11938951  1
  Si  Si175  1  0.31415471  0.32867787  0.38931318  1
  Si  Si176  1  0.85247682  0.41653791  0.11569652  1
  Si  Si177  1  0.85817210  0.40775984  0.61264434  1
  Si  Si178  1  0.46891476  0.41756624  0.88594354  1
  Si  Si179  1  0.46492105  0.08193267  0.89177264  1
  Si  Si180  1  0.14464933  0.08569035  0.88499976  1
  Si  Si181  1  0.63670561  0.33655084  0.89240946  1
  Si  Si182  1  0.52285834  0.92384248  0.61415249  1
  Si  Si183  1  0.35617892  0.33292411  0.61602962  1
  Si  Si184  1  0.63862414  0.17460543  0.39105129  1
  Si  Si185  1  0.52409129  0.41839008  0.11685803  1
  Si  Si186  1  0.86010542  0.92509445  0.60777649  1
  Si  Si187  1  0.30834646  0.16255202  0.38542248  1
  Si  Si188  1  0.02425992  0.65825426  0.60739795  1
  Si  Si189  1  0.46475017  0.91671610  0.88952231  1
  Si  Si190  1  0.36990593  0.66805263  0.11249929  1
  Si  Si191  1  0.69254677  0.66375783  0.11831342  1
  O  O192  1  0.28858867  0.11640166  0.08653762  1
  O  O193  1  0.26864926  0.12418121  0.58378635  1
  O  O194  1  0.29247395  0.62070163  0.07555528  1
  O  O195  1  0.27023304  0.62288740  0.57974576  1
  O  O196  1  0.61051510  0.11848347  0.08878661  1
  O  O197  1  0.60128708  0.12061626  0.58810084  1
  O  O198  1  0.61378379  0.61001258  0.08812696  1
  O  O199  1  0.59579622  0.60556089  0.57789140  1
  O  O200  1  0.94618586  0.10352966  0.06714232  1
  O  O201  1  0.93238190  0.13118675  0.58189964  1
  O  O202  1  0.92946176  0.59939808  0.07618575  1
  O  O203  1  0.94738848  0.60054835  0.58190024  1
  O  O204  1  0.10285532  0.37041951  0.08562747  1
  O  O205  1  0.10246368  0.37594947  0.58366182  1
  O  O206  1  0.09357975  0.86447267  0.07016147  1
  O  O207  1  0.11773688  0.86948273  0.57133314  1
  O  O208  1  0.43800740  0.37224283  0.08630942  1
  O  O209  1  0.43850946  0.36381102  0.58689234  1
  O  O210  1  0.45147281  0.86994627  0.08744530  1
  O  O211  1  0.44130740  0.86984791  0.58894449  1
  O  O212  1  0.77199746  0.36183113  0.08832119  1
  O  O213  1  0.76854252  0.36351395  0.58587200  1
  O  O214  1  0.77710140  0.85151231  0.08996201  1
  O  O215  1  0.77764328  0.88210128  0.57179471  1
  O  O216  1  0.26890617  0.36467419  0.08430449  1
  O  O217  1  0.27028717  0.37761328  0.58453044  1
  O  O218  1  0.28705575  0.87939635  0.07739576  1
  O  O219  1  0.28021965  0.88235531  0.58009639  1
  O  O220  1  0.60593838  0.38659826  0.08655304  1
  O  O221  1  0.60240017  0.37935837  0.58673547  1
  O  O222  1  0.61472024  0.88198991  0.08932993  1
  O  O223  1  0.59699309  0.90016665  0.57567284  1
  O  O224  1  0.93627615  0.39427907  0.08518000  1
  O  O225  1  0.93321387  0.36490643  0.58137572  1
  O  O226  1  0.93491140  0.89434029  0.08363380  1
  O  O227  1  0.94086518  0.89904615  0.57605795  1
  O  O228  1  0.13066750  0.15102004  0.08039333  1
  O  O229  1  0.10148815  0.12172670  0.58616544  1
  O  O230  1  0.10919110  0.63927925  0.06485089  1
  O  O231  1  0.10674003  0.62316202  0.57903344  1
  O  O232  1  0.44950206  0.12977655  0.08909967  1
  O  O233  1  0.43710114  0.13726942  0.58620409  1
  O  O234  1  0.45488970  0.63644121  0.08627552  1
  O  O235  1  0.43383196  0.62451570  0.58482025  1
  O  O236  1  0.76893835  0.15225028  0.08038809  1
  O  O237  1  0.76834270  0.13694321  0.58622336  1
  O  O238  1  0.77249540  0.63405965  0.08675003  1
  O  O239  1  0.78212426  0.61691751  0.57549610  1
  O  O240  1  0.06761027  0.11934546  0.41512493  1
  O  O241  1  0.06021510  0.11496698  0.91348956  1
  O  O242  1  0.06124387  0.62363625  0.41564792  1
  O  O243  1  0.06321905  0.60758397  0.91680948  1
  O  O244  1  0.39226586  0.11542511  0.41624409  1
  O  O245  1  0.38413046  0.12035143  0.91946407  1
  O  O246  1  0.38302997  0.61796883  0.41620451  1
  O  O247  1  0.39055268  0.61359849  0.91392499  1
  O  O248  1  0.71718794  0.12757113  0.42768669  1
  O  O249  1  0.73941757  0.10613203  0.92301923  1
  O  O250  1  0.73589051  0.59590349  0.42270349  1
  O  O251  1  0.71693710  0.60749476  0.91821708  1
  O  O252  1  0.24248763  0.36377719  0.42549547  1
  O  O253  1  0.22332031  0.36539822  0.91378160  1
  O  O254  1  0.21641272  0.86307612  0.41164856  1
  O  O255  1  0.22435562  0.85151748  0.91903619  1
  O  O256  1  0.56726513  0.38196215  0.41782332  1
  O  O257  1  0.54700304  0.36428595  0.91566171  1
  O  O258  1  0.56740307  0.85401221  0.42302771  1
  O  O259  1  0.54974081  0.87681989  0.92498507  1
  O  O260  1  0.88756505  0.35371881  0.41319081  1
  O  O261  1  0.90003159  0.35456163  0.92168709  1
  O  O262  1  0.89042620  0.86018195  0.41480272  1
  O  O263  1  0.88495471  0.85989260  0.91069962  1
  O  O264  1  0.05000074  0.38679684  0.42327713  1
  O  O265  1  0.06192870  0.38087861  0.91480148  1
  O  O266  1  0.05479399  0.88089307  0.41231608  1
  O  O267  1  0.03879526  0.90351473  0.91150438  1
  O  O268  1  0.40667787  0.36661580  0.42065112  1
  O  O269  1  0.38598414  0.38725218  0.91497872  1
  O  O270  1  0.37789992  0.88816282  0.42268935  1
  O  O271  1  0.38551960  0.87585298  0.91622906  1
  O  O272  1  0.72986170  0.38576287  0.41646892  1
  O  O273  1  0.70944242  0.39315263  0.92283734  1
  O  O274  1  0.72594426  0.88826399  0.41390618  1
  O  O275  1  0.73349805  0.90068064  0.92298598  1
  O  O276  1  0.23014134  0.12417403  0.41481634  1
  O  O277  1  0.21766429  0.14888652  0.90828001  1
  O  O278  1  0.22124719  0.64530151  0.41241690  1
  O  O279  1  0.22755423  0.62567699  0.91257263  1
  O  O280  1  0.54983653  0.15006708  0.41493718  1
  O  O281  1  0.54917792  0.12331911  0.92762832  1
  O  O282  1  0.54882380  0.62516930  0.42548618  1
  O  O283  1  0.55532265  0.62684564  0.91606256  1
  O  O284  1  0.90758192  0.14171868  0.42642894  1
  O  O285  1  0.89657780  0.13740030  0.91190908  1
  O  O286  1  0.89784399  0.62738605  0.41748180  1
  O  O287  1  0.87439364  0.64844826  0.91656555  1
  O  O288  1  0.17614966  0.01222132  0.07756085  1
  O  O289  1  0.18723641  0.00011499  0.57906668  1
  O  O290  1  0.18810811  0.48836272  0.07281255  1
  O  O291  1  0.18700048  0.49920218  0.58346497  1
  O  O292  1  0.52137819  -0.00016516  0.09009121  1
  O  O293  1  0.49395719  0.00678085  0.58559675  1
  O  O294  1  0.50870924  0.50037066  0.08729796  1
  O  O295  1  0.49900873  0.49396264  0.58594814  1
  O  O296  1  0.80970295  -0.01053894  0.08034250  1
  O  O297  1  0.84351936  0.01114483  0.58267770  1
  O  O298  1  0.81917114  0.49663400  0.08966448  1
  O  O299  1  0.84896323  0.48719192  0.57886416  1
  O  O300  1  -0.00645573  0.26336752  0.07296001  1
  O  O301  1  0.02761255  0.24889838  0.58182524  1
  O  O302  1  -0.01816090  0.75975982  0.08225561  1
  O  O303  1  0.00357182  0.73496603  0.57050187  1
  O  O304  1  0.36082841  0.24779131  0.08689741  1
  O  O305  1  0.34080668  0.25069810  0.58649976  1
  O  O306  1  0.36279722  0.75137366  0.08451863  1
  O  O307  1  0.35028732  0.74957558  0.58364084  1
  O  O308  1  0.65907254  0.25453226  0.08999790  1
  O  O309  1  0.66907982  0.24991628  0.58657044  1
  O  O310  1  0.66758724  0.74597241  0.09146308  1
  O  O311  1  0.67134241  0.74816705  0.56721623  1
  O  O312  1  0.15252155  -0.00310970  0.41301257  1
  O  O313  1  0.17925616  0.01221559  0.92155669  1
  O  O314  1  0.16628107  0.51352578  0.42618903  1
  O  O315  1  0.16198795  0.49643471  0.91041560  1
  O  O316  1  0.50723272  0.01187803  0.42388037  1
  O  O317  1  0.46550199  -0.00046868  0.92063452  1
  O  O318  1  0.47004437  0.49832944  0.41615716  1
  O  O319  1  0.48731825  0.49864473  0.91629943  1
  O  O320  1  0.83661431  -0.00755042  0.42366849  1
  O  O321  1  0.84873069  0.00038222  0.91036049  1
  O  O322  1  0.84440138  0.49223251  0.41359094  1
  O  O323  1  0.83897290  0.51058700  0.92776974  1
  O  O324  1  0.32424112  0.24362654  0.41685085  1
  O  O325  1  0.32766407  0.25415874  0.91505739  1
  O  O326  1  0.32423966  0.75293299  0.41430777  1
  O  O327  1  0.32604405  0.74295854  0.91243165  1
  O  O328  1  0.65299313  0.25901923  0.41842798  1
  O  O329  1  0.65609876  0.25788650  0.92629517  1
  O  O330  1  0.68344799  0.75242790  0.41862595  1
  O  O331  1  0.65604697  0.73976815  0.92819454  1
  O  O332  1  1.00531152  0.25158666  0.41545452  1
  O  O333  1  1.00417521  0.24772098  0.91133008  1
  O  O334  1  0.98813908  0.74901611  0.40888320  1
  O  O335  1  1.00731070  0.76314800  0.91506593  1
  O  O336  1  0.21433789  0.08664529  0.19253531  1
  O  O337  1  0.21471819  0.07749451  0.69222582  1
  O  O338  1  0.21528782  0.58239631  0.20014492  1
  O  O339  1  0.21236308  0.58453078  0.69147046  1
  O  O340  1  0.54778569  0.08418386  0.19991132  1
  O  O341  1  0.53820003  0.08633149  0.69706231  1
  O  O342  1  0.54625827  0.58186555  0.19750951  1
  O  O343  1  0.54229089  0.57673410  0.69413096  1
  O  O344  1  0.87843585  0.08421686  0.19947767  1
  O  O345  1  0.87505902  0.08931715  0.69390007  1
  O  O346  1  0.87374049  0.58093450  0.19396163  1
  O  O347  1  0.87883097  0.56872141  0.68954743  1
  O  O348  1  0.03341217  0.33333612  0.19118870  1
  O  O349  1  0.04232217  0.33263451  0.69180131  1
  O  O350  1  0.04596598  0.84468578  0.18745875  1
  O  O351  1  0.04422985  0.83086951  0.69559903  1
  O  O352  1  0.37906070  0.33228650  0.19584948  1
  O  O353  1  0.37592990  0.33440879  0.69622416  1
  O  O354  1  0.38080427  0.83376227  0.19387164  1
  O  O355  1  0.36653187  0.83126333  0.69371431  1
  O  O356  1  0.70789257  0.33549951  0.19757573  1
  O  O357  1  0.70552122  0.33144268  0.69673913  1
  O  O358  1  0.70825991  0.83139564  0.19982192  1
  O  O359  1  0.71151017  0.83652202  0.69765269  1
  O  O360  1  0.21534976  0.41762556  0.19195786  1
  O  O361  1  0.21095935  0.41495796  0.69361698  1
  O  O362  1  0.21481313  0.91785843  0.19954529  1
  O  O363  1  0.21186759  0.91635085  0.68870032  1
  O  O364  1  0.54469355  0.41353630  0.19636041  1
  O  O365  1  0.54167160  0.41331056  0.69696503  1
  O  O366  1  0.54972015  0.91740131  0.19882782  1
  O  O367  1  0.54542154  0.92729766  0.69380940  1
  O  O368  1  0.87366300  0.41487573  0.19632020  1
  O  O369  1  0.87803836  0.40900669  0.69248842  1
  O  O370  1  0.87142430  0.91685547  0.19409637  1
  O  O371  1  0.87578877  0.92263445  0.68912279  1
  O  O372  1  0.04457569  0.16770150  0.19925222  1
  O  O373  1  0.03438992  0.16910705  0.69188922  1
  O  O374  1  0.05029545  0.65630685  0.19540330  1
  O  O375  1  0.04436772  0.66263006  0.68765968  1
  O  O376  1  0.38333454  0.16758536  0.19774572  1
  O  O377  1  0.37467577  0.16696033  0.69585378  1
  O  O378  1  0.38179000  0.66678991  0.19356000  1
  O  O379  1  0.36968791  0.66507708  0.69271616  1
  O  O380  1  0.70828751  0.17046915  0.19676572  1
  O  O381  1  0.70815530  0.16828210  0.69675312  1
  O  O382  1  0.71043190  0.66274735  0.19860803  1
  O  O383  1  0.71215005  0.66346932  0.70175271  1
  O  O384  1  0.12677775  0.08176160  0.30359031  1
  O  O385  1  0.12057222  0.07812882  0.80526922  1
  O  O386  1  0.12417987  0.58250954  0.30719307  1
  O  O387  1  0.12102764  0.58308827  0.80231139  1
  O  O388  1  0.45927689  0.08552496  0.30799372  1
  O  O389  1  0.45343925  0.08402559  0.81049868  1
  O  O390  1  0.45226251  0.58600477  0.30851265  1
  O  O391  1  0.45192092  0.57681002  0.80473459  1
  O  O392  1  0.78885597  0.08569125  0.30242694  1
  O  O393  1  0.79219156  0.08545864  0.80565358  1
  O  O394  1  0.79338404  0.57913469  0.30771665  1
  O  O395  1  0.78550561  0.57699327  0.81040719  1
  O  O396  1  0.29898511  0.33180304  0.30941313  1
  O  O397  1  0.28946846  0.33481888  0.80493901  1
  O  O398  1  0.29211654  0.83473758  0.30533090  1
  O  O399  1  0.28674996  0.83026572  0.80458901  1
  O  O400  1  0.62412944  0.33611201  0.30771962  1
  O  O401  1  0.62069417  0.33391844  0.81020627  1
  O  O402  1  0.62568506  0.83260721  0.30872312  1
  O  O403  1  0.63221151  0.83330840  0.80431794  1
  O  O404  1  0.95856911  0.33376723  0.30649407  1
  O  O405  1  0.95734275  0.33345811  0.80536305  1
  O  O406  1  0.95204694  0.83929409  0.30279024  1
  O  O407  1  0.95401270  0.83685537  0.80153520  1
  O  O408  1  0.12368062  0.41852536  0.29878519  1
  O  O409  1  0.12040790  0.41284060  0.80290441  1
  O  O410  1  0.11991603  0.91728235  0.30244049  1
  O  O411  1  0.12295301  0.91752314  0.79415276  1
  O  O412  1  0.45517165  0.41290015  0.30767558  1
  O  O413  1  0.45259418  0.41641908  0.80533696  1
  O  O414  1  0.45638813  0.91744667  0.30077136  1
  O  O415  1  0.44916952  0.92197700  0.80953793  1
  O  O416  1  0.79072471  0.41397664  0.30544832  1
  O  O417  1  0.78880210  0.41618533  0.80015856  1
  O  O418  1  0.79258925  0.91755276  0.30689047  1
  O  O419  1  0.79090405  0.92119960  0.80409766  1
  O  O420  1  0.29179469  0.16513539  0.30522271  1
  O  O421  1  0.29965247  0.16994558  0.80590141  1
  O  O422  1  0.29249834  0.66950416  0.30361488  1
  O  O423  1  0.28674533  0.66235227  0.80292079  1
  O  O424  1  0.62506115  0.17106619  0.30988675  1
  O  O425  1  0.62036352  0.16677494  0.80260368  1
  O  O426  1  0.62189268  0.66364142  0.30240696  1
  O  O427  1  0.62467530  0.66593860  0.80979988  1
  O  O428  1  0.95948057  0.16768115  0.30825570  1
  O  O429  1  0.95894497  0.16687693  0.80326988  1
  O  O430  1  0.95166777  0.65802392  0.30468163  1
  O  O431  1  0.95476396  0.66543259  0.79222662  1
  F  F432  1  0.04601105  0.00243038  0.20049596  1
  F  F433  1  0.04449902  0.00553339  0.69495308  1
  F  F434  1  0.04406349  0.49889759  0.19954927  1
  F  F435  1  0.04211372  0.49659423  0.69866951  1
  F  F436  1  0.38290418  0.00403467  0.20190453  1
  F  F437  1  0.37908025  0.00127714  0.70400990  1
  F  F438  1  0.37833832  0.49773996  0.20338595  1
  F  F439  1  0.37737467  0.49722740  0.69884853  1
  F  F440  1  0.70910810  -0.00083191  0.20505995  1
  F  F441  1  0.71053656  0.00581523  0.70296399  1
  F  F442  1  0.71179872  0.49896505  0.20442157  1
  F  F443  1  0.70785916  0.49838079  0.70209510  1
  F  F444  1  0.21859875  0.24823663  0.20180727  1
  F  F445  1  0.21625545  0.26063289  0.69619558  1
  F  F446  1  0.21652760  0.75162992  0.19796180  1
  F  F447  1  0.21145075  0.74737958  0.70072584  1
  F  F448  1  0.54650741  0.25120636  0.20587383  1
  F  F449  1  0.54203676  0.25184747  0.70396109  1
  F  F450  1  0.54647432  0.75118941  0.20470505  1
  F  F451  1  0.55258155  0.73937140  0.69560394  1
  F  F452  1  0.87830736  0.25044406  0.20541562  1
  F  F453  1  0.87630761  0.25093420  0.70333675  1
  F  F454  1  0.86147626  0.74836150  0.19863028  1
  F  F455  1  0.87933816  0.76041648  0.69137734  1
  F  F456  1  0.28978922  0.00356475  0.29803419  1
  F  F457  1  0.28586293  -0.00108470  0.79667340  1
  F  F458  1  0.29005335  0.49817120  0.30093699  1
  F  F459  1  0.29100114  0.49996937  0.79790795  1
  F  F460  1  0.62369613  0.00187618  0.30242005  1
  F  F461  1  0.62034641  0.00258048  0.80042689  1
  F  F462  1  0.62656920  0.49709577  0.30346613  1
  F  F463  1  0.61708301  0.49785284  0.79929776  1
  F  F464  1  0.95796351  -0.00031041  0.29725240  1
  F  F465  1  0.95412306  0.00210037  0.79129813  1
  F  F466  1  0.95550365  0.49777704  0.29599819  1
  F  F467  1  0.95373451  0.49693529  0.79706277  1
  F  F468  1  0.12395955  0.24817368  0.30022864  1
  F  F469  1  0.11754876  0.26004958  0.79891525  1
  F  F470  1  0.13402716  0.75205770  0.29644571  1
  F  F471  1  0.12018070  0.74582000  0.79402336  1
  F  F472  1  0.45654597  0.25094672  0.30031459  1
  F  F473  1  0.45232405  0.25142304  0.79911962  1
  F  F474  1  0.45445533  0.74966232  0.29810253  1
  F  F475  1  0.44515892  0.73941536  0.80522717  1
  F  F476  1  0.78844401  0.25141840  0.30015253  1
  F  F477  1  0.78767134  0.25014844  0.79945048  1
  F  F478  1  0.78965114  0.74802246  0.30106864  1
  F  F479  1  0.79082267  0.75390556  0.79837256  1
