# generated using pymatgen
data_K24Na3Li5Mg64Fe17Si79(O5F)48
_symmetry_space_group_name_H-M   'P 1'
_cell_length_a   16.08722902
_cell_length_b   18.57114030
_cell_length_c   20.54132957
_cell_angle_alpha   89.99067980
_cell_angle_beta   99.99783177
_cell_angle_gamma   90.01703853
_symmetry_Int_Tables_number   1
_chemical_formula_structural   K24Na3Li5Mg64Fe17Si79(O5F)48
_chemical_formula_sum   'K24 Na3 Li5 Mg64 Fe17 Si79 O240 F48'
_cell_volume   6043.69724590
_cell_formula_units_Z   1
loop_
 _symmetry_equiv_pos_site_id
 _symmetry_equiv_pos_as_xyz
  1  'x, y, z'
loop_
 _atom_site_type_symbol
 _atom_site_label
 _atom_site_symmetry_multiplicity
 _atom_site_fract_x
 _atom_site_fract_y
 _atom_site_fract_z
 _atom_site_occupancy
  K  K0  1  -0.01175013  0.00268066  -0.00663886  1
  K  K1  1  -0.01041615  0.00347432  0.50009111  1
  K  K2  1  0.00279037  0.49700372  0.00255020  1
  K  K3  1  -0.00567430  0.49927257  0.49718049  1
  K  K4  1  0.33429731  0.00247426  0.00314729  1
  K  K5  1  0.33563109  -0.00706085  0.49846497  1
  K  K6  1  0.32948483  0.49676004  0.00461732  1
  K  K7  1  0.33145896  0.50478558  0.49772786  1
  K  K8  1  0.67677228  -0.00569021  0.00257575  1
  K  K9  1  0.66413933  0.00350205  0.50290522  1
  K  K10  1  0.67151091  0.50534733  -0.00127344  1
  K  K11  1  0.66711462  0.50013981  0.50703552  1
  K  K12  1  0.15371269  0.24436744  -0.00010420  1
  K  K13  1  0.16469025  0.25388040  0.49899742  1
  K  K14  1  0.15567033  0.75282034  -0.00543536  1
  K  K15  1  0.16047911  0.75104944  0.49926632  1
  K  K16  1  0.50134600  0.24683808  0.00294508  1
  K  K17  1  0.50626641  0.25010024  0.49968188  1
  K  K18  1  0.50785901  0.74385892  0.00278074  1
  K  K19  1  0.50716776  0.75026228  0.50239838  1
  K  K20  1  0.84501286  0.24857232  -0.00303037  1
  K  K21  1  0.83205551  0.24929038  0.50231697  1
  K  K22  1  0.83140747  0.75320559  0.00206704  1
  K  K23  1  0.82986353  0.75348466  0.49875050  1
  Na  Na24  1  0.50196131  0.00040916  0.25421010  1
  Na  Na25  1  0.33655944  0.58118917  0.74683697  1
  Na  Na26  1  0.33183152  0.41792908  0.24753003  1
  Li  Li27  1  -0.00326810  0.24708706  0.75357798  1
  Li  Li28  1  0.67017528  0.74937408  0.24265636  1
  Li  Li29  1  0.16650873  0.83350271  0.75498433  1
  Li  Li30  1  0.66785590  0.42290053  0.74195382  1
  Li  Li31  1  0.66243212  0.57446536  0.74104878  1
  Mg  Mg32  1  0.16654617  0.00050406  0.25505147  1
  Mg  Mg33  1  0.66846347  0.25357423  0.74833749  1
  Mg  Mg34  1  -0.00142509  0.75157722  0.24967444  1
  Mg  Mg35  1  0.16616425  0.50069157  0.24683614  1
  Mg  Mg36  1  0.33493948  0.75189610  0.24944092  1
  Mg  Mg37  1  0.33444679  0.24965206  0.75289598  1
  Mg  Mg38  1  0.83527831  0.00055245  0.75149553  1
  Mg  Mg39  1  0.66370321  0.25017196  0.25446787  1
  Mg  Mg40  1  0.33073045  0.74908725  0.74751352  1
  Mg  Mg41  1  0.49884983  -0.00195422  0.74833823  1
  Mg  Mg42  1  -0.00198933  0.25023507  0.25238109  1
  Mg  Mg43  1  0.16497383  -0.00126289  0.75673750  1
  Mg  Mg44  1  0.66537741  0.74544092  0.74567601  1
  Mg  Mg45  1  0.82937084  0.49827990  0.74821708  1
  Mg  Mg46  1  0.50670887  0.50029529  0.74566070  1
  Mg  Mg47  1  0.33172991  0.24978884  0.25019312  1
  Mg  Mg48  1  0.00297843  0.75010297  0.75507438  1
  Mg  Mg49  1  0.17004197  0.49907417  0.75177916  1
  Mg  Mg50  1  0.83094786  0.50175489  0.25123624  1
  Mg  Mg51  1  0.83300251  -0.00064262  0.24834525  1
  Mg  Mg52  1  0.49783707  0.49974106  0.24692341  1
  Mg  Mg53  1  0.83521181  0.83257766  0.75047951  1
  Mg  Mg54  1  0.83314409  0.16647155  0.25210535  1
  Mg  Mg55  1  0.16814173  0.16664680  0.25431139  1
  Mg  Mg56  1  0.66732329  0.58684142  0.24842861  1
  Mg  Mg57  1  0.83100700  0.66310347  0.75006046  1
  Mg  Mg58  1  0.50130544  0.16466788  0.25426305  1
  Mg  Mg59  1  0.83269464  0.33609102  0.25482415  1
  Mg  Mg60  1  0.16662376  0.66637997  0.24816988  1
  Mg  Mg61  1  0.66663539  0.08344063  0.25320788  1
  Mg  Mg62  1  0.66690758  0.41623265  0.25399115  1
  Mg  Mg63  1  0.00049824  0.08648616  0.75291436  1
  Mg  Mg64  1  0.16695294  0.33210324  0.75271543  1
  Mg  Mg65  1  0.00004017  0.08554944  0.25324690  1
  Mg  Mg66  1  0.33455499  0.08358431  0.25475408  1
  Mg  Mg67  1  0.33734768  0.41651207  0.75115611  1
  Mg  Mg68  1  0.16663596  0.83527990  0.25134084  1
  Mg  Mg69  1  0.00144813  0.58280122  0.75213584  1
  Mg  Mg70  1  0.16724074  0.33504342  0.24755895  1
  Mg  Mg71  1  0.00373668  0.91340600  0.75575673  1
  Mg  Mg72  1  0.49971080  0.33338890  0.25139960  1
  Mg  Mg73  1  0.16293027  0.16646016  0.75508312  1
  Mg  Mg74  1  0.50443131  0.33602223  0.74782182  1
  Mg  Mg75  1  0.66656677  0.08446811  0.74884509  1
  Mg  Mg76  1  0.33135256  0.08384288  0.75338203  1
  Mg  Mg77  1  0.83135375  0.83375319  0.24446805  1
  Mg  Mg78  1  0.33572208  0.91665255  0.25142585  1
  Mg  Mg79  1  0.16915593  0.66727511  0.75183520  1
  Mg  Mg80  1  0.00014383  0.41331985  0.75175508  1
  Mg  Mg81  1  0.49980273  0.16609263  0.75029743  1
  Mg  Mg82  1  0.50055563  0.66417204  0.74636446  1
  Mg  Mg83  1  -0.00224964  0.58592990  0.24875767  1
  Mg  Mg84  1  0.50429239  0.83278185  0.24683209  1
  Mg  Mg85  1  0.32881245  0.91458564  0.75049910  1
  Mg  Mg86  1  0.00011831  0.91711728  0.25050180  1
  Mg  Mg87  1  0.83708429  0.16729588  0.75030340  1
  Mg  Mg88  1  -0.00026171  0.41615601  0.25008639  1
  Mg  Mg89  1  0.33274648  0.58472481  0.24483854  1
  Mg  Mg90  1  0.50250192  0.66723662  0.24454645  1
  Mg  Mg91  1  0.66762788  0.91370862  0.24506934  1
  Mg  Mg92  1  0.66443532  0.91447057  0.74799726  1
  Mg  Mg93  1  0.49702252  0.83317577  0.74599532  1
  Mg  Mg94  1  0.83110275  0.66864526  0.24845666  1
  Mg  Mg95  1  0.83332108  0.33398580  0.75159687  1
  Fe  Fe96  1  0.51521612  0.58639096  0.60468161  1
  Fe  Fe97  1  0.52158954  0.91375597  0.60801296  1
  Fe  Fe98  1  0.97586195  0.67127388  0.38790718  1
  Fe  Fe99  1  0.14563643  0.91989697  0.39133545  1
  Fe  Fe100  1  0.30781951  0.17227967  0.39218077  1
  Fe  Fe101  1  0.63975149  0.16124545  0.39416669  1
  Fe  Fe102  1  0.68982398  0.33844819  0.61217674  1
  Fe  Fe103  1  0.80905564  0.42406733  0.39281527  1
  Fe  Fe104  1  0.19014319  0.41775499  0.10542354  1
  Fe  Fe105  1  0.97461206  0.83106714  0.89395106  1
  Fe  Fe106  1  0.97326465  0.16455554  0.39133017  1
  Fe  Fe107  1  0.97317419  0.16882454  0.89435297  1
  Fe  Fe108  1  0.68911014  0.66081485  0.10644375  1
  Fe  Fe109  1  0.86082580  0.08385662  0.61044612  1
  Fe  Fe110  1  0.63700283  0.33548066  0.39405108  1
  Fe  Fe111  1  0.85885736  0.91927464  0.10750859  1
  Fe  Fe112  1  0.14701714  0.08134349  0.89629603  1
  Si  Si113  1  0.97960330  0.33530500  0.39009524  1
  Si  Si114  1  0.52143417  0.41311258  0.11338273  1
  Si  Si115  1  0.97517307  0.34212033  0.89024837  1
  Si  Si116  1  0.63627019  0.66671693  0.38143001  1
  Si  Si117  1  0.14262567  0.08598326  0.39101006  1
  Si  Si118  1  0.68679956  0.16713797  0.61372474  1
  Si  Si119  1  0.14653412  0.41671804  0.88653618  1
  Si  Si120  1  0.35976760  0.16088999  0.11474426  1
  Si  Si121  1  0.35756331  0.33030459  0.61602209  1
  Si  Si122  1  0.97611564  0.83853022  0.38753408  1
  Si  Si123  1  0.48006471  0.41825451  0.88627335  1
  Si  Si124  1  0.80674290  0.91087959  0.38140459  1
  Si  Si125  1  0.47002733  0.91606327  0.88543259  1
  Si  Si126  1  0.35975180  0.67172378  0.11166289  1
  Si  Si127  1  0.97733645  0.65781507  0.88999915  1
  Si  Si128  1  0.79980408  0.91588503  0.88614530  1
  Si  Si129  1  0.80650218  0.58176095  0.88420833  1
  Si  Si130  1  0.02606538  0.66818721  0.11273899  1
  Si  Si131  1  0.31150110  0.82772521  0.38786606  1
  Si  Si132  1  0.52090612  0.08476307  0.61463463  1
  Si  Si133  1  0.64154269  0.33076153  0.88571800  1
  Si  Si134  1  0.79980381  0.08316196  0.88800095  1
  Si  Si135  1  0.47513859  0.91051377  0.38460507  1
  Si  Si136  1  0.30692522  0.33769439  0.38597100  1
  Si  Si137  1  0.02827143  0.66673052  0.61657869  1
  Si  Si138  1  0.46895908  0.41978140  0.38404579  1
  Si  Si139  1  0.03319059  0.16970395  0.61475479  1
  Si  Si140  1  0.52913678  0.08577944  0.11438146  1
  Si  Si141  1  0.63608013  0.16636689  0.88586111  1
  Si  Si142  1  0.14963107  0.91293860  0.89300175  1
  Si  Si143  1  0.51513087  0.41705550  0.60881871  1
  Si  Si144  1  0.03009944  0.83216122  0.61920713  1
  Si  Si145  1  0.68947127  0.33743399  0.11503552  1
  Si  Si146  1  0.86322637  0.58418152  0.61549534  1
  Si  Si147  1  0.02190607  0.33038494  0.11202720  1
  Si  Si148  1  0.80433312  0.07528533  0.38690586  1
  Si  Si149  1  0.86587136  0.41734037  0.61392533  1
  Si  Si150  1  0.31392709  0.66558130  0.88605253  1
  Si  Si151  1  0.14206056  0.41832972  0.38392618  1
  Si  Si152  1  0.35023256  0.67343506  0.61027460  1
  Si  Si153  1  0.46732170  0.07920165  0.39245646  1
  Si  Si154  1  0.68847010  0.83336811  0.10459266  1
  Si  Si155  1  0.19257405  0.07889698  0.11741614  1
  Si  Si156  1  0.19222112  0.59094577  0.10804459  1
  Si  Si157  1  0.51770542  0.57752537  0.10882407  1
  Si  Si158  1  0.31090585  0.82810998  0.88618410  1
  Si  Si159  1  0.35828975  0.16684091  0.61775171  1
  Si  Si160  1  0.48159197  0.58278728  0.88492938  1
  Si  Si161  1  0.14362807  0.58231569  0.38441589  1
  Si  Si162  1  0.69467703  0.66368564  0.61164373  1
  Si  Si163  1  0.30974575  0.66376913  0.38172760  1
  Si  Si164  1  0.02949730  0.83362926  0.11215314  1
  Si  Si165  1  0.19669253  0.91353312  0.11566137  1
  Si  Si166  1  0.34828831  0.83402012  0.61187317  1
  Si  Si167  1  0.18947454  0.58206373  0.61568277  1
  Si  Si168  1  0.02828074  0.16434502  0.11671646  1
  Si  Si169  1  0.64242135  0.66909403  0.88324976  1
  Si  Si170  1  0.03202405  0.33557278  0.61734891  1
  Si  Si171  1  0.36142740  0.32465816  0.11087404  1
  Si  Si172  1  0.69143261  0.17255705  0.11463014  1
  Si  Si173  1  0.31438789  0.33620573  0.88652682  1
  Si  Si174  1  0.31208781  0.17138473  0.89063456  1
  Si  Si175  1  0.19574045  0.41695933  0.61582376  1
  Si  Si176  1  0.80606451  0.41833599  0.88566558  1
  Si  Si177  1  0.14831055  0.58189240  0.88690856  1
  Si  Si178  1  0.47253153  0.08226232  0.88632637  1
  Si  Si179  1  0.69674188  0.82983348  0.61226488  1
  Si  Si180  1  0.85555575  0.08952793  0.11181004  1
  Si  Si181  1  0.64077583  0.83198062  0.38114608  1
  Si  Si182  1  0.19518259  0.08521362  0.61788167  1
  Si  Si183  1  0.47453956  0.58348103  0.38138830  1
  Si  Si184  1  0.86208008  0.91219602  0.61406150  1
  Si  Si185  1  0.80655979  0.59247015  0.38838638  1
  Si  Si186  1  0.18941411  0.92174893  0.61865852  1
  Si  Si187  1  0.86308671  0.57875087  0.11003996  1
  Si  Si188  1  0.63454463  0.83260600  0.88341673  1
  Si  Si189  1  0.85851253  0.41279359  0.11454465  1
  Si  Si190  1  0.52908444  0.91911834  0.11152446  1
  Si  Si191  1  0.36409229  0.83711233  0.11281825  1
  O  O192  1  0.27242698  0.11475053  0.08753119  1
  O  O193  1  0.28079597  0.11135327  0.58964384  1
  O  O194  1  0.26726169  0.63792855  0.08107315  1
  O  O195  1  0.26808225  0.61855127  0.58670683  1
  O  O196  1  0.60472409  0.12718403  0.08229323  1
  O  O197  1  0.60679516  0.11047223  0.58942427  1
  O  O198  1  0.59116189  0.60530874  0.07078917  1
  O  O199  1  0.61376413  0.61933654  0.57438694  1
  O  O200  1  0.93834906  0.12569630  0.08592290  1
  O  O201  1  0.95481042  0.12236674  0.57799738  1
  O  O202  1  0.94519645  0.61665520  0.08402402  1
  O  O203  1  0.94073532  0.62422882  0.58613009  1
  O  O204  1  0.08513888  0.37315880  0.07259250  1
  O  O205  1  0.11198630  0.36965354  0.58568334  1
  O  O206  1  0.11742012  0.86040030  0.08700449  1
  O  O207  1  0.10718137  0.87148821  0.58920290  1
  O  O208  1  0.44587490  0.35681838  0.08283225  1
  O  O209  1  0.43801273  0.35588086  0.58395716  1
  O  O210  1  0.43778373  0.87962422  0.08158631  1
  O  O211  1  0.42697779  0.85517950  0.57612936  1
  O  O212  1  0.76564057  0.37726721  0.08436869  1
  O  O213  1  0.78638989  0.37120656  0.57872225  1
  O  O214  1  0.76348334  0.86610027  0.06894399  1
  O  O215  1  0.78289054  0.85741989  0.58685741  1
  O  O216  1  0.28150767  0.37142141  0.07500543  1
  O  O217  1  0.27575843  0.38194275  0.58676870  1
  O  O218  1  0.27624119  0.88035051  0.08376827  1
  O  O219  1  0.26945535  0.89051525  0.58710480  1
  O  O220  1  0.60485987  0.38447442  0.08385343  1
  O  O221  1  0.59646186  0.39549880  0.57640512  1
  O  O222  1  0.60225870  0.88329791  0.07595116  1
  O  O223  1  0.61763029  0.87820332  0.57695830  1
  O  O224  1  0.92569620  0.36202220  0.08408757  1
  O  O225  1  0.95096259  0.38615953  0.58738422  1
  O  O226  1  0.95493780  0.88461250  0.07580826  1
  O  O227  1  0.94311441  0.87417770  0.58704411  1
  O  O228  1  0.10590479  0.12390115  0.08810566  1
  O  O229  1  0.12005582  0.14135227  0.58777395  1
  O  O230  1  0.10565468  0.63754064  0.08056526  1
  O  O231  1  0.10292111  0.62649553  0.58427099  1
  O  O232  1  0.43741352  0.12335774  0.08286187  1
  O  O233  1  0.44382676  0.14367319  0.59021823  1
  O  O234  1  0.43070958  0.62527153  0.08106276  1
  O  O235  1  0.42391308  0.65008311  0.57013421  1
  O  O236  1  0.77281177  0.14241552  0.08418313  1
  O  O237  1  0.76458638  0.13888842  0.57973804  1
  O  O238  1  0.77935394  0.61746748  0.07094232  1
  O  O239  1  0.77853930  0.62968954  0.58473932  1
  O  O240  1  0.05466962  0.09412413  0.41974140  1
  O  O241  1  0.06137433  0.11307540  0.93821564  1
  O  O242  1  0.06715325  0.60788192  0.42043260  1
  O  O243  1  0.06667206  0.61212140  0.91683082  1
  O  O244  1  0.38413983  0.09865188  0.42459173  1
  O  O245  1  0.39656445  0.12042119  0.91759901  1
  O  O246  1  0.39031793  0.61161807  0.40960016  1
  O  O247  1  0.40023476  0.61827898  0.91387272  1
  O  O248  1  0.71881121  0.08708433  0.41660534  1
  O  O249  1  0.71606643  0.11564157  0.91611464  1
  O  O250  1  0.71576488  0.61518807  0.41249061  1
  O  O251  1  0.73361010  0.62999622  0.91224449  1
  O  O252  1  0.22082674  0.36542737  0.41422561  1
  O  O253  1  0.23230676  0.36898565  0.91526888  1
  O  O254  1  0.23403017  0.85318988  0.42271936  1
  O  O255  1  0.22857323  0.85390866  0.91624652  1
  O  O256  1  0.53397538  0.36187162  0.42210508  1
  O  O257  1  0.56564702  0.37187431  0.91773590  1
  O  O258  1  0.56149662  0.86431936  0.41368499  1
  O  O259  1  0.55455612  0.86806548  0.91332607  1
  O  O260  1  0.90120486  0.36199556  0.42374145  1
  O  O261  1  0.89959399  0.38697690  0.92046643  1
  O  O262  1  0.88408030  0.85626126  0.41105175  1
  O  O263  1  0.87928132  0.87027118  0.92318196  1
  O  O264  1  0.05893903  0.39378309  0.41434815  1
  O  O265  1  0.06499151  0.38794858  0.91671447  1
  O  O266  1  0.04225791  0.90095562  0.41900828  1
  O  O267  1  0.07244716  0.88358732  0.92808847  1
  O  O268  1  0.37454050  0.40521263  0.40387934  1
  O  O269  1  0.39825963  0.38538723  0.91609341  1
  O  O270  1  0.39768726  0.87435827  0.41694129  1
  O  O271  1  0.39222921  0.88073993  0.91721424  1
  O  O272  1  0.71216425  0.40746576  0.42592026  1
  O  O273  1  0.73214370  0.37105670  0.91449047  1
  O  O274  1  0.72486721  0.87982473  0.41195925  1
  O  O275  1  0.71525828  0.88338982  0.91234324  1
  O  O276  1  0.20374080  0.15376292  0.41816516  1
  O  O277  1  0.23825608  0.14601550  0.92832479  1
  O  O278  1  0.22840524  0.63251967  0.41131120  1
  O  O279  1  0.23444808  0.62857253  0.91674423  1
  O  O280  1  0.54587543  0.12719015  0.42927984  1
  O  O281  1  0.55647147  0.13024919  0.91569730  1
  O  O282  1  0.55300903  0.63750808  0.41142291  1
  O  O283  1  0.56805766  0.62799497  0.91664361  1
  O  O284  1  0.87630388  0.13129614  0.42155752  1
  O  O285  1  0.87809606  0.12890368  0.92603223  1
  O  O286  1  0.87349463  0.65536859  0.41738142  1
  O  O287  1  0.90109293  0.61257460  0.91743466  1
  O  O288  1  0.18077678  -0.00367507  0.08723999  1
  O  O289  1  0.17113369  0.00388532  0.58858895  1
  O  O290  1  0.18509552  0.51396017  0.07129871  1
  O  O291  1  0.18066857  0.49906211  0.58566640  1
  O  O292  1  0.52096454  0.00320989  0.08423735  1
  O  O293  1  0.49150314  0.00850586  0.58036226  1
  O  O294  1  0.49415319  0.49350464  0.08309681  1
  O  O295  1  0.47814060  0.49337539  0.57672715  1
  O  O296  1  0.83659533  0.01378311  0.07388976  1
  O  O297  1  0.84360968  -0.01148098  0.57703906  1
  O  O298  1  0.86227502  0.49389521  0.08301430  1
  O  O299  1  0.85729176  0.50197265  0.58644715  1
  O  O300  1  0.02069008  0.24599860  0.08597515  1
  O  O301  1  0.01994883  0.25391544  0.58738554  1
  O  O302  1  0.00998498  0.75031608  0.08392740  1
  O  O303  1  0.02272559  0.74953899  0.58819475  1
  O  O304  1  0.34927247  0.24114336  0.08087474  1
  O  O305  1  0.33083770  0.24793737  0.58988234  1
  O  O306  1  0.36015290  0.75465749  0.08246896  1
  O  O307  1  0.31288016  0.75407810  0.58506866  1
  O  O308  1  0.67475204  0.25518487  0.08436617  1
  O  O309  1  0.65475967  0.24499555  0.58489278  1
  O  O310  1  0.66475310  0.75400186  0.07305147  1
  O  O311  1  0.68406102  0.74729341  0.58269796  1
  O  O312  1  0.18816270  0.01053123  0.41884635  1
  O  O313  1  0.18601365  -0.01117433  0.92583497  1
  O  O314  1  0.17009582  0.49985438  0.41090832  1
  O  O315  1  0.16725574  0.49919141  0.91497368  1
  O  O316  1  0.49040703  -0.00740348  0.41223626  1
  O  O317  1  0.48463293  -0.00092010  0.91521849  1
  O  O318  1  0.49504327  0.50292295  0.41160475  1
  O  O319  1  0.49405428  0.50044225  0.91650055  1
  O  O320  1  0.83421675  -0.00875817  0.40974878  1
  O  O321  1  0.80717153  -0.00098115  0.91447544  1
  O  O322  1  0.84128799  0.51775819  0.42352257  1
  O  O323  1  0.79958507  0.50048926  0.91592678  1
  O  O324  1  0.34127821  0.26556486  0.42619054  1
  O  O325  1  0.33857617  0.25507075  0.91557794  1
  O  O326  1  0.33463010  0.74375467  0.41232831  1
  O  O327  1  0.33333440  0.74674081  0.91824232  1
  O  O328  1  0.67736452  0.24853413  0.43081009  1
  O  O329  1  0.64858376  0.24809811  0.91804513  1
  O  O330  1  0.65549964  0.74918659  0.41077441  1
  O  O331  1  0.64900884  0.75140025  0.91544834  1
  O  O332  1  1.01207977  0.25729524  0.42000555  1
  O  O333  1  0.98516009  0.26556985  0.92773313  1
  O  O334  1  1.01050544  0.76247000  0.42128697  1
  O  O335  1  0.98804317  0.73487579  0.92670567  1
  O  O336  1  0.20888832  0.08045895  0.19738209  1
  O  O337  1  0.21289698  0.08463311  0.69841788  1
  O  O338  1  0.20873032  0.58795666  0.18889357  1
  O  O339  1  0.20023496  0.58150657  0.69491460  1
  O  O340  1  0.54779629  0.08933390  0.19312778  1
  O  O341  1  0.53948658  0.08303383  0.69622170  1
  O  O342  1  0.54015367  0.58261520  0.18921873  1
  O  O343  1  0.53927926  0.58504097  0.69492426  1
  O  O344  1  0.87311035  0.08531797  0.19231067  1
  O  O345  1  0.87828637  0.08137254  0.70212384  1
  O  O346  1  0.87587417  0.58060247  0.19064127  1
  O  O347  1  0.88091011  0.58400494  0.69595615  1
  O  O348  1  0.03978637  0.33352262  0.19283709  1
  O  O349  1  0.05040260  0.33779721  0.69706568  1
  O  O350  1  0.04432530  0.83257754  0.19288846  1
  O  O351  1  0.04430360  0.83121580  0.69871791  1
  O  O352  1  0.37978064  0.32383688  0.19059642  1
  O  O353  1  0.37601847  0.33086386  0.69674466  1
  O  O354  1  0.37824509  0.83453462  0.19289785  1
  O  O355  1  0.37229691  0.83551055  0.69300917  1
  O  O356  1  0.70873895  0.33441537  0.19459596  1
  O  O357  1  0.71365748  0.33440471  0.70268155  1
  O  O358  1  0.71066744  0.83768467  0.18496634  1
  O  O359  1  0.71016580  0.83166606  0.69358079  1
  O  O360  1  0.19863192  0.41852043  0.19499260  1
  O  O361  1  0.21277123  0.41593450  0.69619426  1
  O  O362  1  0.21439314  0.91390363  0.19578443  1
  O  O363  1  0.20981825  0.92176335  0.69844410  1
  O  O364  1  0.54105770  0.41618341  0.19315444  1
  O  O365  1  0.53501314  0.41473695  0.68957735  1
  O  O366  1  0.54757010  0.91133247  0.19034699  1
  O  O367  1  0.54277836  0.91592742  0.70000956  1
  O  O368  1  0.87708112  0.41561541  0.19457309  1
  O  O369  1  0.88120364  0.41716921  0.69481904  1
  O  O370  1  0.87962273  0.91769220  0.19901946  1
  O  O371  1  0.87720335  0.91529391  0.69505655  1
  O  O372  1  0.04548699  0.16584115  0.19673022  1
  O  O373  1  0.04848584  0.16580788  0.69465258  1
  O  O374  1  0.04589887  0.66718498  0.19297908  1
  O  O375  1  0.04454318  0.66496648  0.69697807  1
  O  O376  1  0.37888358  0.16281009  0.19454552  1
  O  O377  1  0.37583328  0.16616526  0.69866449  1
  O  O378  1  0.37596621  0.67031423  0.19191809  1
  O  O379  1  0.37865308  0.67503731  0.68981970  1
  O  O380  1  0.71013541  0.16943607  0.19447894  1
  O  O381  1  0.70819809  0.16576416  0.69577781  1
  O  O382  1  0.71319965  0.66243694  0.19662975  1
  O  O383  1  0.71258681  0.66714231  0.69186912  1
  O  O384  1  0.12365355  0.08468177  0.30819335  1
  O  O385  1  0.12357718  0.08333254  0.80373621  1
  O  O386  1  0.12307284  0.58496927  0.30322485  1
  O  O387  1  0.12738725  0.58225638  0.80678159  1
  O  O388  1  0.45149612  0.08899539  0.31198804  1
  O  O389  1  0.45563967  0.08250603  0.80604642  1
  O  O390  1  0.45598387  0.58536228  0.30076077  1
  O  O391  1  0.46707665  0.58246180  0.80621534  1
  O  O392  1  0.79084158  0.08136694  0.30501311  1
  O  O393  1  0.78507377  0.08353787  0.80733170  1
  O  O394  1  0.79031396  0.58590747  0.30675655  1
  O  O395  1  0.79529000  0.58203935  0.80507475  1
  O  O396  1  0.28371401  0.32618071  0.30657399  1
  O  O397  1  0.29401647  0.33427093  0.80628556  1
  O  O398  1  0.29165560  0.83126175  0.30648080  1
  O  O399  1  0.29697689  0.83064800  0.80661247  1
  O  O400  1  0.62080148  0.33401257  0.30052909  1
  O  O401  1  0.61861005  0.32661866  0.80711945  1
  O  O402  1  0.62205382  0.83410569  0.30152617  1
  O  O403  1  0.61962959  0.83150723  0.80333002  1
  O  O404  1  0.95860464  0.33582958  0.30784380  1
  O  O405  1  0.95570362  0.34011005  0.81027549  1
  O  O406  1  0.95946982  0.83417551  0.30588721  1
  O  O407  1  0.95458854  0.83107883  0.80230297  1
  O  O408  1  0.12137718  0.41799807  0.30347429  1
  O  O409  1  0.12663530  0.41615472  0.80639959  1
  O  O410  1  0.12251853  0.91597176  0.29900526  1
  O  O411  1  0.12511282  0.91665387  0.81242030  1
  O  O412  1  0.46438452  0.41954898  0.30432509  1
  O  O413  1  0.46012711  0.41498090  0.80651443  1
  O  O414  1  0.45328349  0.90524760  0.30513056  1
  O  O415  1  0.45267265  0.91663126  0.80531943  1
  O  O416  1  0.78884905  0.41940989  0.29981013  1
  O  O417  1  0.79603106  0.41807426  0.80689731  1
  O  O418  1  0.78788060  0.91302691  0.30102973  1
  O  O419  1  0.78662287  0.91464716  0.80511190  1
  O  O420  1  0.28836271  0.16726842  0.29971113  1
  O  O421  1  0.29325588  0.16777174  0.80971386  1
  O  O422  1  0.29034300  0.66749448  0.30107482  1
  O  O423  1  0.28947524  0.67067273  0.80725637  1
  O  O424  1  0.62154927  0.16567177  0.30128785  1
  O  O425  1  0.61991920  0.16613318  0.80565449  1
  O  O426  1  0.61761550  0.66436858  0.30178836  1
  O  O427  1  0.62074538  0.67217889  0.80434927  1
  O  O428  1  0.95328163  0.16765431  0.29889569  1
  O  O429  1  0.95576274  0.16599009  0.80393025  1
  O  O430  1  0.95476966  0.66771322  0.29586725  1
  O  O431  1  0.95893604  0.66216592  0.80915817  1
  F  F432  1  0.04563111  0.00365465  0.20214268  1
  F  F433  1  0.04508665  -0.00335817  0.70604672  1
  F  F434  1  0.04261475  0.50201933  0.20081049  1
  F  F435  1  0.04772428  0.49918790  0.70486610  1
  F  F436  1  0.36769055  0.00028476  0.20012859  1
  F  F437  1  0.37612016  0.00060813  0.70429559  1
  F  F438  1  0.38131711  0.51066398  0.19364146  1
  F  F439  1  0.38307381  0.48909604  0.69972246  1
  F  F440  1  0.71247008  0.00226407  0.19797628  1
  F  F441  1  0.71158286  -0.00101964  0.70360423  1
  F  F442  1  0.71013128  0.50093080  0.19991339  1
  F  F443  1  0.71862975  0.50077667  0.69449831  1
  F  F444  1  0.20899454  0.24956117  0.19832891  1
  F  F445  1  0.21467652  0.24965064  0.70532727  1
  F  F446  1  0.21347413  0.75165410  0.20113209  1
  F  F447  1  0.21116427  0.74588526  0.70152481  1
  F  F448  1  0.54322799  0.24932102  0.20015784  1
  F  F449  1  0.54317397  0.24813750  0.70257241  1
  F  F450  1  0.53620023  0.74973624  0.19401440  1
  F  F451  1  0.54469946  0.75153580  0.69842914  1
  F  F452  1  0.87588377  0.25435263  0.20208958  1
  F  F453  1  0.87544104  0.25266944  0.70323777  1
  F  F454  1  0.87991660  0.75220161  0.19612172  1
  F  F455  1  0.88073205  0.74544079  0.70382729  1
  F  F456  1  0.28859677  -0.00304650  0.30023148  1
  F  F457  1  0.29094849  -0.00018300  0.80215485  1
  F  F458  1  0.28206949  0.51403041  0.29679123  1
  F  F459  1  0.28622152  0.49037422  0.80357618  1
  F  F460  1  0.63496895  -0.00448386  0.29804323  1
  F  F461  1  0.62004422  0.00085278  0.79877433  1
  F  F462  1  0.61891457  0.50364160  0.29344637  1
  F  F463  1  0.62151882  0.49511143  0.79683923  1
  F  F464  1  0.95392506  0.00207413  0.29683023  1
  F  F465  1  0.95427435  -0.00438449  0.80249673  1
  F  F466  1  0.95440796  0.50112950  0.29579309  1
  F  F467  1  0.95645063  0.49989561  0.79838269  1
  F  F468  1  0.11925400  0.25298917  0.29500354  1
  F  F469  1  0.13109314  0.25216718  0.80416491  1
  F  F470  1  0.12266863  0.74912057  0.29596733  1
  F  F471  1  0.12022131  0.74167310  0.80418929  1
  F  F472  1  0.45325706  0.25010943  0.29738925  1
  F  F473  1  0.45557075  0.24959414  0.79963168  1
  F  F474  1  0.45520670  0.74841497  0.29513345  1
  F  F475  1  0.45413267  0.75051739  0.79543287  1
  F  F476  1  0.78744599  0.25063572  0.29785286  1
  F  F477  1  0.78771548  0.24765543  0.80190916  1
  F  F478  1  0.79118700  0.75353414  0.29351288  1
  F  F479  1  0.78638774  0.74853932  0.79689718  1
