# generated using pymatgen
data_K24Na3Li5Mg64Fe17Si79(O5F)48
_symmetry_space_group_name_H-M   'P 1'
_cell_length_a   16.07652187
_cell_length_b   18.56787240
_cell_length_c   20.53558457
_cell_angle_alpha   90.01671043
_cell_angle_beta   100.01257865
_cell_angle_gamma   89.98387487
_symmetry_Int_Tables_number   1
_chemical_formula_structural   K24Na3Li5Mg64Fe17Si79(O5F)48
_chemical_formula_sum   'K24 Na3 Li5 Mg64 Fe17 Si79 O240 F48'
_cell_volume   6036.64885907
_cell_formula_units_Z   1
loop_
 _symmetry_equiv_pos_site_id
 _symmetry_equiv_pos_as_xyz
  1  'x, y, z'
loop_
 _atom_site_type_symbol
 _atom_site_label
 _atom_site_symmetry_multiplicity
 _atom_site_fract_x
 _atom_site_fract_y
 _atom_site_fract_z
 _atom_site_occupancy
  K  K0  1  -0.00770653  0.00216004  -0.00983754  1
  K  K1  1  -0.01339819  -0.00489489  0.50651784  1
  K  K2  1  0.00771017  0.49857482  0.00147366  1
  K  K3  1  -0.00065587  0.50267538  0.49907701  1
  K  K4  1  0.32908330  -0.00613455  -0.00124296  1
  K  K5  1  0.33876637  -0.00389894  0.50346034  1
  K  K6  1  0.32751474  0.49869925  0.00006154  1
  K  K7  1  0.32958855  0.50488366  0.49708729  1
  K  K8  1  0.66880493  0.00408338  0.00117776  1
  K  K9  1  0.66746201  -0.00525860  0.50027006  1
  K  K10  1  0.67290392  0.50560354  0.00916497  1
  K  K11  1  0.67240031  0.50404060  0.49605627  1
  K  K12  1  0.16548507  0.25454625  -0.00185033  1
  K  K13  1  0.15966721  0.24641453  0.50560117  1
  K  K14  1  0.16686907  0.75194700  -0.00342765  1
  K  K15  1  0.16694522  0.75104583  0.50428059  1
  K  K16  1  0.50280780  0.24622667  0.00268823  1
  K  K17  1  0.51122323  0.24462189  0.50159154  1
  K  K18  1  0.49969566  0.74962004  0.00045734  1
  K  K19  1  0.49422839  0.75055219  0.49781886  1
  K  K20  1  0.82919326  0.24657153  -0.00593888  1
  K  K21  1  0.84214357  0.24302780  0.50395745  1
  K  K22  1  0.83764684  0.75018264  0.00270730  1
  K  K23  1  0.83053389  0.75821445  0.50033597  1
  Na  Na24  1  0.33518887  0.74791838  0.75492251  1
  Na  Na25  1  -0.00145303  0.92027762  0.75240689  1
  Na  Na26  1  0.33360635  0.58291498  0.75426942  1
  Li  Li27  1  0.82720743  0.49896111  0.24626992  1
  Li  Li28  1  0.17325315  0.50245874  0.25023456  1
  Li  Li29  1  0.66943863  0.42232056  0.24630896  1
  Li  Li30  1  0.32948680  0.57862377  0.25136138  1
  Li  Li31  1  0.83110717  0.16329486  0.74654652  1
  Mg  Mg32  1  0.49941105  0.50047772  0.24835288  1
  Mg  Mg33  1  -0.00335631  0.24913711  0.74704758  1
  Mg  Mg34  1  0.33242941  0.24782682  0.75149167  1
  Mg  Mg35  1  0.66757070  0.24856511  0.74932612  1
  Mg  Mg36  1  0.66719567  0.25608338  0.24863349  1
  Mg  Mg37  1  0.83294087  0.50187453  0.74698959  1
  Mg  Mg38  1  0.00097185  0.25195740  0.25020343  1
  Mg  Mg39  1  0.33481770  0.25287148  0.24970512  1
  Mg  Mg40  1  0.16715345  0.49945260  0.75409051  1
  Mg  Mg41  1  0.83220651  0.00350648  0.74818446  1
  Mg  Mg42  1  0.00122766  0.74910620  0.24925242  1
  Mg  Mg43  1  0.50190554  -0.00222211  0.25160676  1
  Mg  Mg44  1  0.66845944  0.74779019  0.24842927  1
  Mg  Mg45  1  -0.00083285  0.75259077  0.74834158  1
  Mg  Mg46  1  0.16593716  0.00116621  0.75156113  1
  Mg  Mg47  1  0.16821678  -0.00269198  0.25137517  1
  Mg  Mg48  1  0.33437645  0.74530354  0.25316645  1
  Mg  Mg49  1  0.66631333  0.74875099  0.74476516  1
  Mg  Mg50  1  0.83287214  -0.00038148  0.24866875  1
  Mg  Mg51  1  0.50070525  0.00073345  0.74987824  1
  Mg  Mg52  1  0.49728444  0.50069485  0.74761972  1
  Mg  Mg53  1  -0.00394502  0.08692269  0.74654289  1
  Mg  Mg54  1  0.49934893  0.83250541  0.74988070  1
  Mg  Mg55  1  0.33404221  0.08443162  0.74951677  1
  Mg  Mg56  1  0.50009773  0.33755532  0.24894141  1
  Mg  Mg57  1  0.66606620  0.08707780  0.24870560  1
  Mg  Mg58  1  0.50257266  0.83354064  0.25411990  1
  Mg  Mg59  1  0.16830135  0.66195350  0.25101737  1
  Mg  Mg60  1  0.83072454  0.33887106  0.24870005  1
  Mg  Mg61  1  0.66624073  0.91640619  0.74551870  1
  Mg  Mg62  1  0.66758565  0.91463274  0.24932151  1
  Mg  Mg63  1  0.66564073  0.58429104  0.74571903  1
  Mg  Mg64  1  0.49958353  0.33355467  0.75161172  1
  Mg  Mg65  1  0.66571190  0.08665003  0.74828340  1
  Mg  Mg66  1  0.49831032  0.66296808  0.25031861  1
  Mg  Mg67  1  0.83061727  0.16869094  0.24778458  1
  Mg  Mg68  1  0.16830698  0.16605803  0.25154543  1
  Mg  Mg69  1  0.66879274  0.57955807  0.24711770  1
  Mg  Mg70  1  0.49998918  0.66576201  0.74906296  1
  Mg  Mg71  1  0.33119834  0.42040348  0.24934097  1
  Mg  Mg72  1  0.83279460  0.66739185  0.74736284  1
  Mg  Mg73  1  0.33302766  0.41579677  0.75275265  1
  Mg  Mg74  1  0.00085390  0.41545693  0.75031027  1
  Mg  Mg75  1  0.00091338  0.57949842  0.24864878  1
  Mg  Mg76  1  0.33368769  0.91447165  0.75214550  1
  Mg  Mg77  1  0.16576725  0.16627042  0.74915864  1
  Mg  Mg78  1  0.50180881  0.16468684  0.75045105  1
  Mg  Mg79  1  0.50019191  0.16749684  0.24937220  1
  Mg  Mg80  1  0.16734122  0.83438411  0.75334463  1
  Mg  Mg81  1  0.00239123  0.58460093  0.75161176  1
  Mg  Mg82  1  0.33642211  0.91306327  0.25292213  1
  Mg  Mg83  1  0.16967657  0.66762707  0.75420109  1
  Mg  Mg84  1  -0.00094648  0.08400058  0.24856396  1
  Mg  Mg85  1  0.16673428  0.33451332  0.75133371  1
  Mg  Mg86  1  0.83279023  0.66203708  0.24733868  1
  Mg  Mg87  1  0.16568409  0.83157551  0.25161144  1
  Mg  Mg88  1  0.33583195  0.08354181  0.25350907  1
  Mg  Mg89  1  0.16772212  0.33740331  0.24954251  1
  Mg  Mg90  1  0.66561092  0.41607920  0.74896201  1
  Mg  Mg91  1  0.83162089  0.83486875  0.74688030  1
  Mg  Mg92  1  -0.00161215  0.91417485  0.24989534  1
  Mg  Mg93  1  0.83237568  0.83514556  0.24663665  1
  Mg  Mg94  1  0.00101557  0.41957465  0.25058622  1
  Mg  Mg95  1  0.83281681  0.33280042  0.74879964  1
  Fe  Fe96  1  0.02905782  0.16504149  0.60753701  1
  Fe  Fe97  1  0.68492224  0.66256420  0.60569988  1
  Fe  Fe98  1  0.30734637  0.83611457  0.89482017  1
  Fe  Fe99  1  0.52631389  0.91553663  0.11173332  1
  Fe  Fe100  1  0.64100811  0.16942264  0.89050369  1
  Fe  Fe101  1  0.69084699  0.66327116  0.10797190  1
  Fe  Fe102  1  0.14185853  0.40893595  0.89071429  1
  Fe  Fe103  1  0.80611656  0.91735983  0.38981705  1
  Fe  Fe104  1  0.85287928  0.91574322  0.60791938  1
  Fe  Fe105  1  0.86090798  0.92233864  0.10769111  1
  Fe  Fe106  1  0.31220285  0.16283034  0.88932850  1
  Fe  Fe107  1  0.52641844  0.08682486  0.60777457  1
  Fe  Fe108  1  0.35618221  0.33496691  0.11014930  1
  Fe  Fe109  1  0.47350701  0.91553083  0.39410005  1
  Fe  Fe110  1  0.68840137  0.17462495  0.11018034  1
  Fe  Fe111  1  0.02933219  0.83368876  0.11007098  1
  Fe  Fe112  1  0.97145494  0.83259481  0.88901588  1
  Si  Si113  1  0.81079120  0.41648580  0.38447484  1
  Si  Si114  1  0.30780061  0.16859831  0.38768707  1
  Si  Si115  1  0.80474528  0.07833351  0.88440636  1
  Si  Si116  1  0.47523437  0.07800034  0.88796500  1
  Si  Si117  1  0.36128104  0.66502094  0.61397780  1
  Si  Si118  1  0.96653094  0.16512062  0.88137016  1
  Si  Si119  1  0.19838157  0.07860889  0.61039645  1
  Si  Si120  1  0.03004051  0.66629678  0.61503257  1
  Si  Si121  1  0.86600561  0.57824828  0.11252532  1
  Si  Si122  1  0.30172589  0.83073427  0.39106768  1
  Si  Si123  1  0.69545948  0.17240041  0.61023695  1
  Si  Si124  1  0.47808415  0.08879597  0.38911195  1
  Si  Si125  1  0.02439006  0.33721936  0.61049794  1
  Si  Si126  1  0.96559189  0.33086988  0.88669600  1
  Si  Si127  1  0.52327403  0.41960739  0.11350720  1
  Si  Si128  1  0.97708950  0.16934184  0.38452561  1
  Si  Si129  1  0.19288150  0.58475585  0.61649610  1
  Si  Si130  1  0.03191598  0.83149389  0.61291276  1
  Si  Si131  1  0.30845048  0.66493540  0.89247633  1
  Si  Si132  1  0.14455695  0.58044194  0.89039440  1
  Si  Si133  1  0.47588648  0.42084229  0.88601923  1
  Si  Si134  1  0.97476709  0.82939880  0.38857837  1
  Si  Si135  1  0.35890934  0.16884903  0.61206317  1
  Si  Si136  1  0.31759741  0.33075843  0.88826893  1
  Si  Si137  1  0.97792416  0.66385958  0.88686036  1
  Si  Si138  1  0.86125998  0.41239777  0.11453268  1
  Si  Si139  1  0.64142285  0.33945747  0.88662673  1
  Si  Si140  1  0.69009715  0.33822624  0.61291217  1
  Si  Si141  1  0.51748780  0.58283025  0.11164943  1
  Si  Si142  1  0.51908679  0.08404236  0.11329191  1
  Si  Si143  1  0.35470714  0.16574031  0.11592032  1
  Si  Si144  1  0.51809830  0.57535718  0.60858027  1
  Si  Si145  1  0.20186086  0.91249437  0.11714883  1
  Si  Si146  1  0.02602912  0.66362881  0.11380580  1
  Si  Si147  1  0.64225096  0.17406981  0.38565700  1
  Si  Si148  1  0.64273003  0.66644050  0.88325776  1
  Si  Si149  1  0.47904244  0.91656662  0.88614986  1
  Si  Si150  1  0.69392872  0.83302224  0.10879599  1
  Si  Si151  1  0.80038701  0.91329694  0.88497351  1
  Si  Si152  1  0.47473023  0.58285952  0.38604721  1
  Si  Si153  1  0.68289657  0.83113280  0.60875990  1
  Si  Si154  1  0.30692638  0.66476870  0.38748369  1
  Si  Si155  1  0.02634130  0.33123889  0.11443979  1
  Si  Si156  1  0.64020706  0.82468723  0.39023977  1
  Si  Si157  1  0.35381383  0.66506841  0.11766135  1
  Si  Si158  1  0.85810223  0.41961486  0.61349038  1
  Si  Si159  1  0.18828278  0.42037090  0.11341396  1
  Si  Si160  1  0.19607562  0.07764726  0.11805849  1
  Si  Si161  1  0.19783160  0.91303043  0.61393418  1
  Si  Si162  1  0.19112301  0.58431459  0.11827453  1
  Si  Si163  1  0.85499961  0.08527889  0.60825680  1
  Si  Si164  1  0.81151990  0.58076193  0.38476860  1
  Si  Si165  1  0.36223020  0.82720732  0.11778076  1
  Si  Si166  1  0.14209885  0.08282301  0.38685241  1
  Si  Si167  1  0.14174122  0.41595237  0.38623857  1
  Si  Si168  1  0.03295259  0.16481669  0.11561729  1
  Si  Si169  1  0.64406849  0.65963958  0.38539998  1
  Si  Si170  1  0.30784199  0.33449441  0.38751439  1
  Si  Si171  1  0.86273494  0.58584218  0.61093507  1
  Si  Si172  1  0.80941643  0.58406054  0.88358388  1
  Si  Si173  1  0.51842592  0.41137765  0.61401239  1
  Si  Si174  1  0.80951806  0.08968554  0.38686885  1
  Si  Si175  1  0.97756432  0.66378721  0.38565034  1
  Si  Si176  1  0.63842108  0.83149725  0.88157291  1
  Si  Si177  1  0.97688295  0.33495618  0.38639297  1
  Si  Si178  1  0.36326179  0.83003514  0.61459546  1
  Si  Si179  1  0.13830387  0.09065164  0.88751064  1
  Si  Si180  1  0.35263262  0.33144855  0.61578022  1
  Si  Si181  1  0.14079700  0.92481429  0.89064017  1
  Si  Si182  1  0.47899113  0.58455455  0.88585460  1
  Si  Si183  1  0.19241435  0.42063753  0.61453591  1
  Si  Si184  1  0.14159596  0.58123276  0.38583459  1
  Si  Si185  1  0.86001335  0.09259562  0.11186053  1
  Si  Si186  1  0.80414223  0.42038527  0.88278440  1
  Si  Si187  1  0.13743576  0.91641774  0.38752158  1
  Si  Si188  1  0.68833222  0.34279210  0.11329733  1
  Si  Si189  1  0.64231051  0.33855978  0.38503228  1
  Si  Si190  1  0.52155452  0.91687163  0.61197394  1
  Si  Si191  1  0.47458260  0.41794019  0.38735220  1
  O  O192  1  0.28028380  0.10477376  0.09080137  1
  O  O193  1  0.28309702  0.11111164  0.58410842  1
  O  O194  1  0.27395652  0.61215548  0.08742494  1
  O  O195  1  0.27136555  0.62216727  0.58670801  1
  O  O196  1  0.59996465  0.10943398  0.08121542  1
  O  O197  1  0.61724189  0.12527265  0.57155306  1
  O  O198  1  0.59413978  0.60706310  0.07492502  1
  O  O199  1  0.59628461  0.59694275  0.57292600  1
  O  O200  1  0.95078268  0.11603349  0.08671817  1
  O  O201  1  0.93357537  0.11166171  0.57265749  1
  O  O202  1  0.95298774  0.60332914  0.08557500  1
  O  O203  1  0.94758602  0.61644052  0.58439572  1
  O  O204  1  0.10142377  0.37248729  0.08487293  1
  O  O205  1  0.10215471  0.38196824  0.58346991  1
  O  O206  1  0.13333216  0.85523491  0.08326848  1
  O  O207  1  0.11488132  0.86417082  0.58302399  1
  O  O208  1  0.45408638  0.36215294  0.07711168  1
  O  O209  1  0.43693920  0.35871989  0.58602544  1
  O  O210  1  0.44421600  0.84341763  0.08498724  1
  O  O211  1  0.44368044  0.86009891  0.58296541  1
  O  O212  1  0.77277347  0.37135370  0.08369536  1
  O  O213  1  0.76746789  0.37932212  0.58393264  1
  O  O214  1  0.78188683  0.84904047  0.08172541  1
  O  O215  1  0.76353086  0.85222170  0.57543679  1
  O  O216  1  0.26290811  0.39375854  0.07553117  1
  O  O217  1  0.27139160  0.38309289  0.58471138  1
  O  O218  1  0.29136921  0.89081412  0.09324320  1
  O  O219  1  0.27702916  0.87582895  0.58382499  1
  O  O220  1  0.61482258  0.40428315  0.08909022  1
  O  O221  1  0.60107234  0.38179122  0.58371873  1
  O  O222  1  0.62605192  0.89608646  0.07999399  1
  O  O223  1  0.60643172  0.89060306  0.58419179  1
  O  O224  1  0.93648731  0.37002839  0.08305999  1
  O  O225  1  0.93556332  0.38255011  0.58282387  1
  O  O226  1  0.95756103  0.90502936  0.07297321  1
  O  O227  1  0.95147053  0.87843918  0.57923627  1
  O  O228  1  0.11502830  0.12988456  0.08875891  1
  O  O229  1  0.11972184  0.12494570  0.57185246  1
  O  O230  1  0.11211568  0.63730925  0.08622176  1
  O  O231  1  0.10747050  0.62919645  0.58288542  1
  O  O232  1  0.44125831  0.14294824  0.08942609  1
  O  O233  1  0.43759152  0.15198136  0.57544946  1
  O  O234  1  0.43452416  0.63544058  0.08535717  1
  O  O235  1  0.43314066  0.62377316  0.57804436  1
  O  O236  1  0.79364480  0.15614561  0.08482856  1
  O  O237  1  0.78129872  0.14762013  0.58357263  1
  O  O238  1  0.78559752  0.62415306  0.07513895  1
  O  O239  1  0.78318196  0.63158421  0.57396497  1
  O  O240  1  0.06349477  0.12313308  0.41436478  1
  O  O241  1  0.05190741  0.12007964  0.91321109  1
  O  O242  1  0.06370969  0.61787860  0.41789457  1
  O  O243  1  0.05747156  0.60929221  0.91483183  1
  O  O244  1  0.39774744  0.12942558  0.41649364  1
  O  O245  1  0.38898876  0.08822646  0.91831165  1
  O  O246  1  0.39805750  0.62432432  0.41660819  1
  O  O247  1  0.39548355  0.61325552  0.91417412  1
  O  O248  1  0.73146768  0.13264342  0.41444258  1
  O  O249  1  0.73233703  0.10923438  0.92295677  1
  O  O250  1  0.73004351  0.61255216  0.41523106  1
  O  O251  1  0.72725983  0.61712951  0.91185612  1
  O  O252  1  0.23164005  0.37506176  0.41830577  1
  O  O253  1  0.23594098  0.35094460  0.92134248  1
  O  O254  1  0.21838372  0.86570002  0.41765560  1
  O  O255  1  0.21730109  0.87574358  0.93083074  1
  O  O256  1  0.56542735  0.37795350  0.41731480  1
  O  O257  1  0.55811186  0.37075374  0.91488369  1
  O  O258  1  0.55710879  0.84672220  0.42099501  1
  O  O259  1  0.55486385  0.85686775  0.91081572  1
  O  O260  1  0.89781826  0.37036183  0.41715124  1
  O  O261  1  0.88046658  0.36480298  0.91219009  1
  O  O262  1  0.90012731  0.85906708  0.42404540  1
  O  O263  1  0.87203224  0.85853680  0.92018210  1
  O  O264  1  0.06432840  0.37848884  0.41868889  1
  O  O265  1  0.04620085  0.37496483  0.92453700  1
  O  O266  1  0.05875798  0.88044763  0.41676296  1
  O  O267  1  0.05363451  0.90285194  0.91589121  1
  O  O268  1  0.39824708  0.37509085  0.41729896  1
  O  O269  1  0.39212678  0.39284553  0.91310419  1
  O  O270  1  0.38055978  0.87702886  0.42812408  1
  O  O271  1  0.40218046  0.89635301  0.92351917  1
  O  O272  1  0.73053980  0.38201182  0.41570668  1
  O  O273  1  0.71813358  0.39872674  0.91070200  1
  O  O274  1  0.71746880  0.87571334  0.42430466  1
  O  O275  1  0.71293850  0.88807209  0.91178818  1
  O  O276  1  0.23018220  0.12701942  0.41635383  1
  O  O277  1  0.21189953  0.14501431  0.92224706  1
  O  O278  1  0.23189826  0.62120852  0.41822159  1
  O  O279  1  0.22756407  0.62934827  0.92291157  1
  O  O280  1  0.56237795  0.13939650  0.41528998  1
  O  O281  1  0.54398403  0.13776525  0.92064903  1
  O  O282  1  0.56538631  0.62260025  0.41685142  1
  O  O283  1  0.56341240  0.63386544  0.91563076  1
  O  O284  1  0.89592726  0.13864598  0.41370522  1
  O  O285  1  0.89099092  0.12574008  0.91227375  1
  O  O286  1  0.89848220  0.62665110  0.41606115  1
  O  O287  1  0.89333972  0.63058806  0.91371595  1
  O  O288  1  0.17666999  -0.00430275  0.09057020  1
  O  O289  1  0.18852121  -0.00542962  0.58195337  1
  O  O290  1  0.16464738  0.50359077  0.08809031  1
  O  O291  1  0.18518481  0.50280002  0.58393502  1
  O  O292  1  0.48334125  0.00686582  0.08394182  1
  O  O293  1  0.49308815  -0.00637861  0.57805307  1
  O  O294  1  0.49030790  0.50041435  0.08558275  1
  O  O295  1  0.49125249  0.49138221  0.58412543  1
  O  O296  1  0.82761688  0.01681038  0.07851736  1
  O  O297  1  0.82210163  0.00865305  0.57465028  1
  O  O298  1  0.85355014  0.49409489  0.08414549  1
  O  O299  1  0.85009052  0.50152930  0.58325422  1
  O  O300  1  0.02170793  0.24754213  0.08622665  1
  O  O301  1  0.01601360  0.26102331  0.57243165  1
  O  O302  1  -0.00468999  0.73986804  0.08070140  1
  O  O303  1  0.01933676  0.74723179  0.58281886  1
  O  O304  1  0.32013323  0.24103313  0.08289943  1
  O  O305  1  0.32510587  0.25118550  0.58664260  1
  O  O306  1  0.32634086  0.74690570  0.09020893  1
  O  O307  1  0.34701354  0.74753017  0.58369054  1
  O  O308  1  0.65703485  0.26757570  0.07726221  1
  O  O309  1  0.68007786  0.25744557  0.58174599  1
  O  O310  1  0.65834602  0.75551430  0.07715403  1
  O  O311  1  0.64531678  0.75398291  0.57872160  1
  O  O312  1  0.15211998  0.00005673  0.41639140  1
  O  O313  1  0.15967311  0.00949740  0.91745248  1
  O  O314  1  0.15119492  0.49845996  0.41631980  1
  O  O315  1  0.16362393  0.50208234  0.92416033  1
  O  O316  1  0.49345088  0.01175067  0.42493040  1
  O  O317  1  0.51595887  -0.00284205  0.90958217  1
  O  O318  1  0.47894845  0.50028916  0.41842101  1
  O  O319  1  0.49817501  0.50232947  0.91567138  1
  O  O320  1  0.82417502  0.01266830  0.42247136  1
  O  O321  1  0.82442920  -0.00459422  0.91241782  1
  O  O322  1  0.82641393  0.49851083  0.41648074  1
  O  O323  1  0.82767686  0.50165554  0.91261878  1
  O  O324  1  0.31280412  0.25144855  0.41742178  1
  O  O325  1  0.35716857  0.25417694  0.91610463  1
  O  O326  1  0.31001465  0.74648336  0.41979437  1
  O  O327  1  0.33090469  0.74130755  0.92926715  1
  O  O328  1  0.65269810  0.25644631  0.41686939  1
  O  O329  1  0.66961356  0.26416844  0.92179873  1
  O  O330  1  0.66255110  0.74023780  0.41613720  1
  O  O331  1  0.66204862  0.74905220  0.91028949  1
  O  O332  1  0.99273096  0.25172492  0.41430042  1
  O  O333  1  0.97271280  0.24717968  0.91393855  1
  O  O334  1  0.99612053  0.74552015  0.41579156  1
  O  O335  1  1.00163014  0.73952936  0.92304293  1
  O  O336  1  0.21125306  0.08185603  0.19898168  1
  O  O337  1  0.21104161  0.08202480  0.69084036  1
  O  O338  1  0.20942236  0.58493075  0.19725151  1
  O  O339  1  0.20066485  0.58186615  0.69526737  1
  O  O340  1  0.54049761  0.08496447  0.19563914  1
  O  O341  1  0.54285188  0.08361214  0.69897498  1
  O  O342  1  0.54027329  0.58412502  0.19257329  1
  O  O343  1  0.54111658  0.57961707  0.68944795  1
  O  O344  1  0.87924844  0.08817332  0.19405068  1
  O  O345  1  0.87608013  0.08326677  0.68870913  1
  O  O346  1  0.88105711  0.58344754  0.19265943  1
  O  O347  1  0.87763625  0.58381133  0.69203904  1
  O  O348  1  0.04419987  0.33187437  0.19504274  1
  O  O349  1  0.04129762  0.33532966  0.69103967  1
  O  O350  1  0.04664882  0.83293466  0.20322323  1
  O  O351  1  0.05001141  0.82798646  0.69246183  1
  O  O352  1  0.37696898  0.33492414  0.20228277  1
  O  O353  1  0.37428635  0.33305456  0.69596469  1
  O  O354  1  0.37709891  0.82832857  0.19907357  1
  O  O355  1  0.38195813  0.83725618  0.69357086  1
  O  O356  1  0.71169123  0.33473956  0.19329437  1
  O  O357  1  0.70825505  0.33755366  0.69316017  1
  O  O358  1  0.70868857  0.83118175  0.19143770  1
  O  O359  1  0.70485733  0.83147088  0.69048541  1
  O  O360  1  0.21033399  0.41307049  0.19335078  1
  O  O361  1  0.21079728  0.41740837  0.69439095  1
  O  O362  1  0.21395525  0.91497690  0.19878365  1
  O  O363  1  0.21144895  0.91660802  0.69369657  1
  O  O364  1  0.53656486  0.41779808  0.19370824  1
  O  O365  1  0.54146635  0.41398663  0.69423180  1
  O  O366  1  0.54711137  0.91531418  0.20406223  1
  O  O367  1  0.54087819  0.91614421  0.69302204  1
  O  O368  1  0.88254189  0.41141303  0.19413203  1
  O  O369  1  0.87575386  0.41849537  0.69388407  1
  O  O370  1  0.88116291  0.91898310  0.20052487  1
  O  O371  1  0.86391202  0.91896144  0.69725143  1
  O  O372  1  0.04765330  0.16698930  0.19650262  1
  O  O373  1  0.04586609  0.16980480  0.69865678  1
  O  O374  1  0.04437035  0.66472402  0.19516115  1
  O  O375  1  0.04397900  0.66486339  0.69533768  1
  O  O376  1  0.37388833  0.16657110  0.19767068  1
  O  O377  1  0.37876386  0.16801501  0.69284614  1
  O  O378  1  0.37706597  0.66665282  0.19739302  1
  O  O379  1  0.38719295  0.66416316  0.69180988  1
  O  O380  1  0.71005917  0.17089260  0.20220977  1
  O  O381  1  0.70538699  0.17096931  0.69005059  1
  O  O382  1  0.71181064  0.66464748  0.19969841  1
  O  O383  1  0.71084467  0.66342015  0.69741153  1
  O  O384  1  0.12519904  0.08364098  0.30650249  1
  O  O385  1  0.12428633  0.08739826  0.80662297  1
  O  O386  1  0.12212072  0.58487815  0.30690766  1
  O  O387  1  0.12461678  0.58190250  0.80887840  1
  O  O388  1  0.45759285  0.08635654  0.30812865  1
  O  O389  1  0.45613748  0.08304414  0.80613435  1
  O  O390  1  0.45983391  0.58188251  0.30691193  1
  O  O391  1  0.46917971  0.58223674  0.80639794  1
  O  O392  1  0.79265715  0.08686284  0.30616634  1
  O  O393  1  0.78349752  0.08121410  0.80426045  1
  O  O394  1  0.79267985  0.58345776  0.30576927  1
  O  O395  1  0.79077154  0.58208826  0.80303240  1
  O  O396  1  0.28862393  0.33286049  0.30767224  1
  O  O397  1  0.29318063  0.33240006  0.80630759  1
  O  O398  1  0.28852898  0.83156353  0.31023282  1
  O  O399  1  0.28551178  0.84042748  0.80448308  1
  O  O400  1  0.62120931  0.33447524  0.30581078  1
  O  O401  1  0.62247558  0.33699988  0.80530628  1
  O  O402  1  0.62611779  0.82772149  0.30882881  1
  O  O403  1  0.62342737  0.83149314  0.80094616  1
  O  O404  1  0.95962310  0.33457572  0.30638054  1
  O  O405  1  0.95363895  0.33503134  0.80569346  1
  O  O406  1  0.95775368  0.83070421  0.30818368  1
  O  O407  1  0.94732355  0.82353913  0.79928508  1
  O  O408  1  0.12194367  0.41076394  0.30724665  1
  O  O409  1  0.11958142  0.41503748  0.79878379  1
  O  O410  1  0.12365821  0.91829725  0.30735890  1
  O  O411  1  0.13400989  0.92095939  0.81033569  1
  O  O412  1  0.45732982  0.41745614  0.30783021  1
  O  O413  1  0.45886006  0.41824495  0.80513087  1
  O  O414  1  0.45391343  0.91656928  0.30276181  1
  O  O415  1  0.45797378  0.91549387  0.80481620  1
  O  O416  1  0.79443196  0.41523216  0.30602564  1
  O  O417  1  0.78870501  0.41974468  0.80208989  1
  O  O418  1  0.78745267  0.91688282  0.29849889  1
  O  O419  1  0.78387634  0.91412443  0.80416989  1
  O  O420  1  0.28944364  0.16782419  0.30720881  1
  O  O421  1  0.28746906  0.16601467  0.79689664  1
  O  O422  1  0.28798042  0.66751372  0.30843162  1
  O  O423  1  0.28129301  0.66575392  0.81392808  1
  O  O424  1  0.62227317  0.17160251  0.30560149  1
  O  O425  1  0.62221059  0.17004666  0.79898408  1
  O  O426  1  0.62308959  0.66153189  0.30546576  1
  O  O427  1  0.62432025  0.66372779  0.80290589  1
  O  O428  1  0.96022102  0.16840835  0.30420877  1
  O  O429  1  0.95353077  0.17037533  0.80198427  1
  O  O430  1  0.95894311  0.66370756  0.30558317  1
  O  O431  1  0.95680739  0.66339491  0.80545421  1
  F  F432  1  0.04865131  0.00169698  0.20448005  1
  F  F433  1  0.05145279  0.01076471  0.69908836  1
  F  F434  1  0.04388025  0.49752040  0.20100444  1
  F  F435  1  0.04329356  0.50146104  0.70138615  1
  F  F436  1  0.37653594  0.00157023  0.20589305  1
  F  F437  1  0.37863788  -0.00027111  0.70235961  1
  F  F438  1  0.37941435  0.49813954  0.20247468  1
  F  F439  1  0.38071084  0.48933262  0.69830222  1
  F  F440  1  0.71114618  0.00458612  0.20263305  1
  F  F441  1  0.70810796  0.00205514  0.69980392  1
  F  F442  1  0.71192908  0.50220159  0.19828482  1
  F  F443  1  0.71133869  0.49880354  0.69834724  1
  F  F444  1  0.21120102  0.24951519  0.20442157  1
  F  F445  1  0.21057183  0.25422068  0.69983889  1
  F  F446  1  0.21296045  0.74890699  0.20620038  1
  F  F447  1  0.20076723  0.74769022  0.69944830  1
  F  F448  1  0.54368616  0.25187558  0.20319121  1
  F  F449  1  0.54412799  0.25511258  0.69989700  1
  F  F450  1  0.54479548  0.74791798  0.20625891  1
  F  F451  1  0.54496241  0.74798733  0.69921326  1
  F  F452  1  0.88161405  0.25233585  0.20407808  1
  F  F453  1  0.87971007  0.26072282  0.69575996  1
  F  F454  1  0.88060593  0.74802162  0.20383111  1
  F  F455  1  0.87756149  0.74500216  0.69646977  1
  F  F456  1  0.28812277  0.00033376  0.30225347  1
  F  F457  1  0.28838631  0.00211198  0.79529732  1
  F  F458  1  0.28948521  0.49320843  0.30514542  1
  F  F459  1  0.28412860  0.48961104  0.80319988  1
  F  F460  1  0.62363494  0.00533113  0.30031965  1
  F  F461  1  0.62174816  -0.00248433  0.79610391  1
  F  F462  1  0.61846750  0.50337345  0.29861769  1
  F  F463  1  0.62156426  0.50030688  0.79369981  1
  F  F464  1  0.95795425  0.00395486  0.30008537  1
  F  F465  1  0.94796281  0.01492463  0.80059838  1
  F  F466  1  0.96388692  0.49933988  0.30309333  1
  F  F467  1  0.95278395  0.50020525  0.79639766  1
  F  F468  1  0.12252574  0.24990164  0.29980604  1
  F  F469  1  0.11960192  0.25385972  0.79732936  1
  F  F470  1  0.12290031  0.74639964  0.30167350  1
  F  F471  1  0.11817598  0.74930346  0.80003858  1
  F  F472  1  0.45535967  0.24946904  0.30083291  1
  F  F473  1  0.45541692  0.25083242  0.79633661  1
  F  F474  1  0.45534360  0.74635818  0.30208146  1
  F  F475  1  0.47171122  0.74810941  0.80264720  1
  F  F476  1  0.79130467  0.25451431  0.30001351  1
  F  F477  1  0.78493867  0.25752334  0.79727630  1
  F  F478  1  0.79086098  0.74982893  0.29761859  1
  F  F479  1  0.78594358  0.74885843  0.79502778  1
