# generated using pymatgen
data_K24Na3Li5Mg64Fe17Si79(O5F)48
_symmetry_space_group_name_H-M   'P 1'
_cell_length_a   16.10503451
_cell_length_b   18.58693442
_cell_length_c   20.55120493
_cell_angle_alpha   90.01149282
_cell_angle_beta   99.99371797
_cell_angle_gamma   89.99003939
_symmetry_Int_Tables_number   1
_chemical_formula_structural   K24Na3Li5Mg64Fe17Si79(O5F)48
_chemical_formula_sum   'K24 Na3 Li5 Mg64 Fe17 Si79 O240 F48'
_cell_volume   6058.52013787
_cell_formula_units_Z   1
loop_
 _symmetry_equiv_pos_site_id
 _symmetry_equiv_pos_as_xyz
  1  'x, y, z'
loop_
 _atom_site_type_symbol
 _atom_site_label
 _atom_site_symmetry_multiplicity
 _atom_site_fract_x
 _atom_site_fract_y
 _atom_site_fract_z
 _atom_site_occupancy
  K  K0  1  0.01244209  0.00622050  0.00031519  1
  K  K1  1  0.00444526  -0.00562760  0.50697103  1
  K  K2  1  0.00478848  0.49860587  -0.00703167  1
  K  K3  1  0.00444854  0.50210405  0.51198496  1
  K  K4  1  0.32430786  -0.00345219  -0.00125912  1
  K  K5  1  0.32421121  -0.00492131  0.49590678  1
  K  K6  1  0.32050079  0.50565485  -0.00590560  1
  K  K7  1  0.32606368  0.50761554  0.50194981  1
  K  K8  1  0.67001815  0.00019527  0.00053383  1
  K  K9  1  0.67645266  -0.00614262  0.50263495  1
  K  K10  1  0.67147383  0.50328155  -0.00413958  1
  K  K11  1  0.67978943  0.50634234  0.51384677  1
  K  K12  1  0.16957124  0.24174588  -0.00305911  1
  K  K13  1  0.16860700  0.24980012  0.50250791  1
  K  K14  1  0.17358442  0.75107382  -0.00758414  1
  K  K15  1  0.17439147  0.75272176  0.50021933  1
  K  K16  1  0.49291709  0.25023887  -0.00642236  1
  K  K17  1  0.49495072  0.24646921  0.50101234  1
  K  K18  1  0.49501678  0.75473969  -0.00343566  1
  K  K19  1  0.49411130  0.74588534  0.50383934  1
  K  K20  1  0.83964585  0.25020415  -0.00621461  1
  K  K21  1  0.84852556  0.25468526  0.51260548  1
  K  K22  1  0.83363871  0.74800915  -0.00405888  1
  K  K23  1  0.84456621  0.75457799  0.51109077  1
  Na  Na24  1  0.83226293  0.50187528  0.74146849  1
  Na  Na25  1  0.33232488  0.91778729  0.25029806  1
  Na  Na26  1  0.33624312  0.91940174  0.75636192  1
  Li  Li27  1  0.00079240  0.75048390  0.74752798  1
  Li  Li28  1  0.00278860  0.24638981  0.74897093  1
  Li  Li29  1  0.00216304  0.41588617  0.24706595  1
  Li  Li30  1  0.50023145  0.66763578  0.75134352  1
  Li  Li31  1  0.00289325  0.08671257  0.74973386  1
  Mg  Mg32  1  0.50071599  0.00057998  0.75140712  1
  Mg  Mg33  1  0.33111863  0.74977436  0.25377641  1
  Mg  Mg34  1  0.66519462  0.74894549  0.24559676  1
  Mg  Mg35  1  0.83265737  -0.00160301  0.24997096  1
  Mg  Mg36  1  0.33011755  0.25020842  0.75596620  1
  Mg  Mg37  1  0.83777783  0.00176074  0.74409910  1
  Mg  Mg38  1  0.33689615  0.75088674  0.75559861  1
  Mg  Mg39  1  0.33289176  0.25062388  0.25146343  1
  Mg  Mg40  1  0.16526983  0.50043593  0.75397280  1
  Mg  Mg41  1  0.49860208  0.50225778  0.75220910  1
  Mg  Mg42  1  0.50082548  0.49946308  0.25020900  1
  Mg  Mg43  1  0.66908130  0.25004251  0.24952424  1
  Mg  Mg44  1  0.66558346  0.74898349  0.74324631  1
  Mg  Mg45  1  0.83608664  0.49994456  0.24860825  1
  Mg  Mg46  1  0.66537643  0.25189933  0.74726619  1
  Mg  Mg47  1  0.16862893  0.00073474  0.25275331  1
  Mg  Mg48  1  0.16419613  0.49738310  0.25063767  1
  Mg  Mg49  1  0.00213229  0.25132058  0.24608285  1
  Mg  Mg50  1  0.49956236  -0.00048935  0.25022613  1
  Mg  Mg51  1  -0.00179456  0.74971835  0.25490126  1
  Mg  Mg52  1  0.16371610  0.00038415  0.75365671  1
  Mg  Mg53  1  0.33155495  0.58376199  0.25314911  1
  Mg  Mg54  1  0.49873370  0.16634803  0.75199319  1
  Mg  Mg55  1  0.66918857  0.41558267  0.24933539  1
  Mg  Mg56  1  0.66348591  0.58561064  0.74426440  1
  Mg  Mg57  1  0.16685893  0.66801630  0.75463084  1
  Mg  Mg58  1  0.66244164  0.91502815  0.24657505  1
  Mg  Mg59  1  0.16635540  0.33210115  0.75371795  1
  Mg  Mg60  1  -0.00103607  0.91700919  0.74743427  1
  Mg  Mg61  1  0.83353096  0.33340542  0.74347615  1
  Mg  Mg62  1  0.16617532  0.83271293  0.75199808  1
  Mg  Mg63  1  0.66812591  0.08490202  0.74636389  1
  Mg  Mg64  1  0.16747013  0.16560957  0.24963039  1
  Mg  Mg65  1  0.66478493  0.41764943  0.74585296  1
  Mg  Mg66  1  0.83659352  0.16798286  0.74358302  1
  Mg  Mg67  1  0.33171708  0.08431894  0.75453348  1
  Mg  Mg68  1  0.16389047  0.16606155  0.75410393  1
  Mg  Mg69  1  0.16819893  0.83422881  0.25544175  1
  Mg  Mg70  1  0.00098755  0.91483762  0.25599919  1
  Mg  Mg71  1  0.16269209  0.33572932  0.24706851  1
  Mg  Mg72  1  0.50013609  0.33358743  0.24982063  1
  Mg  Mg73  1  0.83098143  0.66527911  0.24909273  1
  Mg  Mg74  1  0.33699840  0.58605595  0.75603535  1
  Mg  Mg75  1  0.83328281  0.66731665  0.74396554  1
  Mg  Mg76  1  0.00013949  0.58107470  0.25341062  1
  Mg  Mg77  1  0.33440576  0.41634566  0.75630129  1
  Mg  Mg78  1  0.49924162  0.16559383  0.25045044  1
  Mg  Mg79  1  0.33069194  0.41592134  0.25004311  1
  Mg  Mg80  1  0.83513047  0.83393654  0.74168907  1
  Mg  Mg81  1  0.50144955  0.83198582  0.75178518  1
  Mg  Mg82  1  0.66591367  0.58428943  0.24640343  1
  Mg  Mg83  1  0.49795775  0.33558879  0.75399747  1
  Mg  Mg84  1  -0.00000866  0.58547540  0.74816238  1
  Mg  Mg85  1  0.16819575  0.66540618  0.25612467  1
  Mg  Mg86  1  0.66614441  0.08408987  0.24769598  1
  Mg  Mg87  1  -0.00111230  0.41422747  0.74755840  1
  Mg  Mg88  1  0.49668842  0.83478733  0.24857362  1
  Mg  Mg89  1  0.49844046  0.66487310  0.24939346  1
  Mg  Mg90  1  0.33055389  0.08526347  0.25131419  1
  Mg  Mg91  1  0.83510202  0.16536864  0.24812031  1
  Mg  Mg92  1  0.83246514  0.83287289  0.25034388  1
  Mg  Mg93  1  0.66778935  0.91635622  0.74473798  1
  Mg  Mg94  1  0.83849925  0.33481061  0.24911104  1
  Mg  Mg95  1  0.00191378  0.08509671  0.25019915  1
  Fe  Fe96  1  0.31065353  0.15648575  0.89459001  1
  Fe  Fe97  1  0.86114697  0.41432116  0.60357777  1
  Fe  Fe98  1  0.31152217  0.83644316  0.39573999  1
  Fe  Fe99  1  0.68898229  0.66611326  0.10678579  1
  Fe  Fe100  1  0.68666496  0.66735330  0.60410738  1
  Fe  Fe101  1  0.31343319  0.83888873  0.89300028  1
  Fe  Fe102  1  0.18893130  0.41754971  0.10866644  1
  Fe  Fe103  1  0.31339250  0.16733079  0.39290289  1
  Fe  Fe104  1  0.19703446  0.07870568  0.10800345  1
  Fe  Fe105  1  0.30933970  0.66195852  0.39561067  1
  Fe  Fe106  1  0.02238127  0.16562278  0.10802014  1
  Fe  Fe107  1  0.97165488  0.83110316  0.39292334  1
  Fe  Fe108  1  0.47816547  0.42168566  0.89462450  1
  Fe  Fe109  1  0.13875413  0.58399213  0.89123395  1
  Fe  Fe110  1  0.51959852  0.92229206  0.10754121  1
  Fe  Fe111  1  0.86011426  0.92007071  0.60386620  1
  Fe  Fe112  1  0.30665644  0.33289672  0.89588031  1
  Si  Si113  1  0.03516248  0.33184374  0.61150924  1
  Si  Si114  1  0.97171556  0.66025025  0.38873921  1
  Si  Si115  1  0.49087389  0.91886666  0.88778893  1
  Si  Si116  1  0.36144521  0.33441261  0.11515019  1
  Si  Si117  1  0.35924756  0.66725577  0.61862845  1
  Si  Si118  1  0.85664462  0.09198881  0.60775360  1
  Si  Si119  1  0.64122400  0.66648916  0.38381896  1
  Si  Si120  1  0.79916690  0.91581645  0.38505625  1
  Si  Si121  1  0.64896773  0.83331927  0.88271813  1
  Si  Si122  1  0.52790114  0.41038888  0.11584682  1
  Si  Si123  1  0.96854437  0.83156879  0.88131817  1
  Si  Si124  1  0.36224506  0.83136134  0.61792976  1
  Si  Si125  1  0.69722914  0.33432701  0.11409580  1
  Si  Si126  1  0.13822853  0.08888153  0.38985485  1
  Si  Si127  1  0.51935544  0.41402135  0.61387986  1
  Si  Si128  1  0.96399530  0.66561588  0.88544058  1
  Si  Si129  1  0.85583939  0.07734749  0.11231560  1
  Si  Si130  1  0.86325072  0.58478151  0.11293618  1
  Si  Si131  1  0.02211998  0.83133787  0.11825445  1
  Si  Si132  1  0.68647396  0.16772508  0.61076799  1
  Si  Si133  1  0.69541806  0.16800923  0.11373532  1
  Si  Si134  1  0.79989681  0.58319682  0.88126992  1
  Si  Si135  1  0.35815118  0.33079327  0.61687585  1
  Si  Si136  1  0.68372798  0.83821069  0.60565992  1
  Si  Si137  1  0.35652411  0.82420404  0.11358633  1
  Si  Si138  1  0.14214069  0.41111543  0.38597122  1
  Si  Si139  1  0.64247108  0.33050496  0.88640735  1
  Si  Si140  1  0.51932171  0.57807725  0.61259836  1
  Si  Si141  1  0.48373495  0.08111949  0.38917448  1
  Si  Si142  1  0.18597029  0.90752694  0.11404690  1
  Si  Si143  1  0.48229455  0.91914144  0.38835803  1
  Si  Si144  1  0.63731009  0.83083458  0.38322505  1
  Si  Si145  1  0.35747153  0.66031164  0.11588933  1
  Si  Si146  1  0.64501764  0.33217206  0.38532237  1
  Si  Si147  1  0.85967126  0.42019089  0.11467787  1
  Si  Si148  1  0.48265842  0.58835809  0.88813272  1
  Si  Si149  1  0.69078316  0.83673183  0.11015449  1
  Si  Si150  1  0.52119882  0.08508500  0.61434487  1
  Si  Si151  1  0.96913006  0.16582874  0.38574771  1
  Si  Si152  1  0.19191640  0.08056781  0.61577507  1
  Si  Si153  1  0.86524409  0.59136982  0.60514513  1
  Si  Si154  1  0.48207333  0.41727512  0.38571726  1
  Si  Si155  1  0.02604468  0.66825997  0.11996316  1
  Si  Si156  1  0.13172356  0.08155113  0.88695461  1
  Si  Si157  1  0.13275823  0.41094812  0.88834041  1
  Si  Si158  1  0.80439838  0.58112344  0.38432196  1
  Si  Si159  1  0.35587350  0.16693663  0.61721574  1
  Si  Si160  1  0.80994719  0.41602062  0.38462895  1
  Si  Si161  1  0.13473970  0.57608183  0.39037925  1
  Si  Si162  1  0.85797417  0.91342238  0.11628960  1
  Si  Si163  1  0.01877814  0.33270725  0.11014037  1
  Si  Si164  1  0.36412061  0.17071912  0.11577290  1
  Si  Si165  1  0.68426496  0.33316756  0.60832752  1
  Si  Si166  1  0.96453851  0.33356603  0.88135595  1
  Si  Si167  1  0.64581964  0.16680923  0.88308358  1
  Si  Si168  1  0.13359499  0.91521472  0.88796314  1
  Si  Si169  1  0.80925501  0.91929585  0.88070439  1
  Si  Si170  1  0.64363571  0.16780677  0.38513001  1
  Si  Si171  1  0.96831313  0.16968383  0.88014077  1
  Si  Si172  1  0.64203597  0.67036412  0.88112940  1
  Si  Si173  1  0.48110917  0.57941440  0.38804416  1
  Si  Si174  1  0.19744459  0.41817662  0.61710530  1
  Si  Si175  1  0.03427200  0.83351278  0.61223962  1
  Si  Si176  1  0.52111682  0.57518383  0.11185694  1
  Si  Si177  1  0.52094662  0.92057313  0.61392098  1
  Si  Si178  1  0.52549122  0.09288048  0.11312951  1
  Si  Si179  1  0.03088677  0.16682766  0.61574472  1
  Si  Si180  1  0.48596694  0.08053351  0.88917308  1
  Si  Si181  1  0.03412437  0.66773211  0.61428095  1
  Si  Si182  1  0.19616191  0.91651148  0.61740132  1
  Si  Si183  1  0.97474290  0.33031850  0.38407656  1
  Si  Si184  1  0.19696954  0.58341312  0.61759582  1
  Si  Si185  1  0.80811837  0.08342626  0.88065893  1
  Si  Si186  1  0.31512520  0.66688995  0.89303624  1
  Si  Si187  1  0.80540621  0.08230144  0.38398675  1
  Si  Si188  1  0.13815948  0.92279038  0.39295885  1
  Si  Si189  1  0.18638151  0.58693484  0.11628952  1
  Si  Si190  1  0.31571338  0.33847663  0.38986769  1
  Si  Si191  1  0.80100448  0.41580894  0.88079023  1
  O  O192  1  0.29784043  0.11193897  0.08173389  1
  O  O193  1  0.26960263  0.12228955  0.58708163  1
  O  O194  1  0.27132531  0.61477930  0.08875406  1
  O  O195  1  0.27211795  0.62364277  0.58646933  1
  O  O196  1  0.61015279  0.12318765  0.08486404  1
  O  O197  1  0.60127549  0.11833411  0.58300907  1
  O  O198  1  0.59744397  0.60335157  0.07709271  1
  O  O199  1  0.59285491  0.60601196  0.57415333  1
  O  O200  1  0.93164968  0.10074767  0.07606279  1
  O  O201  1  0.93489482  0.13774444  0.58332999  1
  O  O202  1  0.95200081  0.61053774  0.08919389  1
  O  O203  1  0.94660127  0.62966412  0.57746104  1
  O  O204  1  0.09891186  0.35586056  0.07627309  1
  O  O205  1  0.11366636  0.37347870  0.58262287  1
  O  O206  1  0.10202391  0.85632621  0.08482917  1
  O  O207  1  0.11294470  0.87181742  0.58177859  1
  O  O208  1  0.45293104  0.35274147  0.09111876  1
  O  O209  1  0.43762929  0.36224291  0.58497097  1
  O  O210  1  0.42718352  0.86138729  0.07694770  1
  O  O211  1  0.43788040  0.87115278  0.58559117  1
  O  O212  1  0.77529399  0.37082274  0.08407294  1
  O  O213  1  0.75692559  0.36453960  0.57128345  1
  O  O214  1  0.78236466  0.85778002  0.08656273  1
  O  O215  1  0.75860275  0.87158151  0.57087555  1
  O  O216  1  0.29201817  0.39171909  0.08208836  1
  O  O217  1  0.27592625  0.38042056  0.58704215  1
  O  O218  1  0.26453866  0.86349889  0.09015703  1
  O  O219  1  0.27674651  0.87847296  0.59055257  1
  O  O220  1  0.61179592  0.38147692  0.08712378  1
  O  O221  1  0.59688189  0.37974216  0.58108208  1
  O  O222  1  0.62288668  0.89803805  0.08048331  1
  O  O223  1  0.60122406  0.89318483  0.58217887  1
  O  O224  1  0.94120535  0.39232530  0.08518434  1
  O  O225  1  0.94930092  0.36631211  0.56998711  1
  O  O226  1  0.94243820  0.88522690  0.08870870  1
  O  O227  1  0.94918759  0.87198216  0.57360802  1
  O  O228  1  0.11089509  0.13835058  0.06781361  1
  O  O229  1  0.10145679  0.11851338  0.58332591  1
  O  O230  1  0.11233247  0.64838099  0.09196328  1
  O  O231  1  0.10908122  0.62350078  0.58448500  1
  O  O232  1  0.45604446  0.15718045  0.09190356  1
  O  O233  1  0.43657676  0.13368964  0.58664180  1
  O  O234  1  0.43378877  0.62052037  0.08555667  1
  O  O235  1  0.43346714  0.62680242  0.58653346  1
  O  O236  1  0.77223461  0.12872396  0.08463606  1
  O  O237  1  0.76707578  0.13812172  0.57912181  1
  O  O238  1  0.78857726  0.63634857  0.07666068  1
  O  O239  1  0.78179496  0.63597842  0.56991571  1
  O  O240  1  0.05261703  0.11961150  0.41679913  1
  O  O241  1  0.05254921  0.12465414  0.91219713  1
  O  O242  1  0.04652262  0.60128888  0.41462983  1
  O  O243  1  0.04791239  0.62669146  0.92474669  1
  O  O244  1  0.40717616  0.10645957  0.42548141  1
  O  O245  1  0.40863856  0.09902690  0.92573739  1
  O  O246  1  0.40270702  0.59829446  0.42357270  1
  O  O247  1  0.39989335  0.61599585  0.91829243  1
  O  O248  1  0.72728632  0.11957882  0.41377682  1
  O  O249  1  0.72678903  0.11471142  0.91113310  1
  O  O250  1  0.72317043  0.61534352  0.41201289  1
  O  O251  1  0.71972415  0.61553226  0.91350563  1
  O  O252  1  0.23288101  0.37266500  0.41756856  1
  O  O253  1  0.20229901  0.35266028  0.92075175  1
  O  O254  1  0.21831636  0.87645087  0.42875025  1
  O  O255  1  0.22165765  0.88192792  0.92593594  1
  O  O256  1  0.56254428  0.36314979  0.41384480  1
  O  O257  1  0.56590070  0.35257536  0.92306347  1
  O  O258  1  0.55733181  0.85894008  0.41572740  1
  O  O259  1  0.57117736  0.86429626  0.91642381  1
  O  O260  1  0.89791530  0.37286546  0.41302972  1
  O  O261  1  0.88483676  0.36872139  0.91239587  1
  O  O262  1  0.87386777  0.86551813  0.42152176  1
  O  O263  1  0.89434309  0.87515173  0.91253381  1
  O  O264  1  0.06594100  0.36747297  0.41476437  1
  O  O265  1  0.04407218  0.38411367  0.91235944  1
  O  O266  1  0.05463455  0.89908137  0.42241707  1
  O  O267  1  0.05796305  0.86891080  0.91501149  1
  O  O268  1  0.39818763  0.39302968  0.41571671  1
  O  O269  1  0.38636843  0.40068779  0.93307724  1
  O  O270  1  0.40252268  0.90212718  0.42326038  1
  O  O271  1  0.41116367  0.89705162  0.92108632  1
  O  O272  1  0.73075393  0.37846690  0.41359817  1
  O  O273  1  0.72426543  0.38212650  0.91535568  1
  O  O274  1  0.71292957  0.88808639  0.41051322  1
  O  O275  1  0.73157184  0.88347792  0.91249566  1
  O  O276  1  0.21485638  0.13976439  0.42490099  1
  O  O277  1  0.21810999  0.11561795  0.92690899  1
  O  O278  1  0.21377843  0.62205072  0.42746449  1
  O  O279  1  0.23872302  0.63341907  0.92616989  1
  O  O280  1  0.56459932  0.13641478  0.41622991  1
  O  O281  1  0.56559631  0.13746781  0.91459593  1
  O  O282  1  0.56161452  0.63386735  0.41437717  1
  O  O283  1  0.55804363  0.64923818  0.91183315  1
  O  O284  1  0.88985328  0.12865819  0.41462604  1
  O  O285  1  0.88956388  0.13241003  0.91186685  1
  O  O286  1  0.88727450  0.62806453  0.41520546  1
  O  O287  1  0.88310802  0.62947157  0.91537573  1
  O  O288  1  0.17432653  -0.01662769  0.07513037  1
  O  O289  1  0.18976189  -0.00132465  0.58492737  1
  O  O290  1  0.15612005  0.51207771  0.08039011  1
  O  O291  1  0.19013256  0.50064370  0.58674740  1
  O  O292  1  0.49674377  0.01794920  0.07729599  1
  O  O293  1  0.50130382  0.00350345  0.58546075  1
  O  O294  1  0.50154982  0.49067163  0.08758025  1
  O  O295  1  0.49523950  0.49457908  0.58418337  1
  O  O296  1  0.82937142  -0.00603018  0.08744688  1
  O  O297  1  0.84882883  0.01573204  0.56898233  1
  O  O298  1  0.84075985  0.50203003  0.08536349  1
  O  O299  1  0.85697992  0.51034556  0.57312815  1
  O  O300  1  -0.02078947  0.25685215  0.07987368  1
  O  O301  1  0.03819031  0.24772975  0.58367514  1
  O  O302  1  -0.00479193  0.74900593  0.09180494  1
  O  O303  1  0.03463511  0.74965255  0.58471947  1
  O  O304  1  0.33547627  0.25255312  0.08956242  1
  O  O305  1  0.34082431  0.24886064  0.58644669  1
  O  O306  1  0.34359855  0.74070834  0.08413978  1
  O  O307  1  0.34966582  0.74936380  0.58698340  1
  O  O308  1  0.68572026  0.25137812  0.08541660  1
  O  O309  1  0.66254021  0.24901747  0.58169431  1
  O  O310  1  0.66183068  0.75967966  0.07638068  1
  O  O311  1  0.65479568  0.76058322  0.57349828  1
  O  O312  1  0.15585029  0.00729473  0.41884782  1
  O  O313  1  0.12307143  -0.00178588  0.91380958  1
  O  O314  1  0.14644905  0.49203580  0.41812312  1
  O  O315  1  0.15331085  0.48925240  0.92278048  1
  O  O316  1  0.51913972  0.00040651  0.41412943  1
  O  O317  1  0.52545049  0.00056480  0.91240943  1
  O  O318  1  0.51425556  0.49713064  0.41270578  1
  O  O319  1  0.51820847  0.51410307  0.92397797  1
  O  O320  1  0.81421026  0.00006860  0.41183559  1
  O  O321  1  0.82201581  0.00157907  0.91072955  1
  O  O322  1  0.81761587  0.49834714  0.41345318  1
  O  O323  1  0.81369654  0.49924770  0.90867082  1
  O  O324  1  0.33957663  0.26229789  0.42639363  1
  O  O325  1  0.33869378  0.24433801  0.93369804  1
  O  O326  1  0.33703714  0.74821602  0.43762136  1
  O  O327  1  0.33768358  0.74552852  0.92664088  1
  O  O328  1  0.66189305  0.25010247  0.41404199  1
  O  O329  1  0.67223375  0.24745295  0.91136822  1
  O  O330  1  0.66123881  0.74878700  0.41162308  1
  O  O331  1  0.67094411  0.75143112  0.91072731  1
  O  O332  1  0.97757241  0.24837061  0.41599264  1
  O  O333  1  0.97643647  0.25145074  0.91255146  1
  O  O334  1  0.99657941  0.73635158  0.42445103  1
  O  O335  1  0.96591524  0.75027185  0.91205954  1
  O  O336  1  0.20896341  0.08232532  0.20015656  1
  O  O337  1  0.20940272  0.08230372  0.69538208  1
  O  O338  1  0.20656238  0.58276217  0.19719657  1
  O  O339  1  0.21429880  0.58329788  0.69737856  1
  O  O340  1  0.54708254  0.08764450  0.19445818  1
  O  O341  1  0.54343883  0.08621822  0.69457263  1
  O  O342  1  0.54230837  0.57936629  0.19332774  1
  O  O343  1  0.54104504  0.57847633  0.69244167  1
  O  O344  1  0.87427925  0.08179750  0.19352207  1
  O  O345  1  0.86726954  0.08590559  0.68711509  1
  O  O346  1  0.87654356  0.58400527  0.19404340  1
  O  O347  1  0.88257090  0.59354768  0.68533461  1
  O  O348  1  0.04141494  0.33195200  0.19118547  1
  O  O349  1  0.04975380  0.33654076  0.69107953  1
  O  O350  1  0.04141548  0.83256574  0.19858767  1
  O  O351  1  0.04735501  0.83709636  0.69192406  1
  O  O352  1  0.37915221  0.33503869  0.19683452  1
  O  O353  1  0.37698687  0.33086655  0.69656165  1
  O  O354  1  0.38092914  0.82203319  0.19337320  1
  O  O355  1  0.38403991  0.82828149  0.69669375  1
  O  O356  1  0.71333487  0.33307310  0.19484411  1
  O  O357  1  0.70337083  0.33313489  0.68910906  1
  O  O358  1  0.70908743  0.83381200  0.19218376  1
  O  O359  1  0.70705143  0.83705706  0.68717039  1
  O  O360  1  0.21126355  0.41678253  0.20103252  1
  O  O361  1  0.21229020  0.41821993  0.69687973  1
  O  O362  1  0.19496598  0.91494106  0.19365581  1
  O  O363  1  0.20319280  0.91889454  0.69599833  1
  O  O364  1  0.54779602  0.41379990  0.19675010  1
  O  O365  1  0.54036838  0.41328765  0.69395783  1
  O  O366  1  0.54296397  0.91786930  0.19949434  1
  O  O367  1  0.54264093  0.92001633  0.69410873  1
  O  O368  1  0.87168196  0.41743567  0.19444125  1
  O  O369  1  0.88204201  0.40847830  0.69271258  1
  O  O370  1  0.87546341  0.91641908  0.19670962  1
  O  O371  1  0.87719547  0.91863871  0.69491353  1
  O  O372  1  0.04364119  0.16603399  0.20101380  1
  O  O373  1  0.04871783  0.16538533  0.69430199  1
  O  O374  1  0.04190912  0.66632264  0.20058564  1
  O  O375  1  0.04860816  0.66489439  0.69348668  1
  O  O376  1  0.38016491  0.17022847  0.19707584  1
  O  O377  1  0.37739051  0.16770565  0.69705024  1
  O  O378  1  0.37798881  0.66155048  0.19640594  1
  O  O379  1  0.37361934  0.66690944  0.69803802  1
  O  O380  1  0.71237959  0.16830217  0.19458660  1
  O  O381  1  0.70522408  0.16717042  0.69101666  1
  O  O382  1  0.71065337  0.66523023  0.19897680  1
  O  O383  1  0.71007239  0.66693551  0.69519547  1
  O  O384  1  0.12056531  0.08673260  0.30930670  1
  O  O385  1  0.12377457  0.08341643  0.80739532  1
  O  O386  1  0.12216565  0.58002104  0.30947475  1
  O  O387  1  0.12180088  0.58427952  0.79988717  1
  O  O388  1  0.46283215  0.08530029  0.30832082  1
  O  O389  1  0.46272775  0.08447873  0.80808888  1
  O  O390  1  0.46066348  0.58106667  0.30681395  1
  O  O391  1  0.45854133  0.58212104  0.80808420  1
  O  O392  1  0.78887031  0.08469504  0.30336991  1
  O  O393  1  0.78902069  0.08448587  0.80040537  1
  O  O394  1  0.78839130  0.58037758  0.30393319  1
  O  O395  1  0.78287119  0.58874112  0.80233186  1
  O  O396  1  0.29658280  0.33504240  0.30931362  1
  O  O397  1  0.28906691  0.33407164  0.80252474  1
  O  O398  1  0.28480806  0.82586186  0.30546469  1
  O  O399  1  0.28436304  0.82745967  0.80412091  1
  O  O400  1  0.62703769  0.33322130  0.30479705  1
  O  O401  1  0.62255796  0.33202230  0.80524086  1
  O  O402  1  0.62243050  0.82983965  0.30274169  1
  O  O403  1  0.62905563  0.83522156  0.80244680  1
  O  O404  1  0.95534935  0.32862701  0.30454151  1
  O  O405  1  0.94973101  0.33331198  0.80202537  1
  O  O406  1  0.95172488  0.83235939  0.30095918  1
  O  O407  1  0.95228866  0.83540835  0.80206583  1
  O  O408  1  0.12538442  0.41365378  0.30659975  1
  O  O409  1  0.12130590  0.41463679  0.80684237  1
  O  O410  1  0.12245846  0.91862512  0.31116820  1
  O  O411  1  0.12070622  0.91480722  0.80736391  1
  O  O412  1  0.46168656  0.41557139  0.30519447  1
  O  O413  1  0.45661764  0.41767205  0.80177880  1
  O  O414  1  0.46765774  0.91741327  0.30845848  1
  O  O415  1  0.47445749  0.91785539  0.80787354  1
  O  O416  1  0.79068167  0.41506834  0.30425131  1
  O  O417  1  0.78086071  0.40894760  0.80173383  1
  O  O418  1  0.78588788  0.91656415  0.30393940  1
  O  O419  1  0.78840575  0.91899911  0.80069977  1
  O  O420  1  0.29103823  0.17013755  0.30182462  1
  O  O421  1  0.28883040  0.16623024  0.80240296  1
  O  O422  1  0.28924358  0.66381852  0.30295367  1
  O  O423  1  0.29355495  0.66616972  0.81142130  1
  O  O424  1  0.62629860  0.16803988  0.30456204  1
  O  O425  1  0.62498740  0.16648209  0.80252641  1
  O  O426  1  0.62171784  0.66453549  0.30336377  1
  O  O427  1  0.62560645  0.66899738  0.80175404  1
  O  O428  1  0.95219252  0.16640432  0.30546252  1
  O  O429  1  0.94909697  0.16868195  0.80130230  1
  O  O430  1  0.95320838  0.66400220  0.30750331  1
  O  O431  1  0.94960111  0.66167825  0.80562532  1
  F  F432  1  0.04305991  -0.00132328  0.20714199  1
  F  F433  1  0.04698334  -0.00198253  0.70123550  1
  F  F434  1  0.04493176  0.50286881  0.20423281  1
  F  F435  1  0.04850302  0.49795324  0.69786751  1
  F  F436  1  0.38421094  0.01149253  0.20231384  1
  F  F437  1  0.38456307  0.01180369  0.70168389  1
  F  F438  1  0.38000586  0.49965300  0.20542327  1
  F  F439  1  0.37591829  0.50141186  0.70373456  1
  F  F440  1  0.71280880  0.00129891  0.20111323  1
  F  F441  1  0.71096332  0.00214909  0.69717404  1
  F  F442  1  0.71271579  0.49800931  0.20102508  1
  F  F443  1  0.69578929  0.49899072  0.69284385  1
  F  F444  1  0.21252885  0.25357019  0.20316074  1
  F  F445  1  0.21182650  0.24972143  0.70073974  1
  F  F446  1  0.20672679  0.74786006  0.20347424  1
  F  F447  1  0.21382435  0.74691417  0.70273306  1
  F  F448  1  0.54937666  0.25105170  0.20383207  1
  F  F449  1  0.54260227  0.25002910  0.70262706  1
  F  F450  1  0.54428727  0.74679860  0.20082095  1
  F  F451  1  0.54690171  0.75671716  0.69857960  1
  F  F452  1  0.87616075  0.24930639  0.20075556  1
  F  F453  1  0.86501815  0.24955825  0.69080097  1
  F  F454  1  0.87715610  0.74751669  0.20224042  1
  F  F455  1  0.87472955  0.75099832  0.69578559  1
  F  F456  1  0.28469640  0.00903857  0.30499185  1
  F  F457  1  0.28241278  0.00955147  0.80442722  1
  F  F458  1  0.28909078  0.49983180  0.30070115  1
  F  F459  1  0.28762993  0.50127345  0.80070262  1
  F  F460  1  0.62545938  0.00329999  0.29725667  1
  F  F461  1  0.62587093  0.00207458  0.79419631  1
  F  F462  1  0.62400039  0.49887094  0.29695522  1
  F  F463  1  0.62163026  0.49946845  0.79625885  1
  F  F464  1  0.95098059  0.00241953  0.29933788  1
  F  F465  1  0.95137367  -0.00086976  0.79762775  1
  F  F466  1  0.94975632  0.50241482  0.30078678  1
  F  F467  1  0.96546596  0.50037109  0.79677679  1
  F  F468  1  0.12135879  0.25318915  0.29854359  1
  F  F469  1  0.12305021  0.25002790  0.79932688  1
  F  F470  1  0.11848179  0.74861780  0.30179288  1
  F  F471  1  0.12160227  0.75037980  0.79929139  1
  F  F472  1  0.45934722  0.25139672  0.29952012  1
  F  F473  1  0.45630579  0.24901420  0.79996186  1
  F  F474  1  0.45718117  0.74723706  0.29854320  1
  F  F475  1  0.45765600  0.75396908  0.80239077  1
  F  F476  1  0.78920437  0.25024868  0.29784565  1
  F  F477  1  0.78461179  0.24886967  0.79257422  1
  F  F478  1  0.78594652  0.75008530  0.29769427  1
  F  F479  1  0.78696070  0.75532732  0.79260434  1
