# generated using pymatgen
data_K24Na3Li5Mg64Fe17Si79(O5F)48
_symmetry_space_group_name_H-M   'P 1'
_cell_length_a   16.09532597
_cell_length_b   18.58291199
_cell_length_c   20.55544283
_cell_angle_alpha   89.98465348
_cell_angle_beta   99.99899091
_cell_angle_gamma   90.02219084
_symmetry_Int_Tables_number   1
_chemical_formula_structural   K24Na3Li5Mg64Fe17Si79(O5F)48
_chemical_formula_sum   'K24 Na3 Li5 Mg64 Fe17 Si79 O240 F48'
_cell_volume   6054.70725614
_cell_formula_units_Z   1
loop_
 _symmetry_equiv_pos_site_id
 _symmetry_equiv_pos_as_xyz
  1  'x, y, z'
loop_
 _atom_site_type_symbol
 _atom_site_label
 _atom_site_symmetry_multiplicity
 _atom_site_fract_x
 _atom_site_fract_y
 _atom_site_fract_z
 _atom_site_occupancy
  K  K0  1  -0.00224259  0.00066443  0.00300282  1
  K  K1  1  0.00242198  -0.01361853  0.49503585  1
  K  K2  1  -0.00718534  0.49773778  0.00164644  1
  K  K3  1  -0.00061019  0.50516833  0.49832667  1
  K  K4  1  0.33103848  -0.00158596  0.00123750  1
  K  K5  1  0.32606000  -0.00671531  0.48920611  1
  K  K6  1  0.33508600  0.50730509  0.00014976  1
  K  K7  1  0.34293352  0.49765927  0.50081030  1
  K  K8  1  0.67397278  -0.00230771  0.00545197  1
  K  K9  1  0.65691496  -0.00598533  0.49693130  1
  K  K10  1  0.66618181  0.50272304  0.00072950  1
  K  K11  1  0.65220594  0.50421894  0.49575846  1
  K  K12  1  0.17525923  0.26161729  0.00262278  1
  K  K13  1  0.17606921  0.25438357  0.49595098  1
  K  K14  1  0.16637015  0.75132464  0.00237971  1
  K  K15  1  0.16319062  0.74889396  0.49583441  1
  K  K16  1  0.50248321  0.25065139  -0.00232803  1
  K  K17  1  0.49754993  0.26309216  0.49347636  1
  K  K18  1  0.50178813  0.74133425  0.00663154  1
  K  K19  1  0.51019656  0.74206437  0.48347516  1
  K  K20  1  0.81654016  0.24952432  -0.00549455  1
  K  K21  1  0.82011012  0.25280851  0.49829715  1
  K  K22  1  0.83577075  0.75600317  0.00920737  1
  K  K23  1  0.82831559  0.74187054  0.49422433  1
  Na  Na24  1  0.34080355  0.74904357  0.25578427  1
  Na  Na25  1  0.33935356  0.42291207  0.74909424  1
  Na  Na26  1  0.50527344  0.66875563  0.25254560  1
  Li  Li27  1  0.49591801  0.50141577  0.74061227  1
  Li  Li28  1  0.83557190  -0.00223543  0.75124362  1
  Li  Li29  1  0.66389776  0.58858331  0.24381382  1
  Li  Li30  1  0.49740718  0.16769925  0.25049648  1
  Li  Li31  1  0.16748965  0.66698827  0.75114588  1
  Mg  Mg32  1  0.00294038  0.75059183  0.75405451  1
  Mg  Mg33  1  0.66231887  0.24955341  0.24842474  1
  Mg  Mg34  1  0.83478950  0.00080660  0.24978037  1
  Mg  Mg35  1  0.50021463  0.00200596  0.25427713  1
  Mg  Mg36  1  0.50336147  0.49972614  0.25080735  1
  Mg  Mg37  1  0.33452630  0.25096076  0.75299009  1
  Mg  Mg38  1  0.66643542  0.74878952  0.74614319  1
  Mg  Mg39  1  0.83069098  0.50110953  0.24870232  1
  Mg  Mg40  1  0.33597880  0.25058071  0.25174867  1
  Mg  Mg41  1  0.16424193  0.00107527  0.75590619  1
  Mg  Mg42  1  0.32827674  0.74906530  0.74909751  1
  Mg  Mg43  1  0.66579199  0.25038783  0.74744206  1
  Mg  Mg44  1  -0.00114457  0.25015287  0.74805002  1
  Mg  Mg45  1  0.66640164  0.75058542  0.24610661  1
  Mg  Mg46  1  0.49836195  -0.00190230  0.75130955  1
  Mg  Mg47  1  -0.00033771  0.74980997  0.25009768  1
  Mg  Mg48  1  0.16668710  -0.00302810  0.25322559  1
  Mg  Mg49  1  0.83330538  0.49941923  0.74765230  1
  Mg  Mg50  1  0.00143078  0.25158375  0.24947655  1
  Mg  Mg51  1  0.16807683  0.50191333  0.25026259  1
  Mg  Mg52  1  0.16930580  0.50297114  0.74889040  1
  Mg  Mg53  1  0.66265623  0.41733657  0.24621182  1
  Mg  Mg54  1  0.16456966  0.83369219  0.75510231  1
  Mg  Mg55  1  0.16890905  0.16577463  0.25424766  1
  Mg  Mg56  1  0.33318245  0.58481688  0.74665709  1
  Mg  Mg57  1  0.66295733  0.08558634  0.24982852  1
  Mg  Mg58  1  -0.00148254  0.08298925  0.75242165  1
  Mg  Mg59  1  0.33274716  0.08462226  0.75376484  1
  Mg  Mg60  1  -0.00111796  0.41700678  0.24789357  1
  Mg  Mg61  1  0.66791709  0.91681468  0.24987102  1
  Mg  Mg62  1  0.83132161  0.16278270  0.74648075  1
  Mg  Mg63  1  0.66852420  0.91611579  0.74922964  1
  Mg  Mg64  1  0.66181565  0.41451144  0.74510517  1
  Mg  Mg65  1  0.00006822  0.91426364  0.25119560  1
  Mg  Mg66  1  0.49791680  0.66339623  0.74464385  1
  Mg  Mg67  1  0.66400892  0.58159790  0.74573463  1
  Mg  Mg68  1  0.00034649  0.08443405  0.25002394  1
  Mg  Mg69  1  0.83537058  0.66658105  0.74934067  1
  Mg  Mg70  1  0.82722068  0.66356806  0.25047530  1
  Mg  Mg71  1  0.66802996  0.08079183  0.74821275  1
  Mg  Mg72  1  0.82931462  0.33423855  0.24574403  1
  Mg  Mg73  1  0.00389128  0.58558577  0.75023969  1
  Mg  Mg74  1  0.16971048  0.33588206  0.25008364  1
  Mg  Mg75  1  0.16898142  0.16790685  0.75399432  1
  Mg  Mg76  1  0.83045641  0.33384084  0.74692405  1
  Mg  Mg77  1  0.33701149  0.58392327  0.24882940  1
  Mg  Mg78  1  0.33533978  0.41377432  0.25066621  1
  Mg  Mg79  1  0.83061966  0.16775377  0.24701188  1
  Mg  Mg80  1  -0.00027992  0.91656031  0.75519071  1
  Mg  Mg81  1  0.83291992  0.83572581  0.24811236  1
  Mg  Mg82  1  0.50076236  0.16461639  0.75229578  1
  Mg  Mg83  1  -0.00451182  0.58435705  0.24747846  1
  Mg  Mg84  1  0.49801278  0.83199687  0.74837248  1
  Mg  Mg85  1  0.33525861  0.08505332  0.25348189  1
  Mg  Mg86  1  0.83696260  0.83582366  0.75228809  1
  Mg  Mg87  1  0.17058072  0.33547706  0.74991044  1
  Mg  Mg88  1  0.16724457  0.66746538  0.24902919  1
  Mg  Mg89  1  0.50122210  0.33722391  0.74817464  1
  Mg  Mg90  1  0.16551265  0.83329105  0.25273841  1
  Mg  Mg91  1  0.49748929  0.33046758  0.24846792  1
  Mg  Mg92  1  0.33522851  0.91469431  0.25615644  1
  Mg  Mg93  1  0.50526820  0.83398532  0.25578118  1
  Mg  Mg94  1  0.33020248  0.91498494  0.75305292  1
  Mg  Mg95  1  0.00099343  0.41657728  0.74712293  1
  Fe  Fe96  1  0.14067222  0.90954259  0.39374025  1
  Fe  Fe97  1  0.63762912  0.33317545  0.88838480  1
  Fe  Fe98  1  0.64677614  0.83652837  0.39229221  1
  Fe  Fe99  1  0.86008807  0.92240268  0.10928673  1
  Fe  Fe100  1  0.68756074  0.33345472  0.11016436  1
  Fe  Fe101  1  0.97234674  0.83319423  0.89407942  1
  Fe  Fe102  1  0.52065178  0.58582318  0.60646159  1
  Fe  Fe103  1  0.68814071  0.66819536  0.10446032  1
  Fe  Fe104  1  0.02999950  0.82969314  0.11117135  1
  Fe  Fe105  1  0.69151873  0.33034432  0.60515692  1
  Fe  Fe106  1  0.85663600  0.57796715  0.10801874  1
  Fe  Fe107  1  0.51727761  0.58083590  0.10808423  1
  Fe  Fe108  1  0.35927910  0.33017766  0.10883597  1
  Fe  Fe109  1  0.65179844  0.66357009  0.39246540  1
  Fe  Fe110  1  0.31288385  0.17370452  0.89252124  1
  Fe  Fe111  1  0.14302062  0.92434796  0.89483704  1
  Fe  Fe112  1  0.30452315  0.33661839  0.39178257  1
  Si  Si113  1  0.81238542  0.08989220  0.38502097  1
  Si  Si114  1  0.96670585  0.82971677  0.39027910  1
  Si  Si115  1  0.35110145  0.67254112  0.60936750  1
  Si  Si116  1  0.47345631  0.91808823  0.39212031  1
  Si  Si117  1  0.85627912  0.09326886  0.11203484  1
  Si  Si118  1  0.02928924  0.16918885  0.11613402  1
  Si  Si119  1  0.13910750  0.58909785  0.38537208  1
  Si  Si120  1  0.63910820  0.83259961  0.88243719  1
  Si  Si121  1  0.47574717  0.58815945  0.88173163  1
  Si  Si122  1  0.52302682  0.91315779  0.61469042  1
  Si  Si123  1  0.64342380  0.66854263  0.88175932  1
  Si  Si124  1  0.47298843  0.57919486  0.38704082  1
  Si  Si125  1  0.31323849  0.34061587  0.88543473  1
  Si  Si126  1  0.47582536  0.07531670  0.88845348  1
  Si  Si127  1  0.35762854  0.32695742  0.61509911  1
  Si  Si128  1  0.36416068  0.83761143  0.12013251  1
  Si  Si129  1  0.35760064  0.16247559  0.61509250  1
  Si  Si130  1  0.69678471  0.66900530  0.61119491  1
  Si  Si131  1  0.96844828  0.16745792  0.88392203  1
  Si  Si132  1  0.69157375  0.15737797  0.61007306  1
  Si  Si133  1  0.47854954  0.41548465  0.38801179  1
  Si  Si134  1  0.97335077  0.33400591  0.38342671  1
  Si  Si135  1  0.86034918  0.40728166  0.11017799  1
  Si  Si136  1  0.64104543  0.33078378  0.38439096  1
  Si  Si137  1  0.97792315  0.17086421  0.38478087  1
  Si  Si138  1  0.81547139  0.57320501  0.39063723  1
  Si  Si139  1  0.47445128  0.08372437  0.38786741  1
  Si  Si140  1  0.02869540  0.33476269  0.61244565  1
  Si  Si141  1  0.97552869  0.33395495  0.88284686  1
  Si  Si142  1  0.20011665  0.91425254  0.11743059  1
  Si  Si143  1  0.13407318  0.42321888  0.38791024  1
  Si  Si144  1  0.02509092  0.66114808  0.11336299  1
  Si  Si145  1  0.19333647  0.58842151  0.11437334  1
  Si  Si146  1  0.52253436  0.07898234  0.61458468  1
  Si  Si147  1  0.30857618  0.66385579  0.88292205  1
  Si  Si148  1  0.97919153  0.66245593  0.88770296  1
  Si  Si149  1  0.80879678  0.40998887  0.38446189  1
  Si  Si150  1  0.19376008  0.42380738  0.11203588  1
  Si  Si151  1  0.52091156  0.08077607  0.11761756  1
  Si  Si152  1  0.64149174  0.15952575  0.88590433  1
  Si  Si153  1  0.02397369  0.16854420  0.61421077  1
  Si  Si154  1  0.68284660  0.16528505  0.11317083  1
  Si  Si155  1  0.18962751  0.91986898  0.61722076  1
  Si  Si156  1  0.80982718  0.92582114  0.38838306  1
  Si  Si157  1  0.52359535  0.91913967  0.11751884  1
  Si  Si158  1  0.02937060  0.66676669  0.61560401  1
  Si  Si159  1  0.51892885  0.41273868  0.60585273  1
  Si  Si160  1  0.47390719  0.90971941  0.88518146  1
  Si  Si161  1  0.30850362  0.66091263  0.38595774  1
  Si  Si162  1  0.69453127  0.83626475  0.61448668  1
  Si  Si163  1  0.30765877  0.82938374  0.88948895  1
  Si  Si164  1  0.30838406  0.16580082  0.39067517  1
  Si  Si165  1  0.18883233  0.08404167  0.61662827  1
  Si  Si166  1  0.97116880  0.66504797  0.38614622  1
  Si  Si167  1  0.80631383  0.08011856  0.88186427  1
  Si  Si168  1  0.47606792  0.42395428  0.88348780  1
  Si  Si169  1  0.52228032  0.41523578  0.11106135  1
  Si  Si170  1  0.03330293  0.33514722  0.11492462  1
  Si  Si171  1  0.35283701  0.83658198  0.61470997  1
  Si  Si172  1  0.86352157  0.41930274  0.60986084  1
  Si  Si173  1  0.14257003  0.57914053  0.88366886  1
  Si  Si174  1  0.30936711  0.82952080  0.39128154  1
  Si  Si175  1  0.81111465  0.41821989  0.88448239  1
  Si  Si176  1  0.14075697  0.08201739  0.38999161  1
  Si  Si177  1  0.19221953  0.58159180  0.61291901  1
  Si  Si178  1  0.86314103  0.91535759  0.61527655  1
  Si  Si179  1  0.19035747  0.07799608  0.11837606  1
  Si  Si180  1  0.35497949  0.67108409  0.11252165  1
  Si  Si181  1  0.14344901  0.41468905  0.88386558  1
  Si  Si182  1  0.68713943  0.83940927  0.10958888  1
  Si  Si183  1  0.35282410  0.16168241  0.11535522  1
  Si  Si184  1  0.86275061  0.08015059  0.61400447  1
  Si  Si185  1  0.80056218  0.91511459  0.88481034  1
  Si  Si186  1  0.14029754  0.09515705  0.89010956  1
  Si  Si187  1  0.80851176  0.58414686  0.88199149  1
  Si  Si188  1  0.64233349  0.16489889  0.38585800  1
  Si  Si189  1  0.02722133  0.83137257  0.61532790  1
  Si  Si190  1  0.86401699  0.58628139  0.61416761  1
  Si  Si191  1  0.19278890  0.41599905  0.61361954  1
  O  O192  1  0.27317147  0.10502106  0.08866323  1
  O  O193  1  0.26958954  0.11761964  0.58699288  1
  O  O194  1  0.27004510  0.62172861  0.08060379  1
  O  O195  1  0.26418449  0.62547770  0.58125829  1
  O  O196  1  0.60608302  0.10605228  0.08810049  1
  O  O197  1  0.60272163  0.11157958  0.58465233  1
  O  O198  1  0.60248499  0.60834947  0.06329849  1
  O  O199  1  0.61483691  0.62710951  0.57455532  1
  O  O200  1  0.93690331  0.13443290  0.08604401  1
  O  O201  1  0.93572950  0.12639550  0.58299417  1
  O  O202  1  0.96282182  0.59603359  0.08417042  1
  O  O203  1  0.94066285  0.62578900  0.58387172  1
  O  O204  1  0.10959553  0.37319192  0.08421610  1
  O  O205  1  0.10729806  0.36939013  0.58110874  1
  O  O206  1  0.13291390  0.85558241  0.08424656  1
  O  O207  1  0.10378515  0.87425015  0.58668839  1
  O  O208  1  0.46113937  0.34797753  0.08077298  1
  O  O209  1  0.43178603  0.36279776  0.58129416  1
  O  O210  1  0.44643521  0.86366928  0.08720781  1
  O  O211  1  0.43521455  0.86932532  0.58606543  1
  O  O212  1  0.79302423  0.34446940  0.08369132  1
  O  O213  1  0.78284194  0.37550620  0.57304422  1
  O  O214  1  0.76249556  0.87022721  0.07374149  1
  O  O215  1  0.76905144  0.88114812  0.58579352  1
  O  O216  1  0.26912211  0.39498897  0.07666672  1
  O  O217  1  0.27033033  0.37317248  0.58770949  1
  O  O218  1  0.28980941  0.89664271  0.09136238  1
  O  O219  1  0.27123517  0.88893475  0.58723866  1
  O  O220  1  0.61159620  0.40732498  0.08314751  1
  O  O221  1  0.59062227  0.37562888  0.56930220  1
  O  O222  1  0.60717505  0.89742520  0.08719125  1
  O  O223  1  0.60318557  0.87666971  0.58673578  1
  O  O224  1  0.94908802  0.38014679  0.08464527  1
  O  O225  1  0.94687547  0.38449501  0.58288111  1
  O  O226  1  0.95060785  0.89486778  0.07196017  1
  O  O227  1  0.93643335  0.87018937  0.58415657  1
  O  O228  1  0.10536737  0.12623265  0.08819398  1
  O  O229  1  0.10383302  0.13109981  0.58588010  1
  O  O230  1  0.11523411  0.64245012  0.08760884  1
  O  O231  1  0.10187251  0.62265822  0.58383496  1
  O  O232  1  0.43804626  0.13043169  0.08877801  1
  O  O233  1  0.43518781  0.12340819  0.58484348  1
  O  O234  1  0.42837622  0.64627942  0.07307207  1
  O  O235  1  0.42605210  0.64512617  0.57333274  1
  O  O236  1  0.77080301  0.14220217  0.08647053  1
  O  O237  1  0.76818170  0.11129502  0.58366548  1
  O  O238  1  0.78038043  0.64328236  0.06509293  1
  O  O239  1  0.78008473  0.63337815  0.58573172  1
  O  O240  1  0.06265781  0.12578477  0.41668056  1
  O  O241  1  0.05009038  0.11894313  0.91470652  1
  O  O242  1  0.06706167  0.63490288  0.41590486  1
  O  O243  1  0.06062746  0.60838487  0.91385715  1
  O  O244  1  0.39857211  0.12402935  0.41858824  1
  O  O245  1  0.39981163  0.10540860  0.92257513  1
  O  O246  1  0.38950077  0.61068140  0.41687845  1
  O  O247  1  0.39531147  0.61967781  0.91390613  1
  O  O248  1  0.73233150  0.12280781  0.41671144  1
  O  O249  1  0.72590504  0.10984272  0.91339277  1
  O  O250  1  0.74619243  0.60502611  0.43054670  1
  O  O251  1  0.72729159  0.61948419  0.90923210  1
  O  O252  1  0.21540439  0.38126832  0.42699928  1
  O  O253  1  0.22727439  0.36828533  0.91373479  1
  O  O254  1  0.23793294  0.85782529  0.43248026  1
  O  O255  1  0.23606725  0.86251348  0.92593426  1
  O  O256  1  0.56765022  0.37131499  0.41615157  1
  O  O257  1  0.54804606  0.37205038  0.92470920  1
  O  O258  1  0.55806869  0.88012091  0.42926101  1
  O  O259  1  0.55447012  0.85709235  0.91139383  1
  O  O260  1  0.88998458  0.35743678  0.41392617  1
  O  O261  1  0.90263326  0.37714170  0.91297359  1
  O  O262  1  0.89143671  0.87441404  0.41817241  1
  O  O263  1  0.86889614  0.85848592  0.91995425  1
  O  O264  1  0.04983728  0.38886416  0.41375644  1
  O  O265  1  0.06491328  0.37504499  0.91233533  1
  O  O266  1  0.05432509  0.86318563  0.42951463  1
  O  O267  1  0.05108856  0.89973585  0.93162150  1
  O  O268  1  0.40800570  0.37952736  0.42550870  1
  O  O269  1  0.38319484  0.40478493  0.90508034  1
  O  O270  1  0.39410117  0.87861566  0.41973968  1
  O  O271  1  0.39568543  0.87551392  0.91570703  1
  O  O272  1  0.73033056  0.37228633  0.41369536  1
  O  O273  1  0.74076448  0.38122530  0.91991195  1
  O  O274  1  0.73307635  0.90508699  0.42508960  1
  O  O275  1  0.71047110  0.89298243  0.90992043  1
  O  O276  1  0.23105783  0.12279227  0.41836250  1
  O  O277  1  0.20686091  0.15865231  0.91714690  1
  O  O278  1  0.22801014  0.62863151  0.41821950  1
  O  O279  1  0.22868872  0.62596925  0.91196596  1
  O  O280  1  0.56594602  0.12414916  0.41645320  1
  O  O281  1  0.56427840  0.11856141  0.91469596  1
  O  O282  1  0.55285751  0.62668916  0.41959472  1
  O  O283  1  0.56045394  0.63806526  0.90956997  1
  O  O284  1  0.89485155  0.14147141  0.41389747  1
  O  O285  1  0.88742158  0.13252084  0.91177761  1
  O  O286  1  0.90832152  0.61286052  0.41987228  1
  O  O287  1  0.89492451  0.62799479  0.91254742  1
  O  O288  1  0.17038918  -0.00365530  0.09019450  1
  O  O289  1  0.17296550  0.00197899  0.58710924  1
  O  O290  1  0.16980107  0.50661108  0.08491126  1
  O  O291  1  0.18443096  0.49830521  0.58190875  1
  O  O292  1  0.49608156  -0.00015445  0.08687078  1
  O  O293  1  0.50969377  -0.00410162  0.58565906  1
  O  O294  1  0.47510315  0.48871566  0.08139952  1
  O  O295  1  0.49802563  0.49202305  0.57373083  1
  O  O296  1  0.84024928  0.01771093  0.07475309  1
  O  O297  1  0.86611840  -0.00238411  0.58511337  1
  O  O298  1  0.83345212  0.48307580  0.07448868  1
  O  O299  1  0.85825057  0.50411198  0.58433186  1
  O  O300  1  0.02792519  0.25169183  0.08697561  1
  O  O301  1  0.01425464  0.25140848  0.58435038  1
  O  O302  1  -0.00697409  0.73758230  0.08080033  1
  O  O303  1  0.02556458  0.74923074  0.58463424  1
  O  O304  1  0.32525498  0.23661068  0.07824447  1
  O  O305  1  0.34201297  0.24397493  0.58438598  1
  O  O306  1  0.33335843  0.75754043  0.09135479  1
  O  O307  1  0.32789859  0.75697941  0.58401059  1
  O  O308  1  0.65091923  0.24048861  0.07939707  1
  O  O309  1  0.68509286  0.23367250  0.57261013  1
  O  O310  1  0.65454015  0.76336239  0.07682798  1
  O  O311  1  0.69279792  0.75430526  0.58607448  1
  O  O312  1  0.14694782  0.00517805  0.42706701  1
  O  O313  1  0.17346227  0.01957620  0.92356798  1
  O  O314  1  0.13769569  0.50709906  0.41550694  1
  O  O315  1  0.15719582  0.49653556  0.91396674  1
  O  O316  1  0.47791761  0.00282135  0.42094339  1
  O  O317  1  0.49499438  -0.00903167  0.91398052  1
  O  O318  1  0.49151003  0.49730546  0.41822283  1
  O  O319  1  0.49589193  0.50743946  0.91142630  1
  O  O320  1  0.83858086  0.00951761  0.41406817  1
  O  O321  1  0.82452785  -0.00154742  0.91111347  1
  O  O322  1  0.83235751  0.48851129  0.41806691  1
  O  O323  1  0.82445656  0.50223183  0.91065500  1
  O  O324  1  0.31398739  0.24266356  0.42737252  1
  O  O325  1  0.34613551  0.26675432  0.92324870  1
  O  O326  1  0.32867411  0.74388626  0.41312821  1
  O  O327  1  0.32356394  0.74524323  0.91469134  1
  O  O328  1  0.65072793  0.24782567  0.41569903  1
  O  O329  1  0.65623594  0.23722684  0.92011545  1
  O  O330  1  0.67263401  0.75131365  0.43665652  1
  O  O331  1  0.66373227  0.75111668  0.91051231  1
  O  O332  1  0.99782976  0.25298551  0.41334129  1
  O  O333  1  0.98129279  0.25097186  0.91188835  1
  O  O334  1  0.96236021  0.74564025  0.41718242  1
  O  O335  1  1.00266175  0.73831190  0.92299218  1
  O  O336  1  0.20771455  0.08253969  0.19902222  1
  O  O337  1  0.20688229  0.08343885  0.69676988  1
  O  O338  1  0.21054697  0.58350448  0.19489041  1
  O  O339  1  0.20964582  0.58165124  0.69216607  1
  O  O340  1  0.54246055  0.08063324  0.19730071  1
  O  O341  1  0.54021328  0.08003304  0.69502384  1
  O  O342  1  0.54727375  0.57386266  0.19618606  1
  O  O343  1  0.54714101  0.58721312  0.69681836  1
  O  O344  1  0.87701817  0.08833454  0.19335144  1
  O  O345  1  0.88104048  0.08592467  0.69334735  1
  O  O346  1  0.87619968  0.58207133  0.20071152  1
  O  O347  1  0.88075574  0.58417402  0.69469280  1
  O  O348  1  0.04778394  0.33387333  0.19575819  1
  O  O349  1  0.04410627  0.33370429  0.69285612  1
  O  O350  1  0.04367004  0.83224103  0.20332088  1
  O  O351  1  0.04395167  0.83248239  0.69493284  1
  O  O352  1  0.37637033  0.33161964  0.20034710  1
  O  O353  1  0.37995670  0.32341665  0.69417210  1
  O  O354  1  0.38496285  0.84246564  0.19945728  1
  O  O355  1  0.37350126  0.83610034  0.69518682  1
  O  O356  1  0.70964548  0.33105496  0.20190925  1
  O  O357  1  0.71344635  0.33144944  0.69675390  1
  O  O358  1  0.71246542  0.83981803  0.19096747  1
  O  O359  1  0.71072303  0.83482506  0.69476598  1
  O  O360  1  0.20808519  0.41971474  0.19292945  1
  O  O361  1  0.20023396  0.41780536  0.69251389  1
  O  O362  1  0.21459531  0.91703204  0.19832514  1
  O  O363  1  0.20955865  0.91911491  0.69713530  1
  O  O364  1  0.54013224  0.41255594  0.19328589  1
  O  O365  1  0.54322304  0.41122757  0.68607825  1
  O  O366  1  0.54254182  0.92206719  0.19772664  1
  O  O367  1  0.54060913  0.91491162  0.69506921  1
  O  O368  1  0.87968174  0.41270914  0.19203470  1
  O  O369  1  0.87927288  0.41654470  0.69100415  1
  O  O370  1  0.87976778  0.92007464  0.20235105  1
  O  O371  1  0.88021728  0.91446574  0.69459600  1
  O  O372  1  0.04552835  0.16803415  0.19683519  1
  O  O373  1  0.04239576  0.16776061  0.69453644  1
  O  O374  1  0.04303572  0.66450925  0.19529631  1
  O  O375  1  0.04197261  0.66749170  0.69502363  1
  O  O376  1  0.36810896  0.16479761  0.19563827  1
  O  O377  1  0.37807727  0.16182773  0.69516237  1
  O  O378  1  0.37169025  0.66005297  0.19069988  1
  O  O379  1  0.37167924  0.67205951  0.69010173  1
  O  O380  1  0.70666166  0.16562992  0.19426175  1
  O  O381  1  0.70888313  0.16211725  0.69100258  1
  O  O382  1  0.71384342  0.67068005  0.19545554  1
  O  O383  1  0.71267207  0.66737799  0.69226657  1
  O  O384  1  0.12289282  0.08397337  0.30903218  1
  O  O385  1  0.12114102  0.08900990  0.80791241  1
  O  O386  1  0.12151976  0.58489794  0.30529325  1
  O  O387  1  0.12149413  0.57923040  0.80406983  1
  O  O388  1  0.45533149  0.08234950  0.30850828  1
  O  O389  1  0.45666634  0.07895939  0.80696233  1
  O  O390  1  0.45090508  0.57454054  0.30787657  1
  O  O391  1  0.45263189  0.59141003  0.80249496  1
  O  O392  1  0.79199502  0.08814089  0.30477389  1
  O  O393  1  0.78773229  0.08408188  0.80201212  1
  O  O394  1  0.79926590  0.57830934  0.31138197  1
  O  O395  1  0.79171648  0.58426434  0.80120308  1
  O  O396  1  0.28520113  0.33351465  0.30067129  1
  O  O397  1  0.28618563  0.32888835  0.80610663  1
  O  O398  1  0.28418783  0.84027008  0.31230515  1
  O  O399  1  0.29006010  0.83325921  0.80815879  1
  O  O400  1  0.62161325  0.32953149  0.30495941  1
  O  O401  1  0.62191371  0.33077540  0.79683448  1
  O  O402  1  0.62871260  0.83744338  0.30065321  1
  O  O403  1  0.62085262  0.83243774  0.80164618  1
  O  O404  1  0.95703024  0.33303151  0.30314070  1
  O  O405  1  0.95746550  0.33366860  0.80207146  1
  O  O406  1  0.95524416  0.83249331  0.31022703  1
  O  O407  1  0.95581894  0.83258473  0.80116351  1
  O  O408  1  0.12201465  0.41844114  0.30719480  1
  O  O409  1  0.12267899  0.41632612  0.80336912  1
  O  O410  1  0.12084661  0.91803558  0.30288258  1
  O  O411  1  0.12193522  0.91831617  0.80175986  1
  O  O412  1  0.45754561  0.41359106  0.30779762  1
  O  O413  1  0.47034892  0.41781925  0.80481596  1
  O  O414  1  0.45815685  0.92090335  0.31157831  1
  O  O415  1  0.45485519  0.91325326  0.80433084  1
  O  O416  1  0.79352749  0.41352060  0.30484984  1
  O  O417  1  0.79560273  0.41647192  0.80355542  1
  O  O418  1  0.79101571  0.92251687  0.30774579  1
  O  O419  1  0.78540719  0.91373471  0.80441628  1
  O  O420  1  0.28950574  0.16627344  0.30975838  1
  O  O421  1  0.29018365  0.16712682  0.80012725  1
  O  O422  1  0.28469334  0.65644069  0.30703148  1
  O  O423  1  0.29156428  0.66755122  0.80322993  1
  O  O424  1  0.62853905  0.16546552  0.30674776  1
  O  O425  1  0.62362971  0.16113581  0.80449558  1
  O  O426  1  0.64073734  0.66981517  0.30507386  1
  O  O427  1  0.62530556  0.66926474  0.80145395  1
  O  O428  1  0.95871339  0.16856354  0.30447802  1
  O  O429  1  0.95387639  0.16833233  0.80330168  1
  O  O430  1  0.95606256  0.66597881  0.30633293  1
  O  O431  1  0.95911381  0.66444007  0.80625055  1
  F  F432  1  0.04566422  0.00434660  0.20297496  1
  F  F433  1  0.04534233  0.00341165  0.70187679  1
  F  F434  1  0.04739412  0.49919611  0.20354697  1
  F  F435  1  0.04485759  0.50049326  0.69964982  1
  F  F436  1  0.37798668  0.00100471  0.20761831  1
  F  F437  1  0.37647930  -0.00098724  0.70360973  1
  F  F438  1  0.37709846  0.49664321  0.20407188  1
  F  F439  1  0.37590575  0.51349067  0.69117037  1
  F  F440  1  0.71301274  0.00382204  0.20407137  1
  F  F441  1  0.70293279  -0.00179668  0.69753658  1
  F  F442  1  0.71536261  0.49472610  0.20251574  1
  F  F443  1  0.71641769  0.49946577  0.69721362  1
  F  F444  1  0.20825710  0.24712261  0.20332036  1
  F  F445  1  0.20972528  0.25048486  0.69978320  1
  F  F446  1  0.20299010  0.75135581  0.20401227  1
  F  F447  1  0.21164406  0.75899125  0.70038302  1
  F  F448  1  0.54393790  0.24770097  0.20338617  1
  F  F449  1  0.54437113  0.24235942  0.69955796  1
  F  F450  1  0.54789607  0.76288063  0.19744025  1
  F  F451  1  0.54431420  0.75223908  0.69831607  1
  F  F452  1  0.88154992  0.24915046  0.20183911  1
  F  F453  1  0.87907023  0.24954202  0.69905624  1
  F  F454  1  0.87997275  0.75091490  0.20407974  1
  F  F455  1  0.87991190  0.74851395  0.70135544  1
  F  F456  1  0.28787332  0.00240430  0.30257684  1
  F  F457  1  0.28814190  -0.00004253  0.79980387  1
  F  F458  1  0.28569321  0.49729995  0.29863902  1
  F  F459  1  0.28297619  0.51104292  0.80055408  1
  F  F460  1  0.62340513  0.00270351  0.30064356  1
  F  F461  1  0.61918067  -0.00200513  0.79705093  1
  F  F462  1  0.61933180  0.48697716  0.30401039  1
  F  F463  1  0.63517546  0.49837110  0.79669610  1
  F  F464  1  0.95576454  0.00634154  0.30070496  1
  F  F465  1  0.95673671  0.00214935  0.79917366  1
  F  F466  1  0.95672389  0.49641859  0.29842546  1
  F  F467  1  0.95556150  0.49870901  0.79540822  1
  F  F468  1  0.12075136  0.25096767  0.30020432  1
  F  F469  1  0.11800402  0.25290916  0.79575954  1
  F  F470  1  0.12053610  0.74588511  0.30353256  1
  F  F471  1  0.12138406  0.75130988  0.80071452  1
  F  F472  1  0.45370792  0.24976198  0.30317910  1
  F  F473  1  0.45686688  0.24689519  0.79829610  1
  F  F474  1  0.46954149  0.76327090  0.31527247  1
  F  F475  1  0.45295237  0.75038897  0.79394892  1
  F  F476  1  0.79091013  0.24775777  0.29863463  1
  F  F477  1  0.79030097  0.24622782  0.79573100  1
  F  F478  1  0.79153466  0.75441063  0.29755306  1
  F  F479  1  0.78713732  0.74925479  0.79523254  1
