# generated using pymatgen
data_K24Na3Li5Mg64Fe17Si79(O5F)48
_symmetry_space_group_name_H-M   'P 1'
_cell_length_a   16.09145125
_cell_length_b   18.59350676
_cell_length_c   20.56604333
_cell_angle_alpha   90.00175518
_cell_angle_beta   99.99639392
_cell_angle_gamma   90.01741906
_symmetry_Int_Tables_number   1
_chemical_formula_structural   K24Na3Li5Mg64Fe17Si79(O5F)48
_chemical_formula_sum   'K24 Na3 Li5 Mg64 Fe17 Si79 O240 F48'
_cell_volume   6059.87299949
_cell_formula_units_Z   1
loop_
 _symmetry_equiv_pos_site_id
 _symmetry_equiv_pos_as_xyz
  1  'x, y, z'
loop_
 _atom_site_type_symbol
 _atom_site_label
 _atom_site_symmetry_multiplicity
 _atom_site_fract_x
 _atom_site_fract_y
 _atom_site_fract_z
 _atom_site_occupancy
  K  K0  1  -0.00086119  0.00241900  0.00010819  1
  K  K1  1  -0.01264022  -0.00396720  0.49886625  1
  K  K2  1  0.00227948  0.50763053  0.00274647  1
  K  K3  1  -0.00937136  0.49454039  0.49660314  1
  K  K4  1  0.34087877  0.00575394  0.00475224  1
  K  K5  1  0.33933293  0.00496966  0.49634027  1
  K  K6  1  0.33715000  0.50058951  0.00315341  1
  K  K7  1  0.34628625  0.48846922  0.49479857  1
  K  K8  1  0.66317253  -0.00088248  0.00737905  1
  K  K9  1  0.68169612  0.00271242  0.49585316  1
  K  K10  1  0.66658766  0.49760748  0.00408279  1
  K  K11  1  0.65127890  0.49233926  0.48715446  1
  K  K12  1  0.16479180  0.24604395  -0.00093129  1
  K  K13  1  0.16831175  0.25771106  0.50101363  1
  K  K14  1  0.17187609  0.74488334  0.00043479  1
  K  K15  1  0.16350339  0.74621525  0.49592281  1
  K  K16  1  0.50464393  0.25137542  0.00453709  1
  K  K17  1  0.50453134  0.25733350  0.49804987  1
  K  K18  1  0.50858963  0.74595790  0.00973835  1
  K  K19  1  0.51282940  0.74378548  0.49148044  1
  K  K20  1  0.82730059  0.25070921  -0.00104540  1
  K  K21  1  0.82309644  0.24817623  0.49638329  1
  K  K22  1  0.82380839  0.75178092  0.00730607  1
  K  K23  1  0.81698172  0.75779588  0.49127697  1
  Na  Na24  1  0.67175878  0.75176089  0.75282717  1
  Na  Na25  1  0.50032853  0.66799341  0.24785960  1
  Na  Na26  1  0.83284001  0.82843877  0.74826811  1
  Li  Li27  1  -0.00302955  0.74961733  0.24775809  1
  Li  Li28  1  0.66470195  0.24782348  0.75214940  1
  Li  Li29  1  0.49963632  0.32830334  0.25211201  1
  Li  Li30  1  0.49620704  0.17326629  0.24219256  1
  Li  Li31  1  0.16851218  0.66487057  0.75167448  1
  Mg  Mg32  1  0.83332973  0.49980860  0.25344344  1
  Mg  Mg33  1  0.50020687  0.00512248  0.24855500  1
  Mg  Mg34  1  0.83443844  0.00043178  0.74713902  1
  Mg  Mg35  1  0.16457819  0.00020888  0.75428847  1
  Mg  Mg36  1  0.16595747  -0.00232605  0.24880573  1
  Mg  Mg37  1  0.83211344  -0.00191016  0.24965582  1
  Mg  Mg38  1  0.83144791  0.50011824  0.74822470  1
  Mg  Mg39  1  0.00016735  0.25084956  0.25315620  1
  Mg  Mg40  1  0.33294072  0.25086111  0.75367646  1
  Mg  Mg41  1  0.33845900  0.24938980  0.24965399  1
  Mg  Mg42  1  0.16851369  0.50199986  0.75172247  1
  Mg  Mg43  1  0.33132710  0.74831775  0.75129317  1
  Mg  Mg44  1  0.66132790  0.25054905  0.25090776  1
  Mg  Mg45  1  0.16760349  0.50135981  0.24834038  1
  Mg  Mg46  1  0.66596850  0.75011836  0.24899869  1
  Mg  Mg47  1  0.49996607  0.49626235  0.24984810  1
  Mg  Mg48  1  0.50022279  0.00046482  0.75059190  1
  Mg  Mg49  1  0.00332646  0.74638114  0.74924972  1
  Mg  Mg50  1  -0.00129944  0.24988372  0.75061753  1
  Mg  Mg51  1  0.50054652  0.50079987  0.75176840  1
  Mg  Mg52  1  0.33378662  0.75015581  0.24777488  1
  Mg  Mg53  1  0.66900704  0.91866030  0.74797426  1
  Mg  Mg54  1  0.66328312  0.08600429  0.24797214  1
  Mg  Mg55  1  -0.00130114  0.08433038  0.75031246  1
  Mg  Mg56  1  0.50357270  0.33311813  0.75102272  1
  Mg  Mg57  1  0.50100298  0.66729413  0.75037589  1
  Mg  Mg58  1  0.33355999  0.08384546  0.75467423  1
  Mg  Mg59  1  0.82851729  0.33287483  0.74868116  1
  Mg  Mg60  1  0.33332437  0.91626671  0.25086188  1
  Mg  Mg61  1  0.16694097  0.33404426  0.25050740  1
  Mg  Mg62  1  0.66722000  0.08765955  0.74937055  1
  Mg  Mg63  1  0.16610157  0.66727621  0.24824562  1
  Mg  Mg64  1  0.50231268  0.83400870  0.74884835  1
  Mg  Mg65  1  0.16668502  0.83033201  0.75222002  1
  Mg  Mg66  1  -0.00064715  0.08255854  0.25024528  1
  Mg  Mg67  1  0.00090701  0.58648745  0.24778538  1
  Mg  Mg68  1  0.83355567  0.83395828  0.24777236  1
  Mg  Mg69  1  0.83424455  0.66747827  0.25062984  1
  Mg  Mg70  1  0.00231702  0.58361530  0.74864343  1
  Mg  Mg71  1  0.16165157  0.83110348  0.24879118  1
  Mg  Mg72  1  0.16586247  0.16556754  0.75360150  1
  Mg  Mg73  1  0.33391877  0.41456985  0.24677155  1
  Mg  Mg74  1  0.33695881  0.41510362  0.75390274  1
  Mg  Mg75  1  0.66668746  0.91541818  0.24775968  1
  Mg  Mg76  1  0.83473128  0.66607726  0.74888633  1
  Mg  Mg77  1  -0.00376703  0.91271192  0.24936958  1
  Mg  Mg78  1  0.66483242  0.41459820  0.25434695  1
  Mg  Mg79  1  0.50191404  0.83556437  0.25047591  1
  Mg  Mg80  1  0.16970508  0.33484517  0.75392789  1
  Mg  Mg81  1  0.16804576  0.16469183  0.24931082  1
  Mg  Mg82  1  0.50282721  0.16735549  0.75100970  1
  Mg  Mg83  1  0.66557343  0.58597436  0.74852609  1
  Mg  Mg84  1  0.33563762  0.08541154  0.24738547  1
  Mg  Mg85  1  0.33291814  0.91507522  0.75184031  1
  Mg  Mg86  1  0.83386663  0.33476522  0.25349307  1
  Mg  Mg87  1  0.33406413  0.58386691  0.24730435  1
  Mg  Mg88  1  0.66335677  0.41406216  0.74829366  1
  Mg  Mg89  1  0.33449419  0.58477671  0.75211452  1
  Mg  Mg90  1  0.66672860  0.58421044  0.25321207  1
  Mg  Mg91  1  0.83323658  0.16660721  0.25023850  1
  Mg  Mg92  1  0.00031888  0.41638079  0.75152976  1
  Mg  Mg93  1  0.83001774  0.16630466  0.74924591  1
  Mg  Mg94  1  -0.00110430  0.91394682  0.74915813  1
  Mg  Mg95  1  -0.00033992  0.41577399  0.25280297  1
  Fe  Fe96  1  0.52267630  0.41904341  0.60992292  1
  Fe  Fe97  1  0.98000498  0.33174916  0.39359408  1
  Fe  Fe98  1  0.85917976  0.08382208  0.60843403  1
  Fe  Fe99  1  0.52322281  0.57789575  0.11102743  1
  Fe  Fe100  1  0.69502535  0.66102658  0.11054941  1
  Fe  Fe101  1  0.63581772  0.83487202  0.39148221  1
  Fe  Fe102  1  0.80839561  0.41458822  0.39486284  1
  Fe  Fe103  1  0.81128738  0.91602812  0.39014880  1
  Fe  Fe104  1  0.35266292  0.16676392  0.10585564  1
  Fe  Fe105  1  0.31346408  0.33482716  0.89327609  1
  Fe  Fe106  1  0.52834393  0.08799573  0.10766120  1
  Fe  Fe107  1  0.63951980  0.16396963  0.89014222  1
  Fe  Fe108  1  0.19268329  0.58600648  0.10912794  1
  Fe  Fe109  1  0.48147309  0.58765712  0.89004743  1
  Fe  Fe110  1  0.13774872  0.08483764  0.89211003  1
  Fe  Fe111  1  0.85714763  0.92072285  0.10737502  1
  Fe  Fe112  1  0.46842380  0.41163793  0.38584153  1
  Si  Si113  1  0.97361401  0.66522348  0.88421362  1
  Si  Si114  1  0.30564310  0.66388837  0.88666959  1
  Si  Si115  1  0.35748408  0.67305470  0.61416400  1
  Si  Si116  1  0.80271796  0.42125331  0.88399473  1
  Si  Si117  1  0.18860263  0.91695534  0.61647017  1
  Si  Si118  1  0.02524495  0.83357313  0.11270532  1
  Si  Si119  1  0.14185271  0.42255217  0.38682773  1
  Si  Si120  1  0.86093645  0.41646674  0.61513732  1
  Si  Si121  1  0.47674915  0.91262617  0.88579257  1
  Si  Si122  1  0.31053074  0.16582710  0.88807861  1
  Si  Si123  1  0.35650313  0.83786629  0.61460243  1
  Si  Si124  1  0.14695166  0.58572570  0.38492519  1
  Si  Si125  1  0.30375834  0.83437260  0.38396095  1
  Si  Si126  1  0.18743725  0.41697287  0.11214446  1
  Si  Si127  1  0.47255271  0.08495476  0.38502000  1
  Si  Si128  1  0.68991229  0.83522969  0.61283331  1
  Si  Si129  1  0.69096098  0.33679612  0.11610723  1
  Si  Si130  1  0.64016533  0.32760727  0.39080645  1
  Si  Si131  1  0.69505012  0.33527124  0.61266231  1
  Si  Si132  1  0.51988125  0.41046789  0.11535486  1
  Si  Si133  1  0.68884987  0.16786270  0.61141494  1
  Si  Si134  1  0.80702786  0.58595795  0.88369789  1
  Si  Si135  1  0.52341549  0.59095540  0.61109211  1
  Si  Si136  1  0.52454272  0.91746996  0.61164716  1
  Si  Si137  1  0.69982697  0.17238888  0.11404167  1
  Si  Si138  1  0.03022942  0.17179942  0.61283137  1
  Si  Si139  1  0.46601382  0.92077093  0.38787739  1
  Si  Si140  1  0.85914298  0.58314283  0.61291076  1
  Si  Si141  1  0.02720219  0.66990741  0.11334369  1
  Si  Si142  1  0.96740670  0.33773155  0.88495850  1
  Si  Si143  1  0.14301387  0.91214247  0.88916031  1
  Si  Si144  1  0.98002010  0.66508186  0.38448663  1
  Si  Si145  1  0.97747964  0.82896797  0.38709527  1
  Si  Si146  1  0.14174731  0.07610303  0.38533719  1
  Si  Si147  1  0.52321345  0.08385511  0.61332360  1
  Si  Si148  1  0.81313304  0.08721219  0.38544891  1
  Si  Si149  1  0.19530652  0.41912812  0.61618088  1
  Si  Si150  1  0.31150096  0.67058254  0.38517601  1
  Si  Si151  1  0.86096492  0.41531168  0.11510382  1
  Si  Si152  1  0.35531983  0.83644108  0.11478185  1
  Si  Si153  1  0.34921015  0.33278459  0.11206406  1
  Si  Si154  1  0.64638436  0.84076852  0.88377781  1
  Si  Si155  1  0.52063652  0.91679884  0.11231801  1
  Si  Si156  1  0.86700053  0.58088467  0.11258587  1
  Si  Si157  1  0.02634677  0.32997243  0.11531915  1
  Si  Si158  1  0.30410900  0.16385478  0.38565682  1
  Si  Si159  1  0.64371800  0.33263971  0.88657901  1
  Si  Si160  1  0.47315652  0.58105264  0.38676525  1
  Si  Si161  1  0.02827163  0.66230094  0.61457024  1
  Si  Si162  1  0.68703313  0.83229172  0.10886921  1
  Si  Si163  1  0.86042871  0.91326295  0.61080713  1
  Si  Si164  1  0.13680241  0.41709889  0.88870845  1
  Si  Si165  1  0.48301396  0.41845371  0.88952002  1
  Si  Si166  1  0.81486120  0.58614421  0.39061698  1
  Si  Si167  1  0.02823535  0.16519338  0.11634388  1
  Si  Si168  1  0.03003747  0.33793625  0.61698911  1
  Si  Si169  1  0.46894556  0.07860458  0.88683065  1
  Si  Si170  1  0.69472071  0.66684375  0.61311944  1
  Si  Si171  1  0.86009499  0.08958907  0.11382922  1
  Si  Si172  1  0.80726748  0.08108183  0.88698149  1
  Si  Si173  1  0.64313884  0.16297543  0.38462921  1
  Si  Si174  1  0.98209900  0.16409013  0.38713807  1
  Si  Si175  1  0.64494631  0.67376859  0.88555411  1
  Si  Si176  1  0.96736715  0.17148649  0.88827200  1
  Si  Si177  1  0.18801636  0.07621195  0.11317667  1
  Si  Si178  1  0.35671668  0.16243568  0.61683651  1
  Si  Si179  1  0.13942890  0.91244216  0.38494190  1
  Si  Si180  1  0.35720217  0.67196849  0.11024737  1
  Si  Si181  1  0.29895563  0.32918351  0.38680109  1
  Si  Si182  1  0.19224005  0.08201059  0.61706426  1
  Si  Si183  1  0.30963906  0.82983966  0.88640177  1
  Si  Si184  1  0.18888910  0.91262225  0.11562471  1
  Si  Si185  1  0.35559270  0.32819374  0.61424610  1
  Si  Si186  1  0.13803081  0.58277970  0.88437229  1
  Si  Si187  1  0.19687975  0.58326293  0.61528945  1
  Si  Si188  1  0.97687932  0.82976643  0.88361189  1
  Si  Si189  1  0.64508156  0.66425743  0.38922649  1
  Si  Si190  1  0.81323829  0.91990268  0.88279427  1
  Si  Si191  1  0.02658901  0.82794099  0.61416850  1
  O  O192  1  0.26402514  0.09821375  0.07654927  1
  O  O193  1  0.27404150  0.11210472  0.58700056  1
  O  O194  1  0.28279513  0.62020318  0.07117890  1
  O  O195  1  0.27034985  0.62784434  0.58427354  1
  O  O196  1  0.62859124  0.11871484  0.07733079  1
  O  O197  1  0.59581872  0.12821361  0.58394601  1
  O  O198  1  0.61344804  0.59896843  0.07044762  1
  O  O199  1  0.60404904  0.62826952  0.58233181  1
  O  O200  1  0.94562474  0.11743747  0.08621175  1
  O  O201  1  0.94707640  0.13204477  0.57507344  1
  O  O202  1  0.95192870  0.61108353  0.08615299  1
  O  O203  1  0.93941652  0.61976305  0.58406135  1
  O  O204  1  0.10704069  0.36077860  0.08490123  1
  O  O205  1  0.10347332  0.38216083  0.58714739  1
  O  O206  1  0.11571509  0.85386046  0.08647504  1
  O  O207  1  0.10363379  0.87048909  0.58539558  1
  O  O208  1  0.43947844  0.35538282  0.08942080  1
  O  O209  1  0.42738461  0.36096483  0.57743769  1
  O  O210  1  0.43676029  0.86531815  0.08486649  1
  O  O211  1  0.43310212  0.87694390  0.58353044  1
  O  O212  1  0.77081877  0.37472162  0.08608638  1
  O  O213  1  0.78049461  0.36619182  0.58550305  1
  O  O214  1  0.76069317  0.86778908  0.07327163  1
  O  O215  1  0.77038725  0.87012915  0.58408201  1
  O  O216  1  0.27317226  0.39262612  0.08445775  1
  O  O217  1  0.26557078  0.37136512  0.58637765  1
  O  O218  1  0.27465219  0.89026215  0.08672032  1
  O  O219  1  0.26912983  0.88335350  0.58628694  1
  O  O220  1  0.60370449  0.37889692  0.08500468  1
  O  O221  1  0.61657488  0.38334190  0.57703245  1
  O  O222  1  0.59976391  0.87977787  0.08407280  1
  O  O223  1  0.59930489  0.87625636  0.58037762  1
  O  O224  1  0.93789578  0.37317019  0.08563527  1
  O  O225  1  0.94294881  0.38172865  0.58871609  1
  O  O226  1  0.95460675  0.88845563  0.07521150  1
  O  O227  1  0.93578655  0.86455319  0.58439795  1
  O  O228  1  0.10671885  0.12991771  0.08653148  1
  O  O229  1  0.11305023  0.13424192  0.58744140  1
  O  O230  1  0.10472024  0.65022128  0.07578086  1
  O  O231  1  0.10541435  0.62168616  0.58497184  1
  O  O232  1  0.44078661  0.14241290  0.06334358  1
  O  O233  1  0.43311981  0.12499287  0.58463332  1
  O  O234  1  0.44460183  0.65330284  0.08542377  1
  O  O235  1  0.43937525  0.64301000  0.58495031  1
  O  O236  1  0.79065851  0.15321466  0.09026499  1
  O  O237  1  0.75638795  0.12929841  0.57278179  1
  O  O238  1  0.79019961  0.62830860  0.07508807  1
  O  O239  1  0.77284315  0.62815216  0.58218093  1
  O  O240  1  0.05749457  0.10313290  0.41330414  1
  O  O241  1  0.04656587  0.12587741  0.92607096  1
  O  O242  1  0.06496242  0.61581572  0.41555794  1
  O  O243  1  0.05848733  0.61853831  0.91438663  1
  O  O244  1  0.39591290  0.12668080  0.41622354  1
  O  O245  1  0.37775815  0.09844995  0.90794589  1
  O  O246  1  0.39862794  0.62869628  0.41674752  1
  O  O247  1  0.38268220  0.61484627  0.92232419  1
  O  O248  1  0.72977008  0.11718932  0.41480754  1
  O  O249  1  0.72791489  0.09897161  0.92230846  1
  O  O250  1  0.73365648  0.62040871  0.41956323  1
  O  O251  1  0.73132681  0.62558453  0.91344519  1
  O  O252  1  0.21793499  0.36547604  0.41488608  1
  O  O253  1  0.21313704  0.36658893  0.92276019  1
  O  O254  1  0.22136697  0.86221793  0.41485759  1
  O  O255  1  0.23000937  0.86477170  0.91549877  1
  O  O256  1  0.55744420  0.35174220  0.42070398  1
  O  O257  1  0.55940802  0.35944096  0.91510374  1
  O  O258  1  0.54084752  0.87111842  0.42516908  1
  O  O259  1  0.56429421  0.86908224  0.91614774  1
  O  O260  1  0.89398662  0.35468948  0.43730686  1
  O  O261  1  0.88725270  0.37340397  0.91368769  1
  O  O262  1  0.90410383  0.85525329  0.42577662  1
  O  O263  1  0.89515334  0.86708474  0.90899145  1
  O  O264  1  0.06346344  0.40298660  0.42263651  1
  O  O265  1  0.04936826  0.38807009  0.91374374  1
  O  O266  1  0.06201596  0.87934187  0.41705216  1
  O  O267  1  0.06463488  0.87117837  0.91731293  1
  O  O268  1  0.38080048  0.37040762  0.42420736  1
  O  O269  1  0.40166924  0.39878648  0.92333819  1
  O  O270  1  0.37866151  0.89104559  0.41325626  1
  O  O271  1  0.39748069  0.87431524  0.91428408  1
  O  O272  1  0.71660561  0.37748220  0.42912306  1
  O  O273  1  0.72239666  0.39036359  0.91391573  1
  O  O274  1  0.72551385  0.88885584  0.43397540  1
  O  O275  1  0.73044249  0.88992294  0.91309350  1
  O  O276  1  0.22887373  0.12035506  0.41639629  1
  O  O277  1  0.22748418  0.14762117  0.91988983  1
  O  O278  1  0.22941555  0.63705889  0.41435764  1
  O  O279  1  0.21926032  0.63385192  0.91191848  1
  O  O280  1  0.56300637  0.12504175  0.41374061  1
  O  O281  1  0.54228870  0.13107265  0.92199494  1
  O  O282  1  0.56421581  0.62218441  0.41332140  1
  O  O283  1  0.56849650  0.65312689  0.92325142  1
  O  O284  1  0.89371919  0.14215612  0.41240510  1
  O  O285  1  0.88274706  0.14020160  0.91393858  1
  O  O286  1  0.89923667  0.63810959  0.41760074  1
  O  O287  1  0.89585059  0.62738174  0.91378782  1
  O  O288  1  0.15731822  -0.00679950  0.08901094  1
  O  O289  1  0.17377438  -0.00038171  0.58755083  1
  O  O290  1  0.15698610  0.49315146  0.07840769  1
  O  O291  1  0.19430184  0.50082097  0.58477999  1
  O  O292  1  0.50236156  -0.00701531  0.07517830  1
  O  O293  1  0.51496788  0.00090064  0.58269889  1
  O  O294  1  0.49075432  0.48526457  0.07784946  1
  O  O295  1  0.50242633  0.51371851  0.57687008  1
  O  O296  1  0.83148193  0.01546052  0.07631442  1
  O  O297  1  0.85548625  -0.01035278  0.57274020  1
  O  O298  1  0.85718272  0.49650536  0.08385831  1
  O  O299  1  0.84917201  0.49932529  0.58572596  1
  O  O300  1  0.01206016  0.24724388  0.08683619  1
  O  O301  1  0.02941950  0.25649778  0.58699083  1
  O  O302  1  -0.00393046  0.75156279  0.08732446  1
  O  O303  1  0.02551953  0.74518070  0.58489107  1
  O  O304  1  0.31538051  0.25907617  0.07476212  1
  O  O305  1  0.33700373  0.24378151  0.58758552  1
  O  O306  1  0.32996700  0.75650334  0.08492953  1
  O  O307  1  0.34112221  0.75590333  0.58474252  1
  O  O308  1  0.68166379  0.25527346  0.08547980  1
  O  O309  1  0.67913557  0.25201900  0.58529825  1
  O  O310  1  0.66827802  0.75342229  0.07578129  1
  O  O311  1  0.68461169  0.75071133  0.58624645  1
  O  O312  1  0.16056566  -0.00597279  0.41470090  1
  O  O313  1  0.15659698  -0.01019571  0.92420490  1
  O  O314  1  0.17334248  0.50468509  0.41293863  1
  O  O315  1  0.15030889  0.50111523  0.91587549  1
  O  O316  1  0.47607564  0.00382155  0.41852538  1
  O  O317  1  0.48787956  -0.00520362  0.91385923  1
  O  O318  1  0.47970946  0.50467971  0.42485678  1
  O  O319  1  0.52136005  0.49593317  0.91602645  1
  O  O320  1  0.84058230  0.01101177  0.41940319  1
  O  O321  1  0.84154079  -0.00022398  0.91353328  1
  O  O322  1  0.83561836  0.50947255  0.42658657  1
  O  O323  1  0.81942954  0.50332595  0.91347437  1
  O  O324  1  0.30206102  0.24513845  0.41546006  1
  O  O325  1  0.35141233  0.24123837  0.91705382  1
  O  O326  1  0.32381215  0.75340295  0.41515478  1
  O  O327  1  0.31942726  0.74785690  0.91510286  1
  O  O328  1  0.65776256  0.24276944  0.41817286  1
  O  O329  1  0.67336127  0.25696202  0.92187430  1
  O  O330  1  0.65139523  0.74066418  0.42784232  1
  O  O331  1  0.67129154  0.75822293  0.90720383  1
  O  O332  1  1.01959532  0.23798462  0.42099605  1
  O  O333  1  0.97873397  0.25621523  0.91541971  1
  O  O334  1  1.00632764  0.74627265  0.41289619  1
  O  O335  1  0.98530661  0.74719454  0.91388377  1
  O  O336  1  0.20689360  0.07999788  0.19420562  1
  O  O337  1  0.21142398  0.08150178  0.69718305  1
  O  O338  1  0.21083597  0.58406860  0.20084236  1
  O  O339  1  0.21391447  0.58118532  0.69480842  1
  O  O340  1  0.54471829  0.08359171  0.19807057  1
  O  O341  1  0.53912961  0.08149226  0.69317902  1
  O  O342  1  0.54999079  0.57366225  0.20092620  1
  O  O343  1  0.54402063  0.58801470  0.69162541  1
  O  O344  1  0.87907505  0.08478368  0.19490360  1
  O  O345  1  0.87949561  0.08527887  0.70056225  1
  O  O346  1  0.87901138  0.58115136  0.19339461  1
  O  O347  1  0.87800800  0.58151657  0.69336909  1
  O  O348  1  0.04445920  0.33238236  0.19550634  1
  O  O349  1  0.04578366  0.33578316  0.69753064  1
  O  O350  1  0.04418566  0.83764676  0.19293910  1
  O  O351  1  0.04598531  0.83073858  0.69429550  1
  O  O352  1  0.36106105  0.33131381  0.19169468  1
  O  O353  1  0.37527891  0.33154336  0.69465775  1
  O  O354  1  0.37399472  0.83653205  0.19523942  1
  O  O355  1  0.37534871  0.83669986  0.69472746  1
  O  O356  1  0.71156256  0.33478379  0.19602628  1
  O  O357  1  0.71265086  0.33861906  0.69277929  1
  O  O358  1  0.71000410  0.83340291  0.18984474  1
  O  O359  1  0.70217635  0.84206346  0.69073546  1
  O  O360  1  0.20452440  0.41595876  0.19333542  1
  O  O361  1  0.21017631  0.41917395  0.69631699  1
  O  O362  1  0.20856728  0.91424287  0.19622791  1
  O  O363  1  0.20816586  0.91613014  0.69673484  1
  O  O364  1  0.54676318  0.41562764  0.19475526  1
  O  O365  1  0.54273451  0.41785508  0.70126950  1
  O  O366  1  0.53823647  0.91981256  0.19315138  1
  O  O367  1  0.54002310  0.91839452  0.69184465  1
  O  O368  1  0.87921611  0.41653992  0.19490910  1
  O  O369  1  0.87787460  0.41754046  0.69574943  1
  O  O370  1  0.87924615  0.91801749  0.19865995  1
  O  O371  1  0.88226320  0.92119262  0.69036785  1
  O  O372  1  0.04493697  0.16581062  0.19683221  1
  O  O373  1  0.04334223  0.16966162  0.69370019  1
  O  O374  1  0.04716154  0.66515489  0.19344649  1
  O  O375  1  0.04365979  0.66302634  0.69399272  1
  O  O376  1  0.36981632  0.16589092  0.19686685  1
  O  O377  1  0.37526701  0.16309611  0.69699452  1
  O  O378  1  0.36312554  0.66927399  0.19027512  1
  O  O379  1  0.37333132  0.67034540  0.69403626  1
  O  O380  1  0.71276238  0.16929916  0.19469650  1
  O  O381  1  0.71183576  0.16309776  0.69121427  1
  O  O382  1  0.71395573  0.66473816  0.20256983  1
  O  O383  1  0.71610805  0.65976439  0.69218913  1
  O  O384  1  0.12492449  0.08011030  0.30510600  1
  O  O385  1  0.11910310  0.08338766  0.79969588  1
  O  O386  1  0.12464169  0.58517558  0.30512365  1
  O  O387  1  0.12003791  0.57908908  0.80463844  1
  O  O388  1  0.45098877  0.07928379  0.30635726  1
  O  O389  1  0.45601563  0.08012034  0.80534921  1
  O  O390  1  0.44896989  0.57685561  0.30750541  1
  O  O391  1  0.45530866  0.58551157  0.79759284  1
  O  O392  1  0.79287849  0.08526824  0.30453786  1
  O  O393  1  0.78932739  0.08339910  0.80605624  1
  O  O394  1  0.79688587  0.58352725  0.30992816  1
  O  O395  1  0.79106675  0.58199016  0.80343770  1
  O  O396  1  0.28503902  0.33095624  0.30629714  1
  O  O397  1  0.28865720  0.33433959  0.80067692  1
  O  O398  1  0.28596251  0.83432626  0.30401359  1
  O  O399  1  0.29099087  0.83280676  0.80571017  1
  O  O400  1  0.63181093  0.33086935  0.31091461  1
  O  O401  1  0.62526278  0.33428297  0.80632384  1
  O  O402  1  0.62213464  0.83564885  0.29963492  1
  O  O403  1  0.61947584  0.84621427  0.80482460  1
  O  O404  1  0.95718178  0.33316910  0.30105497  1
  O  O405  1  0.95331809  0.33574170  0.80443275  1
  O  O406  1  0.95750153  0.83469444  0.30755205  1
  O  O407  1  0.96849917  0.83008800  0.80443372  1
  O  O408  1  0.12343836  0.41875933  0.30584329  1
  O  O409  1  0.12172309  0.41731800  0.80733692  1
  O  O410  1  0.12226214  0.91500026  0.30488740  1
  O  O411  1  0.12521979  0.91411678  0.80778714  1
  O  O412  1  0.45076494  0.41583550  0.29624872  1
  O  O413  1  0.45822743  0.41567587  0.80778828  1
  O  O414  1  0.45351869  0.92004126  0.30723057  1
  O  O415  1  0.45639193  0.91445005  0.80496467  1
  O  O416  1  0.79175963  0.41624741  0.30257022  1
  O  O417  1  0.78905296  0.41869964  0.80372253  1
  O  O418  1  0.78730497  0.91610850  0.29850763  1
  O  O419  1  0.78868371  0.92417687  0.80367697  1
  O  O420  1  0.28557982  0.16232544  0.30592220  1
  O  O421  1  0.28877971  0.16629700  0.80580059  1
  O  O422  1  0.29179520  0.66959772  0.30544424  1
  O  O423  1  0.29297498  0.66653349  0.80632932  1
  O  O424  1  0.62984342  0.16534351  0.30566754  1
  O  O425  1  0.61980198  0.16378387  0.79919496  1
  O  O426  1  0.63421035  0.66858563  0.31010370  1
  O  O427  1  0.62039479  0.66182231  0.80630692  1
  O  O428  1  0.96185689  0.16496025  0.30595116  1
  O  O429  1  0.95678627  0.17015320  0.80747972  1
  O  O430  1  0.95806764  0.66187833  0.30513164  1
  O  O431  1  0.95948856  0.66310573  0.80409035  1
  F  F432  1  0.04541533  -0.00013395  0.20308814  1
  F  F433  1  0.04682613  -0.00358563  0.70110277  1
  F  F434  1  0.04475816  0.49891831  0.20293666  1
  F  F435  1  0.04596226  0.49810993  0.70128330  1
  F  F436  1  0.37558119  -0.00159754  0.20196749  1
  F  F437  1  0.37647053  -0.00106765  0.70309814  1
  F  F438  1  0.37397729  0.50112269  0.19825194  1
  F  F439  1  0.37636670  0.49808553  0.70221285  1
  F  F440  1  0.71117659  0.00320005  0.20082118  1
  F  F441  1  0.71081898  0.00328919  0.69947524  1
  F  F442  1  0.71435682  0.50011762  0.20565114  1
  F  F443  1  0.71208383  0.50055744  0.70040476  1
  F  F444  1  0.20815150  0.24843356  0.20345019  1
  F  F445  1  0.20955117  0.24833185  0.70267338  1
  F  F446  1  0.21135426  0.75181383  0.20130122  1
  F  F447  1  0.21528636  0.75595461  0.69926163  1
  F  F448  1  0.54868060  0.25185915  0.20035581  1
  F  F449  1  0.53524107  0.25001053  0.69795906  1
  F  F450  1  0.54766257  0.76031139  0.19761543  1
  F  F451  1  0.53277105  0.75148347  0.69836477  1
  F  F452  1  0.88040349  0.24914993  0.20246822  1
  F  F453  1  0.88040910  0.25194930  0.70071543  1
  F  F454  1  0.87676885  0.74924202  0.20224510  1
  F  F455  1  0.88756854  0.73811376  0.69597636  1
  F  F456  1  0.28538389  -0.00063788  0.29784692  1
  F  F457  1  0.28759326  -0.00271744  0.79916270  1
  F  F458  1  0.28700764  0.49690161  0.29746082  1
  F  F459  1  0.28792889  0.50032842  0.79927777  1
  F  F460  1  0.62174869  -0.00034678  0.29769629  1
  F  F461  1  0.62001918  0.00125502  0.79455936  1
  F  F462  1  0.62414154  0.49742930  0.30396656  1
  F  F463  1  0.62496248  0.50234255  0.79642933  1
  F  F464  1  0.95741404  0.00104559  0.29925704  1
  F  F465  1  0.95719725  -0.00275595  0.79828269  1
  F  F466  1  0.95716148  0.50166005  0.29775505  1
  F  F467  1  0.95377821  0.50044464  0.79706373  1
  F  F468  1  0.12236332  0.24840087  0.29864211  1
  F  F469  1  0.11902761  0.25138207  0.79862523  1
  F  F470  1  0.12737004  0.74949865  0.29972035  1
  F  F471  1  0.12229260  0.74962963  0.79842630  1
  F  F472  1  0.45005222  0.24909022  0.30242821  1
  F  F473  1  0.45392103  0.24919223  0.79738019  1
  F  F474  1  0.44778097  0.76118277  0.30079730  1
  F  F475  1  0.45285554  0.75334610  0.79801340  1
  F  F476  1  0.78962989  0.24914752  0.29763995  1
  F  F477  1  0.79332814  0.25060489  0.79728529  1
  F  F478  1  0.79080274  0.75276662  0.29923695  1
  F  F479  1  0.80289515  0.73672043  0.80813617  1
