# generated using pymatgen
data_K24Na3Li5Mg64Fe17Si79(O5F)48
_symmetry_space_group_name_H-M   'P 1'
_cell_length_a   16.13945322
_cell_length_b   18.64303756
_cell_length_c   20.59257184
_cell_angle_alpha   89.99968696
_cell_angle_beta   100.01362159
_cell_angle_gamma   89.99568699
_symmetry_Int_Tables_number   1
_chemical_formula_structural   K24Na3Li5Mg64Fe17Si79(O5F)48
_chemical_formula_sum   'K24 Na3 Li5 Mg64 Fe17 Si79 O240 F48'
_cell_volume   6101.67850135
_cell_formula_units_Z   1
loop_
 _symmetry_equiv_pos_site_id
 _symmetry_equiv_pos_as_xyz
  1  'x, y, z'
loop_
 _atom_site_type_symbol
 _atom_site_label
 _atom_site_symmetry_multiplicity
 _atom_site_fract_x
 _atom_site_fract_y
 _atom_site_fract_z
 _atom_site_occupancy
  K  K0  1  -0.00995624  -0.00145470  0.01989599  1
  K  K1  1  -0.00165158  0.00016720  0.47641577  1
  K  K2  1  0.01662068  0.49400418  0.01918305  1
  K  K3  1  -0.00788955  0.50150058  0.47879925  1
  K  K4  1  0.35466304  0.00234874  0.01102322  1
  K  K5  1  0.33038322  -0.00647392  0.48491747  1
  K  K6  1  0.32554095  0.50649183  0.01222300  1
  K  K7  1  0.33730095  0.50655729  0.48291803  1
  K  K8  1  0.66602844  -0.01423754  0.01722075  1
  K  K9  1  0.65716155  -0.00585852  0.47604942  1
  K  K10  1  0.67887908  0.49834867  0.01759108  1
  K  K11  1  0.65547343  0.49525478  0.47380591  1
  K  K12  1  0.18162148  0.25150514  0.01274520  1
  K  K13  1  0.16068518  0.24331592  0.48379411  1
  K  K14  1  0.16949611  0.75280045  0.01713926  1
  K  K15  1  0.16677514  0.75666469  0.48577346  1
  K  K16  1  0.49899965  0.24700473  0.01041354  1
  K  K17  1  0.50070081  0.25219124  0.47808232  1
  K  K18  1  0.50390037  0.75416829  0.01186575  1
  K  K19  1  0.48384337  0.75832683  0.48965169  1
  K  K20  1  0.83952661  0.25530408  0.01769325  1
  K  K21  1  0.82137805  0.25395295  0.46517935  1
  K  K22  1  0.83333713  0.75858485  0.02562156  1
  K  K23  1  0.83147622  0.75511568  0.46867196  1
  Na  Na24  1  0.16837849  0.49840684  0.24972072  1
  Na  Na25  1  0.49842673  0.83175889  0.74729732  1
  Na  Na26  1  0.16245442  0.83342751  0.25126141  1
  Li  Li27  1  0.33360973  0.24945807  0.75212126  1
  Li  Li28  1  0.67541400  0.75317311  0.25505496  1
  Li  Li29  1  0.82754588  0.83413094  0.24999985  1
  Li  Li30  1  0.83076878  0.17170996  0.24486871  1
  Li  Li31  1  0.83033832  0.32420836  0.24901034  1
  Mg  Mg32  1  0.50098891  -0.00107366  0.25067823  1
  Mg  Mg33  1  0.00055352  0.75103849  0.74946314  1
  Mg  Mg34  1  0.33653448  0.24951540  0.25008490  1
  Mg  Mg35  1  -0.00435614  0.24976477  0.24777259  1
  Mg  Mg36  1  0.50170867  0.50004037  0.24845932  1
  Mg  Mg37  1  0.16422798  0.00230875  0.24984876  1
  Mg  Mg38  1  0.16597735  0.49773541  0.75355976  1
  Mg  Mg39  1  0.49910350  -0.00072474  0.74941588  1
  Mg  Mg40  1  0.49843184  0.49786136  0.74884040  1
  Mg  Mg41  1  0.66582205  0.25047508  0.74881430  1
  Mg  Mg42  1  0.83304925  0.49739762  0.25018431  1
  Mg  Mg43  1  -0.00014269  0.25009701  0.75258967  1
  Mg  Mg44  1  0.16723526  0.00107503  0.74790934  1
  Mg  Mg45  1  0.33412801  0.75094138  0.74858002  1
  Mg  Mg46  1  0.67211937  0.25027537  0.25061067  1
  Mg  Mg47  1  -0.00468139  0.75093138  0.25298415  1
  Mg  Mg48  1  0.66569853  0.74909522  0.74977924  1
  Mg  Mg49  1  0.83363215  0.49968884  0.74905394  1
  Mg  Mg50  1  0.83258226  -0.00013731  0.75060168  1
  Mg  Mg51  1  0.83247013  0.00078965  0.25140562  1
  Mg  Mg52  1  0.33109897  0.75023539  0.24943983  1
  Mg  Mg53  1  0.49773948  0.16793023  0.74991977  1
  Mg  Mg54  1  0.16773548  0.33320270  0.24979290  1
  Mg  Mg55  1  0.66536374  0.41540387  0.74775589  1
  Mg  Mg56  1  0.83277271  0.16544911  0.75026406  1
  Mg  Mg57  1  0.16893205  0.33333240  0.75474200  1
  Mg  Mg58  1  0.33304415  0.08425204  0.25178834  1
  Mg  Mg59  1  0.50149491  0.16457045  0.25115655  1
  Mg  Mg60  1  0.83186532  0.66950902  0.25127365  1
  Mg  Mg61  1  0.50265283  0.33446443  0.24760938  1
  Mg  Mg62  1  0.50192978  0.83304713  0.25176264  1
  Mg  Mg63  1  0.33404498  0.58362848  0.24893698  1
  Mg  Mg64  1  0.16592428  0.16523576  0.24845354  1
  Mg  Mg65  1  -0.00253835  0.08562051  0.25103369  1
  Mg  Mg66  1  0.00052825  0.91611856  0.74947029  1
  Mg  Mg67  1  0.33523771  0.08611584  0.75075763  1
  Mg  Mg68  1  0.00010927  0.58284148  0.25198826  1
  Mg  Mg69  1  0.16929274  0.16828787  0.75082755  1
  Mg  Mg70  1  0.49854274  0.66458031  0.74686707  1
  Mg  Mg71  1  0.16957353  0.83528134  0.74810561  1
  Mg  Mg72  1  0.66889387  0.41412868  0.24969809  1
  Mg  Mg73  1  0.50287306  0.66814446  0.24765932  1
  Mg  Mg74  1  0.66397232  0.91503293  0.75089933  1
  Mg  Mg75  1  0.33149905  0.91709531  0.25094404  1
  Mg  Mg76  1  0.66851590  0.91207204  0.24993706  1
  Mg  Mg77  1  0.83182645  0.83430994  0.74965082  1
  Mg  Mg78  1  0.83351998  0.66599874  0.74882801  1
  Mg  Mg79  1  -0.00236485  0.41522757  0.24725100  1
  Mg  Mg80  1  0.66487770  0.08441781  0.74883531  1
  Mg  Mg81  1  0.33654027  0.91608110  0.74812632  1
  Mg  Mg82  1  0.83387566  0.33396113  0.75042548  1
  Mg  Mg83  1  0.66606918  0.58319860  0.74810050  1
  Mg  Mg84  1  0.00121441  0.58433960  0.75189611  1
  Mg  Mg85  1  0.00234788  0.41522647  0.75376613  1
  Mg  Mg86  1  0.16482403  0.66548639  0.25137991  1
  Mg  Mg87  1  0.33279179  0.58303574  0.74858737  1
  Mg  Mg88  1  0.33689195  0.41629564  0.25069273  1
  Mg  Mg89  1  0.49632308  0.33245508  0.74924625  1
  Mg  Mg90  1  0.66603504  0.58483724  0.24913990  1
  Mg  Mg91  1  0.66866142  0.08417989  0.24918207  1
  Mg  Mg92  1  0.00053934  0.08441963  0.75048033  1
  Mg  Mg93  1  -0.00420047  0.91632092  0.25359329  1
  Mg  Mg94  1  0.16716352  0.66541664  0.75099697  1
  Mg  Mg95  1  0.33206130  0.41219329  0.75171384  1
  Fe  Fe96  1  0.69165600  0.33588510  0.10984464  1
  Fe  Fe97  1  0.19887833  0.41605236  0.11158631  1
  Fe  Fe98  1  0.53638542  0.07782431  0.11130963  1
  Fe  Fe99  1  0.52027546  0.58346404  0.10878240  1
  Fe  Fe100  1  0.36343147  0.16201939  0.11020856  1
  Fe  Fe101  1  0.35523735  0.83335903  0.60589147  1
  Fe  Fe102  1  0.85330389  0.91742850  0.11137794  1
  Fe  Fe103  1  0.64011555  0.33385784  0.39060164  1
  Fe  Fe104  1  0.81108254  0.91901298  0.38953367  1
  Fe  Fe105  1  0.47062615  0.42245718  0.38957979  1
  Fe  Fe106  1  0.47087914  0.91187765  0.38997515  1
  Fe  Fe107  1  0.86025161  0.08747071  0.11237983  1
  Fe  Fe108  1  0.14186862  0.08770862  0.39093889  1
  Fe  Fe109  1  0.14035427  0.41609250  0.89352469  1
  Fe  Fe110  1  0.19019027  0.08118316  0.10868252  1
  Fe  Fe111  1  0.98113700  0.66407013  0.39102546  1
  Fe  Fe112  1  0.47925284  0.91845076  0.89049800  1
  Si  Si113  1  0.18982924  0.08756581  0.61510554  1
  Si  Si114  1  0.35485263  0.67226582  0.11222059  1
  Si  Si115  1  0.18647179  0.91632387  0.11448232  1
  Si  Si116  1  0.47457819  0.58236819  0.88308253  1
  Si  Si117  1  0.47522740  0.08245225  0.38943392  1
  Si  Si118  1  0.14536809  0.57651067  0.38844012  1
  Si  Si119  1  0.96713170  0.32957377  0.88781262  1
  Si  Si120  1  0.98233759  0.83332276  0.39212964  1
  Si  Si121  1  0.64220967  0.16364784  0.38806678  1
  Si  Si122  1  0.52639165  0.08754763  0.61335208  1
  Si  Si123  1  0.30556297  0.83465117  0.88677998  1
  Si  Si124  1  0.85891758  0.58491289  0.61467070  1
  Si  Si125  1  0.64826745  0.82624784  0.88706949  1
  Si  Si126  1  0.02629435  0.66666980  0.61575678  1
  Si  Si127  1  0.31020894  0.33007469  0.88770273  1
  Si  Si128  1  0.69412375  0.16794063  0.61408492  1
  Si  Si129  1  0.14184395  0.08282720  0.88453817  1
  Si  Si130  1  0.35885443  0.16695776  0.61551031  1
  Si  Si131  1  0.13982370  0.91617611  0.88395003  1
  Si  Si132  1  0.69443219  0.33353368  0.61465354  1
  Si  Si133  1  0.02747194  0.17179056  0.11087214  1
  Si  Si134  1  0.30249662  0.82990862  0.38628814  1
  Si  Si135  1  0.85953804  0.41854952  0.61543948  1
  Si  Si136  1  0.18742003  0.92140840  0.61103144  1
  Si  Si137  1  0.80529922  0.41625098  0.88321398  1
  Si  Si138  1  0.02306804  0.16809222  0.61583336  1
  Si  Si139  1  0.31343633  0.17057209  0.39005480  1
  Si  Si140  1  0.52522518  0.41354345  0.61378723  1
  Si  Si141  1  0.97382284  0.33716018  0.38360540  1
  Si  Si142  1  0.02654801  0.33425556  0.11303256  1
  Si  Si143  1  0.69376821  0.83329041  0.61453024  1
  Si  Si144  1  0.30526753  0.66547820  0.38444061  1
  Si  Si145  1  0.30566479  0.33403365  0.38836070  1
  Si  Si146  1  0.18973260  0.57873034  0.61566189  1
  Si  Si147  1  0.19049426  0.41333840  0.61596130  1
  Si  Si148  1  0.47974949  0.08796183  0.88617515  1
  Si  Si149  1  0.80619065  0.91681027  0.88487801  1
  Si  Si150  1  0.69303734  0.16938087  0.11113912  1
  Si  Si151  1  0.64014529  0.33696343  0.88283867  1
  Si  Si152  1  0.85959377  0.91535629  0.61550651  1
  Si  Si153  1  0.47342299  0.41606244  0.88478923  1
  Si  Si154  1  0.53234881  0.92274707  0.61189450  1
  Si  Si155  1  0.64201262  0.66745120  0.38293164  1
  Si  Si156  1  0.52248840  0.90743321  0.11394310  1
  Si  Si157  1  0.69621307  0.65971077  0.11299476  1
  Si  Si158  1  0.14183117  0.58922457  0.88800176  1
  Si  Si159  1  0.97272186  0.17239616  0.38713052  1
  Si  Si160  1  0.68685913  0.82505158  0.11576199  1
  Si  Si161  1  0.52359121  0.41778739  0.11010930  1
  Si  Si162  1  0.13886353  0.41024762  0.38438480  1
  Si  Si163  1  0.02201821  0.83075525  0.11533404  1
  Si  Si164  1  0.80910258  0.42002818  0.38699238  1
  Si  Si165  1  0.35137352  0.83566511  0.11597540  1
  Si  Si166  1  0.69125884  0.66656915  0.61416832  1
  Si  Si167  1  0.35667677  0.65937443  0.61045159  1
  Si  Si168  1  0.64230239  0.17235894  0.88363926  1
  Si  Si169  1  0.97242724  0.83645427  0.88414136  1
  Si  Si170  1  0.02549415  0.83354077  0.61491702  1
  Si  Si171  1  0.80858960  0.08534688  0.38676136  1
  Si  Si172  1  0.80611733  0.58390895  0.38712060  1
  Si  Si173  1  0.14068894  0.92063018  0.38741847  1
  Si  Si174  1  0.80436381  0.08328060  0.88454102  1
  Si  Si175  1  0.64424714  0.66105180  0.88417623  1
  Si  Si176  1  0.02628783  0.66679639  0.11617210  1
  Si  Si177  1  0.19214975  0.58894600  0.11393171  1
  Si  Si178  1  0.81084926  0.58084413  0.88383383  1
  Si  Si179  1  0.52655807  0.57926286  0.61351978  1
  Si  Si180  1  0.86322046  0.58311411  0.11538898  1
  Si  Si181  1  0.47537642  0.59278921  0.38671604  1
  Si  Si182  1  0.86324519  0.41942896  0.11260240  1
  Si  Si183  1  0.85871867  0.08188851  0.61498164  1
  Si  Si184  1  0.64189100  0.83113727  0.38962774  1
  Si  Si185  1  0.35793496  0.33324442  0.61526784  1
  Si  Si186  1  0.30885224  0.16428616  0.88372102  1
  Si  Si187  1  0.97304711  0.16295234  0.88547904  1
  Si  Si188  1  0.97305235  0.67052465  0.88475620  1
  Si  Si189  1  0.36494364  0.33258365  0.11279707  1
  Si  Si190  1  0.30966160  0.66848936  0.88319285  1
  Si  Si191  1  0.02297582  0.33283920  0.61642932  1
  O  O192  1  0.27944577  0.10259186  0.06722763  1
  O  O193  1  0.26928195  0.12503077  0.58732385  1
  O  O194  1  0.26813687  0.62745652  0.08151178  1
  O  O195  1  0.26997183  0.61082168  0.58622181  1
  O  O196  1  0.63169744  0.10442956  0.07724814  1
  O  O197  1  0.60216202  0.13252193  0.58588338  1
  O  O198  1  0.61761434  0.61208477  0.07538171  1
  O  O199  1  0.60363204  0.62244905  0.58689155  1
  O  O200  1  0.95370983  0.11856483  0.07560231  1
  O  O201  1  0.93729063  0.12145019  0.58784437  1
  O  O202  1  0.94276764  0.61877079  0.08540396  1
  O  O203  1  0.93707375  0.62491052  0.58778063  1
  O  O204  1  0.10389075  0.35928200  0.07748506  1
  O  O205  1  0.10305254  0.36862683  0.58849546  1
  O  O206  1  0.11184616  0.85514056  0.09261382  1
  O  O207  1  0.09859473  0.87631128  0.58572675  1
  O  O208  1  0.45494155  0.35239168  0.08860204  1
  O  O209  1  0.43541182  0.37365115  0.58570560  1
  O  O210  1  0.43236422  0.86515417  0.08612382  1
  O  O211  1  0.44934592  0.87909778  0.58027046  1
  O  O212  1  0.78384139  0.37465547  0.07380213  1
  O  O213  1  0.76989155  0.37795316  0.58786853  1
  O  O214  1  0.75472538  0.86403719  0.07765984  1
  O  O215  1  0.77495367  0.86894249  0.58798372  1
  O  O216  1  0.29652796  0.39194334  0.07908095  1
  O  O217  1  0.26862564  0.37563543  0.58658056  1
  O  O218  1  0.26890302  0.88394929  0.08440812  1
  O  O219  1  0.25779782  0.88879105  0.57326003  1
  O  O220  1  0.60444135  0.40034731  0.07547367  1
  O  O221  1  0.60293953  0.37093720  0.58826078  1
  O  O222  1  0.59268754  0.85866487  0.08453470  1
  O  O223  1  0.61322348  0.88311003  0.58539714  1
  O  O224  1  0.94713495  0.38869787  0.08487182  1
  O  O225  1  0.93716139  0.37913982  0.58722234  1
  O  O226  1  0.94395788  0.87486683  0.07367342  1
  O  O227  1  0.93664962  0.87518761  0.58799491  1
  O  O228  1  0.11171184  0.15457228  0.08014449  1
  O  O229  1  0.10418900  0.13509612  0.58794468  1
  O  O230  1  0.10591877  0.63609412  0.08428726  1
  O  O231  1  0.10336059  0.62513990  0.58868643  1
  O  O232  1  0.45072101  0.13528540  0.06839460  1
  O  O233  1  0.43612384  0.12781193  0.58530571  1
  O  O234  1  0.42940660  0.64561286  0.07455798  1
  O  O235  1  0.43498369  0.61486274  0.58472313  1
  O  O236  1  0.78193888  0.15886953  0.08438325  1
  O  O237  1  0.77007005  0.12409255  0.58714582  1
  O  O238  1  0.78009985  0.63019128  0.08253353  1
  O  O239  1  0.77005436  0.62670255  0.58673625  1
  O  O240  1  0.05388098  0.13062218  0.42890380  1
  O  O241  1  0.06127377  0.11981048  0.91165203  1
  O  O242  1  0.07599529  0.60723294  0.42962605  1
  O  O243  1  0.06398155  0.63405861  0.91332696  1
  O  O244  1  0.40393963  0.13061238  0.41877979  1
  O  O245  1  0.39415296  0.11834038  0.91127164  1
  O  O246  1  0.39921455  0.63556177  0.41606495  1
  O  O247  1  0.39597363  0.62194247  0.91011166  1
  O  O248  1  0.72851523  0.11873789  0.41807683  1
  O  O249  1  0.72761372  0.12517687  0.91142753  1
  O  O250  1  0.72140082  0.61459337  0.41420882  1
  O  O251  1  0.72837348  0.61146571  0.91167760  1
  O  O252  1  0.21738828  0.35692629  0.41455750  1
  O  O253  1  0.23673009  0.36144587  0.92364836  1
  O  O254  1  0.22055202  0.86560663  0.41089001  1
  O  O255  1  0.21971746  0.86500521  0.91275242  1
  O  O256  1  0.56275989  0.37472780  0.43691531  1
  O  O257  1  0.56077894  0.37160663  0.91136998  1
  O  O258  1  0.56347680  0.85487518  0.42577890  1
  O  O259  1  0.57187973  0.85590155  0.91979415  1
  O  O260  1  0.90079422  0.38012923  0.41479326  1
  O  O261  1  0.87998414  0.35973198  0.91117760  1
  O  O262  1  0.90749960  0.86732583  0.42639117  1
  O  O263  1  0.89766856  0.87897170  0.91216764  1
  O  O264  1  0.06031874  0.38041797  0.41902870  1
  O  O265  1  0.04376769  0.37846958  0.92187572  1
  O  O266  1  0.06520836  0.88422060  0.42071324  1
  O  O267  1  0.05959596  0.87966557  0.91169756  1
  O  O268  1  0.37674311  0.38831956  0.42469448  1
  O  O269  1  0.39845592  0.37563080  0.91384295  1
  O  O270  1  0.38479800  0.86815334  0.42808837  1
  O  O271  1  0.38324781  0.88202011  0.92224177  1
  O  O272  1  0.74269260  0.38104299  0.42597439  1
  O  O273  1  0.72054711  0.38964731  0.90984735  1
  O  O274  1  0.72269983  0.87750474  0.42561464  1
  O  O275  1  0.73623326  0.87140879  0.91569559  1
  O  O276  1  0.24199951  0.13705609  0.42750688  1
  O  O277  1  0.22771688  0.12822629  0.91189008  1
  O  O278  1  0.23754274  0.61618781  0.41593922  1
  O  O279  1  0.22965358  0.63459079  0.91232671  1
  O  O280  1  0.56609051  0.12178753  0.41754262  1
  O  O281  1  0.55832757  0.14555883  0.91025918  1
  O  O282  1  0.56079260  0.64002485  0.41537662  1
  O  O283  1  0.56301773  0.62535157  0.91089513  1
  O  O284  1  0.88802843  0.14097854  0.41249126  1
  O  O285  1  0.89504702  0.12225801  0.91216806  1
  O  O286  1  0.88635302  0.62890225  0.42484770  1
  O  O287  1  0.89543715  0.62859870  0.91154522  1
  O  O288  1  0.15370974  -0.01124137  0.07501029  1
  O  O289  1  0.17021005  0.00614801  0.58730802  1
  O  O290  1  0.17549429  0.51089877  0.08030150  1
  O  O291  1  0.17535449  0.49596309  0.58778678  1
  O  O292  1  0.51510901  -0.01635446  0.07677540  1
  O  O293  1  0.52701471  0.00661354  0.58317038  1
  O  O294  1  0.48222930  0.49256164  0.07755805  1
  O  O295  1  0.52436684  0.49620442  0.58574829  1
  O  O296  1  0.83320640  0.00281682  0.06512309  1
  O  O297  1  0.85065654  -0.00140902  0.58865019  1
  O  O298  1  0.85193289  0.50291612  0.08181215  1
  O  O299  1  0.85244197  0.50161305  0.58780093  1
  O  O300  1  -0.00341436  0.25410687  0.08536651  1
  O  O301  1  0.00886797  0.25062947  0.58779242  1
  O  O302  1  0.00913974  0.74725179  0.08506567  1
  O  O303  1  0.01926301  0.74970974  0.58884013  1
  O  O304  1  0.33518599  0.25582531  0.07977631  1
  O  O305  1  0.34979487  0.25031383  0.58726389  1
  O  O306  1  0.33066748  0.75488571  0.08556411  1
  O  O307  1  0.34616208  0.73590796  0.57450204  1
  O  O308  1  0.65525524  0.24539419  0.07733154  1
  O  O309  1  0.69401027  0.25105326  0.58722777  1
  O  O310  1  0.68090600  0.74219579  0.08497121  1
  O  O311  1  0.68230865  0.74964777  0.58731783  1
  O  O312  1  0.16289367  -0.00461445  0.42741522  1
  O  O313  1  0.15189772  -0.00076316  0.91079286  1
  O  O314  1  0.16298584  0.49162415  0.41311218  1
  O  O315  1  0.15096811  0.51234164  0.92293849  1
  O  O316  1  0.48021327  0.00528758  0.42613585  1
  O  O317  1  0.50675785  0.01280242  0.92144208  1
  O  O318  1  0.48595435  0.51692017  0.42510709  1
  O  O319  1  0.48382984  0.49961155  0.91135011  1
  O  O320  1  0.83209242  0.01131365  0.42754710  1
  O  O321  1  0.80953480  0.00017258  0.91054360  1
  O  O322  1  0.82040385  0.50217721  0.41866415  1
  O  O323  1  0.82801464  0.49813660  0.91072913  1
  O  O324  1  0.32890308  0.25340781  0.41908010  1
  O  O325  1  0.32618572  0.24591987  0.91212554  1
  O  O326  1  0.30036591  0.74620271  0.41429821  1
  O  O327  1  0.32059460  0.75010992  0.91195769  1
  O  O328  1  0.65225028  0.24003571  0.42612987  1
  O  O329  1  0.66141414  0.25537845  0.91007881  1
  O  O330  1  0.66551461  0.74683974  0.41425948  1
  O  O331  1  0.66591432  0.74159638  0.91279718  1
  O  O332  1  0.98014076  0.25650432  0.41677792  1
  O  O333  1  0.97801285  0.24533987  0.91294844  1
  O  O334  1  1.00450310  0.75522282  0.42762462  1
  O  O335  1  0.97682030  0.75359235  0.91203232  1
  O  O336  1  0.21362005  0.08405189  0.20067972  1
  O  O337  1  0.20797574  0.08640926  0.69552634  1
  O  O338  1  0.21400896  0.59070090  0.19328601  1
  O  O339  1  0.20756043  0.58086693  0.69648652  1
  O  O340  1  0.54504725  0.08141028  0.20293218  1
  O  O341  1  0.54473542  0.08764275  0.69412442  1
  O  O342  1  0.54374677  0.58400947  0.19990056  1
  O  O343  1  0.54423926  0.57924904  0.69427025  1
  O  O344  1  0.87882118  0.08206053  0.20227806  1
  O  O345  1  0.87648956  0.08323218  0.69585350  1
  O  O346  1  0.87673263  0.58161201  0.19492411  1
  O  O347  1  0.87692550  0.58412057  0.69554487  1
  O  O348  1  0.04494124  0.33464197  0.19345655  1
  O  O349  1  0.03904691  0.33258031  0.69677133  1
  O  O350  1  0.02930582  0.83200760  0.19426351  1
  O  O351  1  0.04292249  0.83351850  0.69587328  1
  O  O352  1  0.37934495  0.33172494  0.19404587  1
  O  O353  1  0.37763289  0.33654910  0.69494847  1
  O  O354  1  0.37090513  0.83363319  0.19560438  1
  O  O355  1  0.36278212  0.83121960  0.69576566  1
  O  O356  1  0.71123714  0.33407366  0.19951705  1
  O  O357  1  0.71201209  0.33379929  0.69546331  1
  O  O358  1  0.70455315  0.83057262  0.19445568  1
  O  O359  1  0.71161480  0.83199725  0.69534501  1
  O  O360  1  0.21977330  0.40794630  0.20085955  1
  O  O361  1  0.20985956  0.41514369  0.69621615  1
  O  O362  1  0.21245099  0.92458310  0.19354320  1
  O  O363  1  0.20594123  0.91871413  0.69244987  1
  O  O364  1  0.54515021  0.42009473  0.19110228  1
  O  O365  1  0.54293119  0.41530950  0.69457241  1
  O  O366  1  0.54221060  0.91287373  0.19403167  1
  O  O367  1  0.55216032  0.92628930  0.69192514  1
  O  O368  1  0.87784918  0.42153042  0.19212047  1
  O  O369  1  0.87751016  0.41717395  0.69626236  1
  O  O370  1  0.87848567  0.91967895  0.20091128  1
  O  O371  1  0.87722631  0.91636104  0.69641574  1
  O  O372  1  0.04278479  0.16918481  0.19183271  1
  O  O373  1  0.04058430  0.16720924  0.69649838  1
  O  O374  1  0.04435382  0.66450978  0.19556928  1
  O  O375  1  0.04255688  0.66608612  0.69656579  1
  O  O376  1  0.37954668  0.16522061  0.20278273  1
  O  O377  1  0.37873321  0.16536919  0.69516870  1
  O  O378  1  0.37604538  0.66772191  0.19260894  1
  O  O379  1  0.37531399  0.66123783  0.69158292  1
  O  O380  1  0.70244613  0.16751195  0.19185662  1
  O  O381  1  0.71166680  0.16743005  0.69486607  1
  O  O382  1  0.71432660  0.65724818  0.19239915  1
  O  O383  1  0.71183628  0.66463554  0.69496060  1
  O  O384  1  0.12074197  0.08632857  0.30042209  1
  O  O385  1  0.12201845  0.08329239  0.80356040  1
  O  O386  1  0.12039403  0.58597242  0.30964842  1
  O  O387  1  0.12208827  0.58579183  0.80645770  1
  O  O388  1  0.45619341  0.08088104  0.30942152  1
  O  O389  1  0.46009639  0.08653762  0.80475618  1
  O  O390  1  0.45660857  0.58843103  0.30661310  1
  O  O391  1  0.45705072  0.58065971  0.80231736  1
  O  O392  1  0.78533676  0.07854643  0.30788320  1
  O  O393  1  0.78887434  0.08429199  0.80356292  1
  O  O394  1  0.79070673  0.58270500  0.30690224  1
  O  O395  1  0.79147034  0.58235917  0.80298066  1
  O  O396  1  0.29289868  0.33232660  0.30834328  1
  O  O397  1  0.28901659  0.33543460  0.80726315  1
  O  O398  1  0.29853169  0.83153266  0.30760348  1
  O  O399  1  0.28647306  0.83406279  0.80570041  1
  O  O400  1  0.62072704  0.33454363  0.29987490  1
  O  O401  1  0.62296564  0.33544575  0.80203192  1
  O  O402  1  0.62053191  0.83599345  0.30972416  1
  O  O403  1  0.63585907  0.82945482  0.80676149  1
  O  O404  1  0.96061948  0.33522375  0.30476869  1
  O  O405  1  0.95299014  0.33181611  0.80612700  1
  O  O406  1  0.96577175  0.83203738  0.31234606  1
  O  O407  1  0.95543107  0.83410286  0.80333375  1
  O  O408  1  0.11679190  0.40796177  0.30572497  1
  O  O409  1  0.12078701  0.41648892  0.80056515  1
  O  O410  1  0.11795549  0.92706803  0.30837495  1
  O  O411  1  0.12168688  0.91681405  0.80295558  1
  O  O412  1  0.45843823  0.41758428  0.29818712  1
  O  O413  1  0.45670834  0.41646037  0.80390877  1
  O  O414  1  0.45416637  0.91558597  0.29916013  1
  O  O415  1  0.45216516  0.92493579  0.80034283  1
  O  O416  1  0.78822375  0.42252882  0.30791546  1
  O  O417  1  0.78861246  0.41735523  0.80228726  1
  O  O418  1  0.78624371  0.91839700  0.30058240  1
  O  O419  1  0.79017563  0.91624141  0.80392790  1
  O  O420  1  0.29195466  0.16864569  0.31003225  1
  O  O421  1  0.28750993  0.16356183  0.80377425  1
  O  O422  1  0.28936827  0.66487836  0.30476633  1
  O  O423  1  0.28940526  0.66538050  0.80242675  1
  O  O424  1  0.62397518  0.16611061  0.30810808  1
  O  O425  1  0.62576273  0.16947599  0.80266861  1
  O  O426  1  0.62260083  0.66502825  0.30389394  1
  O  O427  1  0.62559601  0.66172435  0.80350858  1
  O  O428  1  0.96660903  0.17017140  0.30853090  1
  O  O429  1  0.95478431  0.16466680  0.80437219  1
  O  O430  1  0.95454354  0.66375570  0.30048934  1
  O  O431  1  0.95538249  0.66826567  0.80386894  1
  F  F432  1  0.04214898  -0.00061068  0.20212924  1
  F  F433  1  0.04287621  0.00075852  0.70156667  1
  F  F434  1  0.03367006  0.50103908  0.19944346  1
  F  F435  1  0.04266076  0.50182376  0.70240537  1
  F  F436  1  0.37801476  0.00116201  0.20300153  1
  F  F437  1  0.37686783  0.00568788  0.69902488  1
  F  F438  1  0.37928929  0.50363750  0.20037674  1
  F  F439  1  0.37713474  0.49768262  0.70157174  1
  F  F440  1  0.70821850  -0.00026681  0.20082218  1
  F  F441  1  0.71469703  0.00100800  0.70214230  1
  F  F442  1  0.71267890  0.50031235  0.20280398  1
  F  F443  1  0.71241895  0.49963590  0.70004315  1
  F  F444  1  0.21492254  0.24906626  0.20485844  1
  F  F445  1  0.20291681  0.25205213  0.70180185  1
  F  F446  1  0.21451845  0.74206238  0.20049325  1
  F  F447  1  0.20801781  0.74754683  0.70242407  1
  F  F448  1  0.54483959  0.24750001  0.20387595  1
  F  F449  1  0.54649483  0.25166086  0.69953057  1
  F  F450  1  0.53592470  0.75183180  0.19967978  1
  F  F451  1  0.55222980  0.73701464  0.69747342  1
  F  F452  1  0.88138236  0.25154703  0.20106701  1
  F  F453  1  0.87797478  0.24962531  0.70230849  1
  F  F454  1  0.87856096  0.74546440  0.19911672  1
  F  F455  1  0.87903633  0.75017904  0.70099570  1
  F  F456  1  0.28921036  -0.00094210  0.30180484  1
  F  F457  1  0.28527054  0.00102422  0.79473936  1
  F  F458  1  0.30445889  0.50210911  0.30338138  1
  F  F459  1  0.28892775  0.50025189  0.79767005  1
  F  F460  1  0.62161710  -0.00388962  0.29973077  1
  F  F461  1  0.62453920  0.00241725  0.79744597  1
  F  F462  1  0.62285353  0.49964538  0.29940117  1
  F  F463  1  0.62210544  0.49883554  0.79609111  1
  F  F464  1  0.95621889  0.00168304  0.30436427  1
  F  F465  1  0.95453446  -0.00014996  0.79797068  1
  F  F466  1  0.95411605  0.49854001  0.30049241  1
  F  F467  1  0.95292151  0.50140592  0.79849202  1
  F  F468  1  0.12137814  0.24990817  0.29630560  1
  F  F469  1  0.11848508  0.24856641  0.80033199  1
  F  F470  1  0.11604538  0.74009673  0.30231189  1
  F  F471  1  0.11992309  0.75066541  0.79770213  1
  F  F472  1  0.45730843  0.25152566  0.30075183  1
  F  F473  1  0.46137735  0.25138980  0.79834266  1
  F  F474  1  0.45258476  0.74830599  0.29769084  1
  F  F475  1  0.45019560  0.73552578  0.79933091  1
  F  F476  1  0.78544725  0.24749853  0.30543334  1
  F  F477  1  0.78756390  0.25025646  0.79713170  1
  F  F478  1  0.79020867  0.74449070  0.30363764  1
  F  F479  1  0.79044219  0.74784264  0.79676273  1
