# generated using pymatgen
data_K24Na3Li5Mg64Fe17Si79(O5F)48
_symmetry_space_group_name_H-M   'P 1'
_cell_length_a   16.08186263
_cell_length_b   18.57852034
_cell_length_c   20.54296748
_cell_angle_alpha   89.99454457
_cell_angle_beta   100.01254288
_cell_angle_gamma   90.01165997
_symmetry_Int_Tables_number   1
_chemical_formula_structural   K24Na3Li5Mg64Fe17Si79(O5F)48
_chemical_formula_sum   'K24 Na3 Li5 Mg64 Fe17 Si79 O240 F48'
_cell_volume   6044.29042061
_cell_formula_units_Z   1
loop_
 _symmetry_equiv_pos_site_id
 _symmetry_equiv_pos_as_xyz
  1  'x, y, z'
loop_
 _atom_site_type_symbol
 _atom_site_label
 _atom_site_symmetry_multiplicity
 _atom_site_fract_x
 _atom_site_fract_y
 _atom_site_fract_z
 _atom_site_occupancy
  K  K0  1  -0.00568583  -0.00040646  -0.00102521  1
  K  K1  1  0.00186987  0.00328778  0.50020680  1
  K  K2  1  -0.00031084  0.49611656  -0.00346866  1
  K  K3  1  -0.00700156  0.49536561  0.49853400  1
  K  K4  1  0.32933227  0.00178932  -0.00259648  1
  K  K5  1  0.33913005  -0.00302803  0.50265391  1
  K  K6  1  0.33411307  0.50232879  -0.00253602  1
  K  K7  1  0.33775550  0.50807724  0.50230566  1
  K  K8  1  0.67355516  0.00554763  0.00114911  1
  K  K9  1  0.65730132  0.00428393  0.49990831  1
  K  K10  1  0.66605283  0.50122152  0.00216546  1
  K  K11  1  0.67038099  0.50656186  0.49447352  1
  K  K12  1  0.16792602  0.25626339  -0.00582240  1
  K  K13  1  0.15549132  0.25005534  0.50121397  1
  K  K14  1  0.17095820  0.75169893  -0.00205820  1
  K  K15  1  0.17243130  0.74673980  0.50106271  1
  K  K16  1  0.50486445  0.24862371  0.00331976  1
  K  K17  1  0.51449979  0.24817764  0.49797767  1
  K  K18  1  0.50067502  0.74634783  0.00064647  1
  K  K19  1  0.50004137  0.74236991  0.50430476  1
  K  K20  1  0.82976803  0.25025287  0.00113951  1
  K  K21  1  0.83405854  0.26432850  0.49513595  1
  K  K22  1  0.81846355  0.74620418  -0.00317881  1
  K  K23  1  0.81779057  0.75044701  0.49723776  1
  Na  Na24  1  0.66348558  0.75275685  0.24262670  1
  Na  Na25  1  -0.00056022  0.57885937  0.25061227  1
  Na  Na26  1  0.00526194  0.57699947  0.75078087  1
  Li  Li27  1  0.16382397  0.50100494  0.75266390  1
  Li  Li28  1  0.49824699  0.00012191  0.74796004  1
  Li  Li29  1  0.66602040  0.41546897  0.25048689  1
  Li  Li30  1  0.16820123  0.16806378  0.75747088  1
  Li  Li31  1  0.66401326  0.58392541  0.74119652  1
  Mg  Mg32  1  0.16739187  0.00272718  0.75316474  1
  Mg  Mg33  1  0.00140977  0.74767334  0.24888104  1
  Mg  Mg34  1  0.33443587  0.25183187  0.25209980  1
  Mg  Mg35  1  0.00186645  0.24956682  0.75642388  1
  Mg  Mg36  1  0.49916066  0.00161572  0.24763389  1
  Mg  Mg37  1  0.83235077  -0.00071817  0.75036622  1
  Mg  Mg38  1  0.32684565  0.24877337  0.75331136  1
  Mg  Mg39  1  0.66664880  0.74757242  0.74206992  1
  Mg  Mg40  1  0.50444497  0.49911784  0.25075430  1
  Mg  Mg41  1  0.50095679  0.50057352  0.74782310  1
  Mg  Mg42  1  0.33660965  0.75050857  0.74795335  1
  Mg  Mg43  1  0.33364762  0.74937455  0.25068994  1
  Mg  Mg44  1  0.66468801  0.24805064  0.75093133  1
  Mg  Mg45  1  0.00244564  0.74632575  0.74990592  1
  Mg  Mg46  1  0.82934116  0.49961916  0.24853032  1
  Mg  Mg47  1  0.83341162  -0.00207703  0.24718608  1
  Mg  Mg48  1  -0.00025656  0.25003062  0.25309112  1
  Mg  Mg49  1  0.16694522  0.00131705  0.25386917  1
  Mg  Mg50  1  0.16643589  0.49806623  0.25152231  1
  Mg  Mg51  1  0.66714463  0.25169377  0.24653477  1
  Mg  Mg52  1  0.83066152  0.49983839  0.75017697  1
  Mg  Mg53  1  0.66475983  0.08112053  0.75166152  1
  Mg  Mg54  1  0.33369104  0.58414032  0.25165366  1
  Mg  Mg55  1  0.49736367  0.83486176  0.24554387  1
  Mg  Mg56  1  0.83241429  0.83241388  0.24586419  1
  Mg  Mg57  1  0.33344704  0.08616109  0.25537372  1
  Mg  Mg58  1  0.83465892  0.33363392  0.75333882  1
  Mg  Mg59  1  0.33647409  0.41599049  0.24928012  1
  Mg  Mg60  1  0.66628475  0.08673908  0.24797420  1
  Mg  Mg61  1  0.16773158  0.66378439  0.25271652  1
  Mg  Mg62  1  -0.00248388  0.41438206  0.25025205  1
  Mg  Mg63  1  0.83221523  0.83227023  0.74723468  1
  Mg  Mg64  1  0.83129380  0.66732246  0.24732896  1
  Mg  Mg65  1  0.66566430  0.58351531  0.24728193  1
  Mg  Mg66  1  0.32975510  0.41763926  0.75167043  1
  Mg  Mg67  1  0.33169746  0.58383955  0.75040346  1
  Mg  Mg68  1  0.17116642  0.83440464  0.75086958  1
  Mg  Mg69  1  0.17087545  0.66444565  0.75180735  1
  Mg  Mg70  1  0.83160285  0.16510772  0.25049772  1
  Mg  Mg71  1  0.16602001  0.33489755  0.75536359  1
  Mg  Mg72  1  0.16556017  0.16640062  0.25398792  1
  Mg  Mg73  1  0.50613805  0.33503246  0.25068231  1
  Mg  Mg74  1  0.00237226  0.08498139  0.75504156  1
  Mg  Mg75  1  0.49624870  0.33283250  0.74782511  1
  Mg  Mg76  1  0.50283878  0.16771442  0.25110280  1
  Mg  Mg77  1  0.16481946  0.33406634  0.25074286  1
  Mg  Mg78  1  0.82833290  0.33592425  0.24754302  1
  Mg  Mg79  1  0.50160259  0.66384746  0.74463614  1
  Mg  Mg80  1  0.00090203  0.91459128  0.74952575  1
  Mg  Mg81  1  0.49635620  0.16358521  0.75243610  1
  Mg  Mg82  1  0.66392368  0.41713999  0.74811212  1
  Mg  Mg83  1  0.66455202  0.91702397  0.24391142  1
  Mg  Mg84  1  0.83363594  0.16435288  0.75456625  1
  Mg  Mg85  1  0.00193206  0.41660909  0.75437206  1
  Mg  Mg86  1  0.33358050  0.91600265  0.25119607  1
  Mg  Mg87  1  0.66401408  0.91529619  0.74544305  1
  Mg  Mg88  1  0.83157637  0.66358233  0.74552381  1
  Mg  Mg89  1  0.00235152  0.91456939  0.24981942  1
  Mg  Mg90  1  0.00120348  0.08348660  0.25200510  1
  Mg  Mg91  1  0.33092946  0.08475125  0.75362210  1
  Mg  Mg92  1  0.49849141  0.66668927  0.24670631  1
  Mg  Mg93  1  0.16958792  0.83337614  0.25240849  1
  Mg  Mg94  1  0.33792319  0.91866138  0.74865179  1
  Mg  Mg95  1  0.49955317  0.83655058  0.74427944  1
  Fe  Fe96  1  0.30740204  0.66188961  0.39189528  1
  Fe  Fe97  1  0.14376621  0.08645913  0.39387373  1
  Fe  Fe98  1  0.69351753  0.16591066  0.10683711  1
  Fe  Fe99  1  0.64648374  0.16287093  0.39113951  1
  Fe  Fe100  1  0.69445772  0.83516086  0.60600479  1
  Fe  Fe101  1  0.02601823  0.33150816  0.11207571  1
  Fe  Fe102  1  0.80924468  0.42633087  0.38890592  1
  Fe  Fe103  1  0.69113332  0.83840305  0.10423352  1
  Fe  Fe104  1  0.31320358  0.67005715  0.89121714  1
  Fe  Fe105  1  0.52507947  0.57718449  0.60703054  1
  Fe  Fe106  1  0.80522725  0.08116323  0.89125250  1
  Fe  Fe107  1  0.30471344  0.16627755  0.89392362  1
  Fe  Fe108  1  0.64506024  0.33309300  0.39208239  1
  Fe  Fe109  1  0.97691377  0.33541501  0.89267097  1
  Fe  Fe110  1  0.35717977  0.83614143  0.60773774  1
  Fe  Fe111  1  0.35786217  0.83384054  0.10988297  1
  Fe  Fe112  1  0.52612509  0.41551811  0.10972540  1
  Si  Si113  1  0.14442725  0.42303229  0.89036703  1
  Si  Si114  1  0.19085551  0.08494281  0.11856075  1
  Si  Si115  1  0.35327633  0.16691797  0.11785888  1
  Si  Si116  1  0.69318338  0.16507297  0.61607266  1
  Si  Si117  1  0.64122678  0.66775769  0.87970831  1
  Si  Si118  1  0.52019212  0.40637474  0.61020126  1
  Si  Si119  1  0.02358546  0.17009932  0.61907878  1
  Si  Si120  1  0.18973478  0.57848443  0.11495660  1
  Si  Si121  1  0.47291651  0.08408761  0.88736875  1
  Si  Si122  1  0.35254031  0.16499819  0.61578154  1
  Si  Si123  1  0.03132392  0.83173398  0.61458588  1
  Si  Si124  1  0.97808946  0.83142140  0.38425192  1
  Si  Si125  1  0.97605998  0.82709157  0.88463224  1
  Si  Si126  1  0.13677087  0.57926614  0.38991484  1
  Si  Si127  1  0.19047403  0.92171431  0.61392310  1
  Si  Si128  1  0.02560357  0.16442488  0.11568999  1
  Si  Si129  1  0.30944380  0.17512636  0.39027922  1
  Si  Si130  1  0.69800087  0.33568013  0.10607104  1
  Si  Si131  1  0.86654637  0.07795065  0.11393011  1
  Si  Si132  1  0.86771198  0.91788831  0.61144638  1
  Si  Si133  1  0.14078860  0.41292321  0.38795130  1
  Si  Si134  1  0.47070660  0.08598131  0.38916651  1
  Si  Si135  1  0.47488640  0.41706564  0.88247853  1
  Si  Si136  1  0.97354340  0.33143867  0.38849196  1
  Si  Si137  1  0.35266134  0.66478096  0.11280554  1
  Si  Si138  1  0.02730951  0.66671877  0.11448766  1
  Si  Si139  1  0.52770713  0.92237584  0.60750615  1
  Si  Si140  1  0.81047730  0.91036966  0.88624045  1
  Si  Si141  1  0.81192022  0.91124785  0.38333639  1
  Si  Si142  1  0.51915040  0.58426501  0.11047638  1
  Si  Si143  1  0.68772986  0.66412260  0.10915392  1
  Si  Si144  1  0.14161999  0.91299110  0.88637938  1
  Si  Si145  1  0.03007977  0.66701639  0.61472289  1
  Si  Si146  1  0.02464553  0.33407551  0.61814752  1
  Si  Si147  1  0.51679273  0.08516270  0.11156444  1
  Si  Si148  1  0.48009465  0.58048714  0.38583444  1
  Si  Si149  1  0.31031960  0.83243974  0.38847942  1
  Si  Si150  1  0.19759062  0.41372934  0.11461742  1
  Si  Si151  1  0.63660695  0.33347909  0.88289201  1
  Si  Si152  1  0.35176627  0.32888065  0.61515088  1
  Si  Si153  1  0.31556367  0.84089093  0.88718893  1
  Si  Si154  1  0.86136624  0.08413320  0.61611196  1
  Si  Si155  1  0.52250996  0.08901679  0.61595537  1
  Si  Si156  1  0.69648761  0.66375900  0.60523480  1
  Si  Si157  1  0.63897446  0.83161776  0.88144098  1
  Si  Si158  1  0.80864512  0.59556470  0.38656324  1
  Si  Si159  1  0.47300456  0.92044186  0.38527425  1
  Si  Si160  1  0.96805151  0.16422469  0.38912951  1
  Si  Si161  1  0.86260031  0.58235444  0.61356777  1
  Si  Si162  1  0.18995034  0.41523261  0.61766072  1
  Si  Si163  1  0.86692286  0.91188968  0.11123337  1
  Si  Si164  1  0.47466163  0.41625851  0.38680545  1
  Si  Si165  1  0.63702194  0.83928366  0.38167458  1
  Si  Si166  1  0.31016962  0.33870719  0.89045808  1
  Si  Si167  1  0.80860079  0.07369477  0.38687871  1
  Si  Si168  1  0.85797196  0.41710237  0.61597894  1
  Si  Si169  1  0.97249833  0.66354242  0.88408567  1
  Si  Si170  1  0.97540490  0.16545387  0.89190586  1
  Si  Si171  1  0.19129986  0.57998931  0.61547213  1
  Si  Si172  1  0.97378290  0.67037287  0.38333347  1
  Si  Si173  1  0.80039295  0.41804888  0.88683338  1
  Si  Si174  1  0.13416443  0.07763326  0.89091713  1
  Si  Si175  1  0.35335849  0.66454051  0.60933805  1
  Si  Si176  1  0.03338516  0.83144894  0.11493394  1
  Si  Si177  1  0.80591160  0.58454081  0.88203175  1
  Si  Si178  1  0.31028597  0.33960228  0.38638491  1
  Si  Si179  1  0.47991468  0.58083238  0.88516429  1
  Si  Si180  1  0.52286450  0.92242252  0.10782189  1
  Si  Si181  1  0.63706247  0.67107239  0.38105918  1
  Si  Si182  1  0.86261927  0.42192453  0.11055289  1
  Si  Si183  1  0.85461596  0.58675259  0.11307558  1
  Si  Si184  1  0.14432054  0.91481621  0.38911918  1
  Si  Si185  1  0.69360664  0.33090428  0.61572630  1
  Si  Si186  1  0.63526256  0.16814071  0.88701277  1
  Si  Si187  1  0.18659441  0.08437699  0.61871401  1
  Si  Si188  1  0.35987065  0.33009883  0.11473412  1
  Si  Si189  1  0.48028063  0.92165225  0.88227523  1
  Si  Si190  1  0.14445041  0.58838443  0.88909228  1
  Si  Si191  1  0.19238184  0.92163084  0.11541839  1
  O  O192  1  0.27487288  0.11149998  0.08960282  1
  O  O193  1  0.26824454  0.11570781  0.58750434  1
  O  O194  1  0.27310622  0.60815149  0.08707322  1
  O  O195  1  0.27122005  0.60999076  0.58393228  1
  O  O196  1  0.59399027  0.11113700  0.07641875  1
  O  O197  1  0.60132537  0.12781749  0.58560779  1
  O  O198  1  0.60320971  0.61402050  0.08163538  1
  O  O199  1  0.61999756  0.61028973  0.57420172  1
  O  O200  1  0.95649443  0.10046826  0.09075940  1
  O  O201  1  0.93547584  0.12786934  0.58596230  1
  O  O202  1  0.93759614  0.62443038  0.08686719  1
  O  O203  1  0.94533466  0.61835877  0.58754072  1
  O  O204  1  0.12547958  0.35831369  0.08162179  1
  O  O205  1  0.10228469  0.37089971  0.58660920  1
  O  O206  1  0.11389492  0.86597697  0.08655996  1
  O  O207  1  0.11141013  0.86605591  0.58563996  1
  O  O208  1  0.43897951  0.34722818  0.07909749  1
  O  O209  1  0.43512623  0.35539337  0.58521592  1
  O  O210  1  0.45247054  0.86382377  0.07529906  1
  O  O211  1  0.44717290  0.87514362  0.57178849  1
  O  O212  1  0.78309698  0.36966445  0.08030457  1
  O  O213  1  0.76894310  0.37436491  0.58691001  1
  O  O214  1  0.79195277  0.86243889  0.07279544  1
  O  O215  1  0.78848017  0.87352297  0.57316122  1
  O  O216  1  0.28492129  0.38954969  0.08825805  1
  O  O217  1  0.26794010  0.37797584  0.58519917  1
  O  O218  1  0.27044556  0.90099344  0.07969059  1
  O  O219  1  0.26757493  0.90061156  0.57740659  1
  O  O220  1  0.62232811  0.39052141  0.07496470  1
  O  O221  1  0.60076830  0.36461052  0.58522721  1
  O  O222  1  0.60821055  0.90938950  0.07691524  1
  O  O223  1  0.60857956  0.90043170  0.57376394  1
  O  O224  1  0.94337411  0.39876416  0.07806887  1
  O  O225  1  0.93572648  0.37602544  0.58757598  1
  O  O226  1  0.95357730  0.88316959  0.08528904  1
  O  O227  1  0.95158388  0.88420008  0.58525344  1
  O  O228  1  0.11368072  0.13970567  0.08989630  1
  O  O229  1  0.10353883  0.13467156  0.58947886  1
  O  O230  1  0.10420766  0.62603275  0.08418466  1
  O  O231  1  0.10696591  0.62849738  0.58346630  1
  O  O232  1  0.43491626  0.13959574  0.08696913  1
  O  O233  1  0.43475863  0.13416108  0.58598917  1
  O  O234  1  0.43798809  0.63897338  0.08469156  1
  O  O235  1  0.42995971  0.63486737  0.57460677  1
  O  O236  1  0.78948153  0.12631607  0.07718062  1
  O  O237  1  0.76828512  0.12051594  0.58780387  1
  O  O238  1  0.76985192  0.63152130  0.07767598  1
  O  O239  1  0.78177155  0.63006572  0.57841425  1
  O  O240  1  0.04772200  0.11790202  0.42645082  1
  O  O241  1  0.04686245  0.10208214  0.91661344  1
  O  O242  1  0.04882083  0.61209137  0.41149856  1
  O  O243  1  0.05474984  0.61427688  0.91375881  1
  O  O244  1  0.38733377  0.11890170  0.41653035  1
  O  O245  1  0.39594043  0.10336627  0.92568792  1
  O  O246  1  0.40261372  0.60465424  0.42157145  1
  O  O247  1  0.40704371  0.61019824  0.92340315  1
  O  O248  1  0.72769648  0.09019261  0.42040028  1
  O  O249  1  0.70982574  0.11638860  0.92243308  1
  O  O250  1  0.72772327  0.63394448  0.41354601  1
  O  O251  1  0.73048141  0.62711375  0.91134405  1
  O  O252  1  0.22831599  0.36846611  0.41731567  1
  O  O253  1  0.23238802  0.37820991  0.91931002  1
  O  O254  1  0.22506018  0.86139964  0.41568359  1
  O  O255  1  0.23083612  0.87217984  0.91529125  1
  O  O256  1  0.54159067  0.35801358  0.42127969  1
  O  O257  1  0.55267038  0.36167353  0.91086054  1
  O  O258  1  0.56165084  0.87777582  0.41525854  1
  O  O259  1  0.56149381  0.86915533  0.91224796  1
  O  O260  1  0.90803169  0.37241580  0.42644733  1
  O  O261  1  0.87936636  0.37099302  0.92293795  1
  O  O262  1  0.89316283  0.85859899  0.41254208  1
  O  O263  1  0.89504186  0.85963362  0.91369934  1
  O  O264  1  0.06786360  0.36759614  0.41671030  1
  O  O265  1  0.06962448  0.39375382  0.92726094  1
  O  O266  1  0.05891251  0.88276118  0.41496519  1
  O  O267  1  0.06355341  0.87157617  0.91456145  1
  O  O268  1  0.38452514  0.39777580  0.41352247  1
  O  O269  1  0.39313306  0.39183969  0.91420913  1
  O  O270  1  0.39170479  0.88656333  0.41325529  1
  O  O271  1  0.39526631  0.89700808  0.91217947  1
  O  O272  1  0.72491437  0.39752075  0.43336673  1
  O  O273  1  0.71449809  0.38740458  0.91269409  1
  O  O274  1  0.72850364  0.87951901  0.41134824  1
  O  O275  1  0.72914691  0.87128343  0.91147968  1
  O  O276  1  0.23064795  0.15324046  0.42543892  1
  O  O277  1  0.21162230  0.12626540  0.92747966  1
  O  O278  1  0.21553769  0.62501847  0.42924146  1
  O  O279  1  0.21864368  0.64017886  0.92793181  1
  O  O280  1  0.55045677  0.13067629  0.42599292  1
  O  O281  1  0.54872031  0.14330826  0.91338124  1
  O  O282  1  0.56286829  0.63191819  0.41452813  1
  O  O283  1  0.56766055  0.62664184  0.91173880  1
  O  O284  1  0.88509664  0.13062745  0.41595322  1
  O  O285  1  0.89323157  0.14425902  0.92406187  1
  O  O286  1  0.88892873  0.65074284  0.41376649  1
  O  O287  1  0.89332686  0.62795516  0.91483250  1
  O  O288  1  0.16210393  0.00416843  0.09058788  1
  O  O289  1  0.16016381  0.00399170  0.58790839  1
  O  O290  1  0.17334114  0.49629358  0.08630738  1
  O  O291  1  0.17504527  0.49695213  0.58669439  1
  O  O292  1  0.48508566  0.00411609  0.08537156  1
  O  O293  1  0.50802326  0.00858641  0.58426236  1
  O  O294  1  0.49246571  0.50796624  0.07539946  1
  O  O295  1  0.50277498  0.48217525  0.57289288  1
  O  O296  1  0.85134170  -0.00486063  0.08529717  1
  O  O297  1  0.86146820  0.00263238  0.58541520  1
  O  O298  1  0.84096171  0.50520344  0.08236758  1
  O  O299  1  0.85304293  0.49876987  0.58429138  1
  O  O300  1  -0.00728454  0.23867558  0.08010216  1
  O  O301  1  0.01390189  0.25187172  0.58725476  1
  O  O302  1  0.01856953  0.74959962  0.08350414  1
  O  O303  1  0.01545583  0.74975393  0.58334141  1
  O  O304  1  0.32449415  0.24787317  0.09097359  1
  O  O305  1  0.33094226  0.24669000  0.58589857  1
  O  O306  1  0.32215453  0.74127605  0.07948859  1
  O  O307  1  0.32356346  0.74316195  0.57883337  1
  O  O308  1  0.67923571  0.25780945  0.06881046  1
  O  O309  1  0.69301272  0.24770098  0.58750971  1
  O  O310  1  0.66647853  0.74244025  0.07520437  1
  O  O311  1  0.67921509  0.74224784  0.56923840  1
  O  O312  1  0.16687450  -0.00846571  0.42469932  1
  O  O313  1  0.14865365  -0.00670441  0.91910371  1
  O  O314  1  0.14404785  0.49481268  0.41879923  1
  O  O315  1  0.16356582  0.50599677  0.91807627  1
  O  O316  1  0.48186126  0.00191179  0.41636781  1
  O  O317  1  0.50753610  0.00223704  0.91161413  1
  O  O318  1  0.50536700  0.49790257  0.41189273  1
  O  O319  1  0.50359756  0.49723832  0.91064801  1
  O  O320  1  0.84003764  -0.00874681  0.41358340  1
  O  O321  1  0.82821317  -0.01355644  0.92393403  1
  O  O322  1  0.83231545  0.52076072  0.42459294  1
  O  O323  1  0.81109685  0.50271718  0.91331175  1
  O  O324  1  0.33798858  0.25841925  0.41493261  1
  O  O325  1  0.32844692  0.26153814  0.92652616  1
  O  O326  1  0.33449283  0.75589589  0.42318564  1
  O  O327  1  0.34046484  0.76469436  0.92280768  1
  O  O328  1  0.67981863  0.24669880  0.43502483  1
  O  O329  1  0.65625045  0.25207050  0.91213761  1
  O  O330  1  0.64468408  0.75551758  0.40807470  1
  O  O331  1  0.64896334  0.74950228  0.91197753  1
  O  O332  1  0.98115507  0.24752469  0.41673976  1
  O  O333  1  1.01194435  0.24230719  0.92131473  1
  O  O334  1  1.00330818  0.75078184  0.41447432  1
  O  O335  1  0.99044771  0.74556946  0.91582906  1
  O  O336  1  0.21166812  0.08467875  0.19914355  1
  O  O337  1  0.20799962  0.08184797  0.69792985  1
  O  O338  1  0.20658640  0.58069900  0.19529783  1
  O  O339  1  0.21000254  0.58414610  0.69471596  1
  O  O340  1  0.53802030  0.08442574  0.19274408  1
  O  O341  1  0.54389666  0.08917981  0.69551990  1
  O  O342  1  0.53957786  0.58441553  0.19141393  1
  O  O343  1  0.54194607  0.58011344  0.69760088  1
  O  O344  1  0.87950587  0.08043712  0.19522069  1
  O  O345  1  0.87932770  0.08323538  0.69637219  1
  O  O346  1  0.86777235  0.58533811  0.19234633  1
  O  O347  1  0.86998814  0.58118936  0.69251299  1
  O  O348  1  0.04497015  0.33083288  0.20395235  1
  O  O349  1  0.04334446  0.33174568  0.69771985  1
  O  O350  1  0.04803780  0.83202698  0.19557410  1
  O  O351  1  0.04600994  0.83265296  0.69515921  1
  O  O352  1  0.37707839  0.33181703  0.19597280  1
  O  O353  1  0.37212393  0.33166168  0.69543596  1
  O  O354  1  0.37439924  0.83498054  0.20178983  1
  O  O355  1  0.37762596  0.83512503  0.69941793  1
  O  O356  1  0.71442181  0.32722469  0.18622831  1
  O  O357  1  0.70988945  0.33127567  0.69618449  1
  O  O358  1  0.71696855  0.84393506  0.19420870  1
  O  O359  1  0.71340816  0.83373253  0.69794750  1
  O  O360  1  0.21314408  0.41489638  0.19580001  1
  O  O361  1  0.21139730  0.41259265  0.69687606  1
  O  O362  1  0.20948627  0.91850865  0.19667115  1
  O  O363  1  0.20851150  0.91871431  0.69494049  1
  O  O364  1  0.54077874  0.41778373  0.19978638  1
  O  O365  1  0.53966860  0.41132272  0.69109707  1
  O  O366  1  0.53945897  0.91955830  0.18983121  1
  O  O367  1  0.54536917  0.91521576  0.68791215  1
  O  O368  1  0.87835199  0.41824442  0.19131073  1
  O  O369  1  0.87379830  0.41599041  0.69573515  1
  O  O370  1  0.88250786  0.91336051  0.19249651  1
  O  O371  1  0.88003910  0.91591242  0.69260759  1
  O  O372  1  0.04335571  0.16689546  0.19696646  1
  O  O373  1  0.03731421  0.16736689  0.69849201  1
  O  O374  1  0.04982235  0.67146774  0.19373077  1
  O  O375  1  0.05098751  0.67300035  0.69378872  1
  O  O376  1  0.37388340  0.16621687  0.19856479  1
  O  O377  1  0.37390739  0.16691374  0.69558365  1
  O  O378  1  0.37301404  0.66515559  0.19378116  1
  O  O379  1  0.37621163  0.66486286  0.69067647  1
  O  O380  1  0.71406019  0.16526611  0.19852933  1
  O  O381  1  0.70895348  0.16595431  0.69623184  1
  O  O382  1  0.71176228  0.66117011  0.18881190  1
  O  O383  1  0.71394081  0.66969940  0.68590618  1
  O  O384  1  0.12213735  0.08341072  0.30206310  1
  O  O385  1  0.12005174  0.07731262  0.81056298  1
  O  O386  1  0.13314303  0.58015636  0.31051128  1
  O  O387  1  0.13446998  0.58956353  0.81026301  1
  O  O388  1  0.45570047  0.08543791  0.30796416  1
  O  O389  1  0.45194163  0.08701706  0.80719341  1
  O  O390  1  0.45738700  0.58370963  0.30494961  1
  O  O391  1  0.45692298  0.58312880  0.80464087  1
  O  O392  1  0.79284628  0.07754807  0.30598911  1
  O  O393  1  0.78756554  0.08109125  0.79935212  1
  O  O394  1  0.79035543  0.58912054  0.30610342  1
  O  O395  1  0.79178166  0.58385448  0.80261422  1
  O  O396  1  0.28955072  0.33562380  0.30581439  1
  O  O397  1  0.29103884  0.33511352  0.80943340  1
  O  O398  1  0.28946636  0.83364477  0.30748371  1
  O  O399  1  0.29212124  0.83737701  0.80650433  1
  O  O400  1  0.62395379  0.32825107  0.30101598  1
  O  O401  1  0.61996009  0.33198726  0.80223341  1
  O  O402  1  0.61540923  0.84476818  0.30260249  1
  O  O403  1  0.62171352  0.83259454  0.80131541  1
  O  O404  1  0.95478721  0.33178711  0.30791583  1
  O  O405  1  0.95393030  0.33258395  0.80106839  1
  O  O406  1  0.96040945  0.83332035  0.30378450  1
  O  O407  1  0.95861630  0.83112087  0.80410904  1
  O  O408  1  0.12577986  0.41554228  0.30793586  1
  O  O409  1  0.12264229  0.41553608  0.81049995  1
  O  O410  1  0.12524416  0.91581893  0.30769261  1
  O  O411  1  0.12305522  0.91469365  0.80576506  1
  O  O412  1  0.45512511  0.41556583  0.30596353  1
  O  O413  1  0.45522277  0.41506758  0.80194679  1
  O  O414  1  0.45651131  0.92067451  0.30491307  1
  O  O415  1  0.45978367  0.91692048  0.80277481  1
  O  O416  1  0.78969115  0.41709331  0.29851875  1
  O  O417  1  0.78547089  0.41513597  0.80603007  1
  O  O418  1  0.79371315  0.91520994  0.30334658  1
  O  O419  1  0.79446394  0.91450809  0.80542809  1
  O  O420  1  0.29003032  0.17034049  0.30917427  1
  O  O421  1  0.28951883  0.16676545  0.80348728  1
  O  O422  1  0.28827511  0.66610813  0.30001597  1
  O  O423  1  0.29303614  0.66965922  0.79954337  1
  O  O424  1  0.62177488  0.16560887  0.29916198  1
  O  O425  1  0.62115503  0.16645371  0.80589017  1
  O  O426  1  0.61721117  0.66400985  0.30202878  1
  O  O427  1  0.62347924  0.67032463  0.80033999  1
  O  O428  1  0.95572069  0.16349327  0.30802948  1
  O  O429  1  0.95584066  0.16466786  0.80984695  1
  O  O430  1  0.95416533  0.67375366  0.30406632  1
  O  O431  1  0.95162465  0.67115993  0.80497535  1
  F  F432  1  0.04684967  -0.00253428  0.20306188  1
  F  F433  1  0.04515976  0.00002557  0.70396790  1
  F  F434  1  0.05168813  0.48926328  0.20043954  1
  F  F435  1  0.04526642  0.48598524  0.69696690  1
  F  F436  1  0.37553961  0.00314600  0.20517797  1
  F  F437  1  0.37222379  0.00432151  0.70145052  1
  F  F438  1  0.37851408  0.50102591  0.20373614  1
  F  F439  1  0.37756466  0.49822207  0.70090304  1
  F  F440  1  0.71320261  0.00227048  0.20061161  1
  F  F441  1  0.71294577  -0.00114585  0.69842942  1
  F  F442  1  0.71201022  0.50583816  0.19921176  1
  F  F443  1  0.71257684  0.49311158  0.69931159  1
  F  F444  1  0.21209554  0.24925191  0.20600505  1
  F  F445  1  0.21081486  0.25696156  0.70187213  1
  F  F446  1  0.21007390  0.75141398  0.20246346  1
  F  F447  1  0.21209278  0.75331935  0.70181693  1
  F  F448  1  0.54097235  0.24908642  0.19836789  1
  F  F449  1  0.54304235  0.24803855  0.70173358  1
  F  F450  1  0.52813596  0.75119025  0.19509043  1
  F  F451  1  0.54464226  0.75020966  0.69640904  1
  F  F452  1  0.88079293  0.24804302  0.20471480  1
  F  F453  1  0.87631411  0.24651391  0.70389611  1
  F  F454  1  0.88217048  0.75061390  0.19743382  1
  F  F455  1  0.88179695  0.75026430  0.69970725  1
  F  F456  1  0.28854579  0.00021639  0.30122948  1
  F  F457  1  0.28712712  -0.00186855  0.80041602  1
  F  F458  1  0.28871653  0.49847327  0.29791207  1
  F  F459  1  0.29533489  0.50040308  0.80020809  1
  F  F460  1  0.62029056  0.00088956  0.29348117  1
  F  F461  1  0.62632038  -0.00307715  0.79629696  1
  F  F462  1  0.62027985  0.50865519  0.30059830  1
  F  F463  1  0.61689531  0.49032631  0.79971135  1
  F  F464  1  0.95552089  -0.00294316  0.29720756  1
  F  F465  1  0.95436877  -0.00339093  0.79782059  1
  F  F466  1  0.94886799  0.49000234  0.30100192  1
  F  F467  1  0.94630118  0.49070047  0.80361215  1
  F  F468  1  0.12302867  0.24885376  0.30330787  1
  F  F469  1  0.12088196  0.25334121  0.80280574  1
  F  F470  1  0.12226111  0.74997967  0.29992795  1
  F  F471  1  0.12305923  0.75293192  0.79950101  1
  F  F472  1  0.45428632  0.24986129  0.29812371  1
  F  F473  1  0.45276489  0.25087502  0.79687330  1
  F  F474  1  0.45560244  0.74947320  0.29906881  1
  F  F475  1  0.45930360  0.74834888  0.79442681  1
  F  F476  1  0.79030636  0.25022135  0.29808881  1
  F  F477  1  0.78533465  0.24923417  0.79919201  1
  F  F478  1  0.79900687  0.75140949  0.29792691  1
  F  F479  1  0.78874595  0.74743962  0.79545344  1
