# generated using pymatgen
data_K24Na3Li5Mg64Fe17Si79(O5F)48
_symmetry_space_group_name_H-M   'P 1'
_cell_length_a   16.09424163
_cell_length_b   18.58732321
_cell_length_c   20.56271709
_cell_angle_alpha   89.99477722
_cell_angle_beta   100.01271163
_cell_angle_gamma   90.00593116
_symmetry_Int_Tables_number   1
_chemical_formula_structural   K24Na3Li5Mg64Fe17Si79(O5F)48
_chemical_formula_sum   'K24 Na3 Li5 Mg64 Fe17 Si79 O240 F48'
_cell_volume   6057.62414600
_cell_formula_units_Z   1
loop_
 _symmetry_equiv_pos_site_id
 _symmetry_equiv_pos_as_xyz
  1  'x, y, z'
loop_
 _atom_site_type_symbol
 _atom_site_label
 _atom_site_symmetry_multiplicity
 _atom_site_fract_x
 _atom_site_fract_y
 _atom_site_fract_z
 _atom_site_occupancy
  K  K0  1  0.00804397  0.00178073  -0.00345821  1
  K  K1  1  -0.01222989  0.00597075  0.50258806  1
  K  K2  1  -0.00056366  0.48406702  -0.00137339  1
  K  K3  1  0.01077503  0.49001918  0.50458937  1
  K  K4  1  0.33461827  0.00768557  -0.00347404  1
  K  K5  1  0.34588475  -0.00283998  0.50798753  1
  K  K6  1  0.32708084  0.49155535  -0.00461649  1
  K  K7  1  0.33001561  0.49094092  0.50888510  1
  K  K8  1  0.66527029  0.00384192  -0.00343725  1
  K  K9  1  0.67676558  -0.01102534  0.50827326  1
  K  K10  1  0.66440886  0.49827048  -0.01037390  1
  K  K11  1  0.65754772  0.49763886  0.50534010  1
  K  K12  1  0.15919328  0.25232444  -0.00454148  1
  K  K13  1  0.16566028  0.26104766  0.50076676  1
  K  K14  1  0.16062212  0.75425014  -0.00435302  1
  K  K15  1  0.16491472  0.75628430  0.50532805  1
  K  K16  1  0.50323837  0.24831027  -0.00128139  1
  K  K17  1  0.50947452  0.25072743  0.50113005  1
  K  K18  1  0.50484970  0.75324877  -0.01261707  1
  K  K19  1  0.50836149  0.75566609  0.51333395  1
  K  K20  1  0.82598923  0.25292668  -0.00128370  1
  K  K21  1  0.84480482  0.25195849  0.50234702  1
  K  K22  1  0.82569454  0.74850019  -0.01011472  1
  K  K23  1  0.83738197  0.75732641  0.50774308  1
  Na  Na24  1  0.00061515  0.25097031  0.75425774  1
  Na  Na25  1  0.00065259  0.41703630  0.24668474  1
  Na  Na26  1  0.16612274  0.83149405  0.24972099  1
  Li  Li27  1  0.50136314  0.00191186  0.25187782  1
  Li  Li28  1  0.50630334  -0.00393017  0.75022148  1
  Li  Li29  1  0.50051628  0.33234439  0.24628849  1
  Li  Li30  1  0.66214366  0.91954812  0.75124034  1
  Li  Li31  1  0.33340672  0.41555541  0.74411044  1
  Mg  Mg32  1  0.83314118  0.49927480  0.25279439  1
  Mg  Mg33  1  0.16976595  0.49914555  0.74552700  1
  Mg  Mg34  1  0.66624531  0.75294658  0.75043776  1
  Mg  Mg35  1  0.66465836  0.25215305  0.24690056  1
  Mg  Mg36  1  0.00019591  0.25022967  0.24826130  1
  Mg  Mg37  1  0.83209960  0.49883134  0.75317064  1
  Mg  Mg38  1  0.00013280  0.75070952  0.25146499  1
  Mg  Mg39  1  0.33612245  0.75123829  0.74873650  1
  Mg  Mg40  1  0.16704685  0.49797725  0.24563603  1
  Mg  Mg41  1  0.66405049  0.24958063  0.75182021  1
  Mg  Mg42  1  0.33760391  0.25014205  0.24843267  1
  Mg  Mg43  1  0.83198002  -0.00142961  0.74895286  1
  Mg  Mg44  1  0.33136822  0.75206264  0.24880230  1
  Mg  Mg45  1  0.49890110  0.49842283  0.74909832  1
  Mg  Mg46  1  0.00182700  0.75101423  0.74782856  1
  Mg  Mg47  1  0.83139903  -0.00016972  0.25073125  1
  Mg  Mg48  1  0.49756762  0.49674118  0.24865101  1
  Mg  Mg49  1  0.16655686  0.00040735  0.24940484  1
  Mg  Mg50  1  0.16547226  0.00081584  0.75325227  1
  Mg  Mg51  1  0.33340391  0.25144086  0.74716831  1
  Mg  Mg52  1  0.66445540  0.75057713  0.25337317  1
  Mg  Mg53  1  0.66458132  0.41448023  0.24978921  1
  Mg  Mg54  1  0.00167744  0.08446359  0.75314527  1
  Mg  Mg55  1  0.16613168  0.66599262  0.74553685  1
  Mg  Mg56  1  0.50159400  0.66616301  0.74826030  1
  Mg  Mg57  1  0.33347942  0.58182629  0.74543424  1
  Mg  Mg58  1  0.50157427  0.16643793  0.25095645  1
  Mg  Mg59  1  0.16639201  0.33420488  0.24693390  1
  Mg  Mg60  1  0.00028317  0.58488512  0.74665558  1
  Mg  Mg61  1  0.33645111  0.91763589  0.75045572  1
  Mg  Mg62  1  0.33471514  0.91928984  0.25012329  1
  Mg  Mg63  1  0.50220796  0.83799426  0.75022847  1
  Mg  Mg64  1  0.66549408  0.08354909  0.25171118  1
  Mg  Mg65  1  0.83287202  0.16510611  0.24946016  1
  Mg  Mg66  1  0.66431698  0.58474124  0.75121608  1
  Mg  Mg67  1  0.66518224  0.91765908  0.25377970  1
  Mg  Mg68  1  0.16806164  0.83599497  0.75011717  1
  Mg  Mg69  1  0.83223199  0.83487849  0.25203952  1
  Mg  Mg70  1  0.83260127  0.16625169  0.75145670  1
  Mg  Mg71  1  0.83224872  0.83565849  0.75010127  1
  Mg  Mg72  1  0.49875231  0.83709621  0.25250435  1
  Mg  Mg73  1  0.83146294  0.33398562  0.75253814  1
  Mg  Mg74  1  0.49996204  0.16193163  0.75084874  1
  Mg  Mg75  1  0.16913554  0.33520452  0.74751321  1
  Mg  Mg76  1  0.33656569  0.08302563  0.24913646  1
  Mg  Mg77  1  0.33109798  0.58422806  0.24676240  1
  Mg  Mg78  1  -0.00102574  0.91588091  0.25026900  1
  Mg  Mg79  1  0.16486267  0.16624595  0.24795285  1
  Mg  Mg80  1  -0.00010343  0.41591156  0.74993123  1
  Mg  Mg81  1  0.83292902  0.66554402  0.74960900  1
  Mg  Mg82  1  0.49743961  0.66631246  0.25033396  1
  Mg  Mg83  1  0.33314067  0.41331830  0.24543415  1
  Mg  Mg84  1  0.83223137  0.66570555  0.25168616  1
  Mg  Mg85  1  -0.00287566  0.08465270  0.24916786  1
  Mg  Mg86  1  0.16672694  0.16728135  0.75411650  1
  Mg  Mg87  1  0.00027300  0.58392317  0.24922078  1
  Mg  Mg88  1  0.83287584  0.33392502  0.24951821  1
  Mg  Mg89  1  0.33426527  0.08213422  0.75158140  1
  Mg  Mg90  1  0.49837877  0.33457757  0.74738236  1
  Mg  Mg91  1  0.00159322  0.91648627  0.75177433  1
  Mg  Mg92  1  0.66451170  0.07808120  0.75125427  1
  Mg  Mg93  1  0.16588017  0.66631077  0.24732553  1
  Mg  Mg94  1  0.66392994  0.41525899  0.75172372  1
  Mg  Mg95  1  0.66367024  0.58330030  0.25180588  1
  Fe  Fe96  1  0.63435349  0.32821811  0.89175239  1
  Fe  Fe97  1  0.86137480  0.92025498  0.61200282  1
  Fe  Fe98  1  0.19604537  0.41353196  0.60836189  1
  Fe  Fe99  1  0.02669696  0.66661275  0.60735051  1
  Fe  Fe100  1  0.64001463  0.67126617  0.89090887  1
  Fe  Fe101  1  0.85434752  0.07747221  0.10908323  1
  Fe  Fe102  1  0.97616374  0.33430471  0.39037992  1
  Fe  Fe103  1  0.19358957  0.41450676  0.10540627  1
  Fe  Fe104  1  0.52281778  0.41308051  0.60689269  1
  Fe  Fe105  1  0.02332912  0.16602429  0.10819238  1
  Fe  Fe106  1  0.80931921  0.41677428  0.89243506  1
  Fe  Fe107  1  0.14878948  0.91367358  0.89319076  1
  Fe  Fe108  1  0.80794188  0.91508244  0.39160622  1
  Fe  Fe109  1  0.35688491  0.83932969  0.61045552  1
  Fe  Fe110  1  0.52206287  0.58400386  0.60797096  1
  Fe  Fe111  1  0.69172028  0.33760376  0.10945751  1
  Fe  Fe112  1  0.14623927  0.08703593  0.89497974  1
  Si  Si113  1  0.69525748  0.33284118  0.61322082  1
  Si  Si114  1  0.64139628  0.15648205  0.88801769  1
  Si  Si115  1  0.02299294  0.67067432  0.11352741  1
  Si  Si116  1  0.46839873  0.41644512  0.88429654  1
  Si  Si117  1  0.80606463  0.58701871  0.38709092  1
  Si  Si118  1  0.80595690  0.08751536  0.38912149  1
  Si  Si119  1  0.97420215  0.83311766  0.88808821  1
  Si  Si120  1  0.85657713  0.08896840  0.61400652  1
  Si  Si121  1  0.47237178  0.91765747  0.88620439  1
  Si  Si122  1  0.14003720  0.58227190  0.88278054  1
  Si  Si123  1  0.63773185  0.33658472  0.38451856  1
  Si  Si124  1  0.30692505  0.66027631  0.88203035  1
  Si  Si125  1  0.02231813  0.33236359  0.11034942  1
  Si  Si126  1  0.31405871  0.82479068  0.88873703  1
  Si  Si127  1  0.19157422  0.92050235  0.11562990  1
  Si  Si128  1  0.85652259  0.58708373  0.11473484  1
  Si  Si129  1  0.80979153  0.91720350  0.88442232  1
  Si  Si130  1  0.85961120  0.57841515  0.61296272  1
  Si  Si131  1  0.02523069  0.33514196  0.61338904  1
  Si  Si132  1  0.64015404  0.17103455  0.38640070  1
  Si  Si133  1  0.31149005  0.83523504  0.38475144  1
  Si  Si134  1  0.35637534  0.15598300  0.61405727  1
  Si  Si135  1  0.30759896  0.16496810  0.38504474  1
  Si  Si136  1  0.19867420  0.08560667  0.11318990  1
  Si  Si137  1  0.53183710  0.91546062  0.61346223  1
  Si  Si138  1  0.35751944  0.67134923  0.61155114  1
  Si  Si139  1  0.80353784  0.42054234  0.39043832  1
  Si  Si140  1  0.18631144  0.08444014  0.61647393  1
  Si  Si141  1  0.80852233  0.08076287  0.88498441  1
  Si  Si142  1  0.97700210  0.66829923  0.88432428  1
  Si  Si143  1  0.19158806  0.92248454  0.61456167  1
  Si  Si144  1  0.52659041  0.91413167  0.11692696  1
  Si  Si145  1  0.30896069  0.66984069  0.38428131  1
  Si  Si146  1  0.68761614  0.16743178  0.11249060  1
  Si  Si147  1  0.13976291  0.41621440  0.88343260  1
  Si  Si148  1  0.47052356  0.58093303  0.38406242  1
  Si  Si149  1  0.30639524  0.33822520  0.88066047  1
  Si  Si150  1  0.47509343  0.08562523  0.38569027  1
  Si  Si151  1  0.69691455  0.66363776  0.61250424  1
  Si  Si152  1  0.35694387  0.67199757  0.11353410  1
  Si  Si153  1  0.63630737  0.66506848  0.38661940  1
  Si  Si154  1  0.47029063  0.08244736  0.88568449  1
  Si  Si155  1  0.51833659  0.58383142  0.11501116  1
  Si  Si156  1  0.52527546  0.42151521  0.11322706  1
  Si  Si157  1  0.02496279  0.16843093  0.61691861  1
  Si  Si158  1  0.97800865  0.16427900  0.38948744  1
  Si  Si159  1  0.64223498  0.84176067  0.88854165  1
  Si  Si160  1  0.98031144  0.82963313  0.38863356  1
  Si  Si161  1  0.96947184  0.16425701  0.88785977  1
  Si  Si162  1  0.53060650  0.07918050  0.11783779  1
  Si  Si163  1  0.68629861  0.66286371  0.11659738  1
  Si  Si164  1  0.14306167  0.91649175  0.38537120  1
  Si  Si165  1  0.14568720  0.58454588  0.38308549  1
  Si  Si166  1  0.47229647  0.91974541  0.38611491  1
  Si  Si167  1  0.02878353  0.83751452  0.61118324  1
  Si  Si168  1  0.63407528  0.83067498  0.38986999  1
  Si  Si169  1  0.69036269  0.16901523  0.61676170  1
  Si  Si170  1  0.36251513  0.31954934  0.60753033  1
  Si  Si171  1  0.19711600  0.58487819  0.60782285  1
  Si  Si172  1  0.14317867  0.07986328  0.38660386  1
  Si  Si173  1  0.52879714  0.08144556  0.61550838  1
  Si  Si174  1  0.68752482  0.82669146  0.11645354  1
  Si  Si175  1  0.97721059  0.66316773  0.38468902  1
  Si  Si176  1  0.02150861  0.83592274  0.11449313  1
  Si  Si177  1  0.47047181  0.41579994  0.38218653  1
  Si  Si178  1  0.35728800  0.83699585  0.11430577  1
  Si  Si179  1  0.85100713  0.90883854  0.11210147  1
  Si  Si180  1  0.81420431  0.58642866  0.89008812  1
  Si  Si181  1  0.36527903  0.32936800  0.11093564  1
  Si  Si182  1  0.86027694  0.42149517  0.11448824  1
  Si  Si183  1  0.69566323  0.82892129  0.61416237  1
  Si  Si184  1  0.31354332  0.17573466  0.88800400  1
  Si  Si185  1  0.15015200  0.42012269  0.38528806  1
  Si  Si186  1  0.47089452  0.58083215  0.88608498  1
  Si  Si187  1  0.36705434  0.16297244  0.11482855  1
  Si  Si188  1  0.18986157  0.58789965  0.10998988  1
  Si  Si189  1  0.97489900  0.33286302  0.88846034  1
  Si  Si190  1  0.30942551  0.33068904  0.38408910  1
  Si  Si191  1  0.85860127  0.41433917  0.61594476  1
  O  O192  1  0.28657080  0.11076315  0.08739034  1
  O  O193  1  0.27108371  0.10749695  0.58564773  1
  O  O194  1  0.26861768  0.63110848  0.08330731  1
  O  O195  1  0.28757851  0.60775315  0.58562555  1
  O  O196  1  0.61017065  0.10840036  0.08614107  1
  O  O197  1  0.60428501  0.12358053  0.58447593  1
  O  O198  1  0.60312230  0.61321174  0.08787136  1
  O  O199  1  0.62128811  0.61328751  0.57629868  1
  O  O200  1  0.94932679  0.09450070  0.07307856  1
  O  O201  1  0.93882870  0.12316571  0.58521106  1
  O  O202  1  0.93350736  0.62855003  0.08549198  1
  O  O203  1  0.93924643  0.59928060  0.57828093  1
  O  O204  1  0.09885803  0.35900319  0.07286371  1
  O  O205  1  0.09719661  0.36093947  0.57292275  1
  O  O206  1  0.10361784  0.87437734  0.08970327  1
  O  O207  1  0.11795119  0.86308313  0.58738507  1
  O  O208  1  0.44957196  0.36350121  0.08606889  1
  O  O209  1  0.44503777  0.33948585  0.57548139  1
  O  O210  1  0.43757526  0.87232798  0.08578286  1
  O  O211  1  0.44891812  0.87426270  0.57358755  1
  O  O212  1  0.78795120  0.36891679  0.07664841  1
  O  O213  1  0.78330896  0.35722995  0.58729119  1
  O  O214  1  0.77295065  0.84966575  0.08843246  1
  O  O215  1  0.77148439  0.85875497  0.57875662  1
  O  O216  1  0.28537524  0.37390227  0.07183441  1
  O  O217  1  0.28315569  0.36867058  0.57284604  1
  O  O218  1  0.26936729  0.88028104  0.08575397  1
  O  O219  1  0.27054192  0.90608444  0.57794270  1
  O  O220  1  0.60617610  0.40567717  0.07930467  1
  O  O221  1  0.62231615  0.38425784  0.57501659  1
  O  O222  1  0.60443705  0.87606054  0.08568441  1
  O  O223  1  0.61220866  0.87859868  0.58453900  1
  O  O224  1  0.95164889  0.39865268  0.09570117  1
  O  O225  1  0.94006278  0.38471397  0.58550375  1
  O  O226  1  0.93385770  0.87745413  0.08205437  1
  O  O227  1  0.95978536  0.89741888  0.58001393  1
  O  O228  1  0.12682267  0.14041794  0.08015200  1
  O  O229  1  0.10681436  0.13801654  0.58503150  1
  O  O230  1  0.10264930  0.63554754  0.08441314  1
  O  O231  1  0.12552184  0.64273778  0.57539603  1
  O  O232  1  0.44627188  0.12597315  0.08612986  1
  O  O233  1  0.43607840  0.11871036  0.58457845  1
  O  O234  1  0.43819049  0.63704391  0.08567799  1
  O  O235  1  0.44096396  0.65603538  0.57932887  1
  O  O236  1  0.76673618  0.14310410  0.07859592  1
  O  O237  1  0.77337871  0.14063540  0.58738793  1
  O  O238  1  0.76853968  0.63249250  0.08765562  1
  O  O239  1  0.78268539  0.63524617  0.58510782  1
  O  O240  1  0.06263290  0.11276598  0.41590214  1
  O  O241  1  0.04627492  0.11528138  0.92469097  1
  O  O242  1  0.06213005  0.61480377  0.41131595  1
  O  O243  1  0.06134187  0.61903041  0.91303330  1
  O  O244  1  0.39669841  0.12332069  0.41643046  1
  O  O245  1  0.39978477  0.12841382  0.91803979  1
  O  O246  1  0.39553965  0.62433579  0.41285843  1
  O  O247  1  0.38262280  0.60466601  0.91269626  1
  O  O248  1  0.73138542  0.13476912  0.41708637  1
  O  O249  1  0.72305263  0.10285422  0.91361873  1
  O  O250  1  0.73019120  0.63147032  0.41502540  1
  O  O251  1  0.73828505  0.61877401  0.92460847  1
  O  O252  1  0.23638810  0.37299512  0.41521883  1
  O  O253  1  0.22396387  0.36807994  0.91137945  1
  O  O254  1  0.23016287  0.87040236  0.41148038  1
  O  O255  1  0.23943887  0.84992778  0.92679602  1
  O  O256  1  0.55999954  0.37662967  0.41288712  1
  O  O257  1  0.53630491  0.36007304  0.92241184  1
  O  O258  1  0.55633357  0.87275177  0.41712222  1
  O  O259  1  0.56570001  0.88507866  0.91803847  1
  O  O260  1  0.88736664  0.37976471  0.42621117  1
  O  O261  1  0.90519400  0.36145093  0.92980955  1
  O  O262  1  0.90755660  0.86330478  0.42397710  1
  O  O263  1  0.88721406  0.86100958  0.91416049  1
  O  O264  1  0.07424977  0.39030309  0.41930477  1
  O  O265  1  0.06374890  0.37905317  0.91515616  1
  O  O266  1  0.06956594  0.87303486  0.41593100  1
  O  O267  1  0.05161818  0.88037878  0.92609879  1
  O  O268  1  0.39884131  0.37120231  0.41367357  1
  O  O269  1  0.37846911  0.39748515  0.90980278  1
  O  O270  1  0.39374439  0.88397687  0.41729573  1
  O  O271  1  0.40252553  0.86945228  0.91790841  1
  O  O272  1  0.72211013  0.38255442  0.41712624  1
  O  O273  1  0.71879441  0.38920637  0.93018781  1
  O  O274  1  0.72146216  0.86576909  0.42496885  1
  O  O275  1  0.72751763  0.89112919  0.91586106  1
  O  O276  1  0.23043642  0.12557112  0.41525423  1
  O  O277  1  0.23800614  0.15021465  0.92490329  1
  O  O278  1  0.22758520  0.63607624  0.41217906  1
  O  O279  1  0.22369617  0.63145476  0.91236746  1
  O  O280  1  0.56307622  0.12935205  0.41577235  1
  O  O281  1  0.56325657  0.11563975  0.91679025  1
  O  O282  1  0.56311196  0.61718734  0.41318165  1
  O  O283  1  0.54579638  0.63236980  0.92331962  1
  O  O284  1  0.89687017  0.12751794  0.41729399  1
  O  O285  1  0.88234329  0.13847369  0.91550396  1
  O  O286  1  0.89643485  0.62829445  0.41383345  1
  O  O287  1  0.89660267  0.64053847  0.91556756  1
  O  O288  1  0.17985823  0.00191992  0.08494640  1
  O  O289  1  0.15613242  0.00385543  0.58916812  1
  O  O290  1  0.17901878  0.51126755  0.07344804  1
  O  O291  1  0.17339708  0.50687365  0.57386842  1
  O  O292  1  0.51450153  -0.00361316  0.08852292  1
  O  O293  1  0.52649734  0.00001700  0.58430559  1
  O  O294  1  0.49106239  0.50384743  0.08659649  1
  O  O295  1  0.48818203  0.49873042  0.56464176  1
  O  O296  1  0.81811457  -0.01670458  0.07780734  1
  O  O297  1  0.83472457  0.01290900  0.57741186  1
  O  O298  1  0.84529482  0.50589135  0.08515349  1
  O  O299  1  0.83062480  0.49537053  0.58725897  1
  O  O300  1  -0.01687732  0.25773731  0.07681461  1
  O  O301  1  0.00268164  0.25060086  0.58993354  1
  O  O302  1  0.01434113  0.75325122  0.08379623  1
  O  O303  1  0.00039155  0.76058931  0.57612026  1
  O  O304  1  0.35699564  0.24444043  0.08420670  1
  O  O305  1  0.33761959  0.23521217  0.58092662  1
  O  O306  1  0.34646138  0.75458029  0.08487229  1
  O  O307  1  0.31760017  0.74767356  0.58138395  1
  O  O308  1  0.65218323  0.24508564  0.08363126  1
  O  O309  1  0.67366022  0.24996320  0.58539178  1
  O  O310  1  0.66439120  0.74454874  0.08820649  1
  O  O311  1  0.67655541  0.74635612  0.58412867  1
  O  O312  1  0.15787419  -0.00216829  0.41780014  1
  O  O313  1  0.18015285  -0.00022098  0.93433437  1
  O  O314  1  0.16983595  0.50421707  0.41245882  1
  O  O315  1  0.15373940  0.49973082  0.91299134  1
  O  O316  1  0.48453697  0.00264696  0.41519167  1
  O  O317  1  0.46805869  -0.00003038  0.91604857  1
  O  O318  1  0.47400206  0.49854857  0.41189159  1
  O  O319  1  0.49147181  0.49853357  0.91398248  1
  O  O320  1  0.81029165  0.00948994  0.42428963  1
  O  O321  1  0.83545322  -0.00096037  0.91330659  1
  O  O322  1  0.80710190  0.50575298  0.41738626  1
  O  O323  1  0.84456507  0.50957826  0.92232898  1
  O  O324  1  0.31538454  0.24784021  0.41381972  1
  O  O325  1  0.33613931  0.25945371  0.91343716  1
  O  O326  1  0.32353510  0.75215039  0.41340977  1
  O  O327  1  0.33523291  0.74000599  0.91300489  1
  O  O328  1  0.64280192  0.25398183  0.41543227  1
  O  O329  1  0.65807045  0.23290403  0.92457404  1
  O  O330  1  0.63012159  0.74624155  0.41573638  1
  O  O331  1  0.65522747  0.76553143  0.92823403  1
  O  O332  1  0.99628504  0.24044255  0.42719390  1
  O  O333  1  0.99376555  0.24813523  0.91042829  1
  O  O334  1  0.99603908  0.74479030  0.41373145  1
  O  O335  1  0.99466288  0.74944747  0.91532932  1
  O  O336  1  0.21323951  0.08355829  0.19451406  1
  O  O337  1  0.20979143  0.08530413  0.69649314  1
  O  O338  1  0.21040382  0.58569810  0.19105499  1
  O  O339  1  0.20900601  0.58468744  0.68946510  1
  O  O340  1  0.54595776  0.08350011  0.19744770  1
  O  O341  1  0.54547255  0.08505527  0.69458719  1
  O  O342  1  0.53922909  0.58559291  0.19572939  1
  O  O343  1  0.54356916  0.58229309  0.70001857  1
  O  O344  1  0.87575045  0.08064125  0.20231166  1
  O  O345  1  0.87632029  0.08538687  0.69440893  1
  O  O346  1  0.87463582  0.58732060  0.19522753  1
  O  O347  1  0.87681718  0.58157759  0.69412881  1
  O  O348  1  0.05138499  0.32429209  0.19015301  1
  O  O349  1  0.04762613  0.34113412  0.69281303  1
  O  O350  1  0.03175733  0.83285123  0.19384158  1
  O  O351  1  0.04404794  0.83338528  0.69264265  1
  O  O352  1  0.37409923  0.33137871  0.19106534  1
  O  O353  1  0.37955530  0.32322205  0.68800403  1
  O  O354  1  0.37670352  0.83497309  0.19466533  1
  O  O355  1  0.37889118  0.83524716  0.70180238  1
  O  O356  1  0.71128457  0.33555525  0.20156810  1
  O  O357  1  0.70877433  0.33233483  0.69348746  1
  O  O358  1  0.70518187  0.82927040  0.19682937  1
  O  O359  1  0.71400087  0.82819164  0.69400190  1
  O  O360  1  0.21330900  0.41656558  0.19729368  1
  O  O361  1  0.21092486  0.41676543  0.69834565  1
  O  O362  1  0.21478513  0.92324232  0.19489851  1
  O  O363  1  0.21233928  0.91931397  0.69540842  1
  O  O364  1  0.54470533  0.42280008  0.19363447  1
  O  O365  1  0.54390522  0.41713756  0.69867580  1
  O  O366  1  0.54601176  0.91063529  0.19647732  1
  O  O367  1  0.54293808  0.91406883  0.69239623  1
  O  O368  1  0.86313641  0.42224017  0.19380400  1
  O  O369  1  0.87773716  0.41644863  0.69602032  1
  O  O370  1  0.87424389  0.91202614  0.19313586  1
  O  O371  1  0.88071966  0.91643624  0.70294964  1
  O  O372  1  0.04490353  0.16436024  0.20145358  1
  O  O373  1  0.04702871  0.16122901  0.69552475  1
  O  O374  1  0.04097597  0.66940790  0.19389496  1
  O  O375  1  0.04475901  0.66730681  0.69920679  1
  O  O376  1  0.38054183  0.16503363  0.19523434  1
  O  O377  1  0.37559119  0.16099333  0.69404848  1
  O  O378  1  0.37629710  0.66885927  0.19413395  1
  O  O379  1  0.37656282  0.66886611  0.69337644  1
  O  O380  1  0.70733861  0.16505768  0.19435933  1
  O  O381  1  0.70709362  0.16598235  0.69681102  1
  O  O382  1  0.70595613  0.66522907  0.19722782  1
  O  O383  1  0.71323383  0.66472234  0.69338307  1
  O  O384  1  0.12637058  0.08119551  0.30635866  1
  O  O385  1  0.12408756  0.08406562  0.80286307  1
  O  O386  1  0.12616213  0.58459163  0.30264837  1
  O  O387  1  0.12318921  0.58275075  0.80294458  1
  O  O388  1  0.45553638  0.08680966  0.30626872  1
  O  O389  1  0.45261467  0.08546107  0.80646306  1
  O  O390  1  0.45394744  0.58412038  0.30346043  1
  O  O391  1  0.45482401  0.58433617  0.80570392  1
  O  O392  1  0.78682844  0.08449721  0.30840288  1
  O  O393  1  0.78968946  0.08182312  0.80464069  1
  O  O394  1  0.78684403  0.58647855  0.30648006  1
  O  O395  1  0.79303128  0.58574414  0.80839216  1
  O  O396  1  0.29316801  0.33079830  0.30400834  1
  O  O397  1  0.28961117  0.33168182  0.80160687  1
  O  O398  1  0.30090137  0.83430465  0.30543553  1
  O  O399  1  0.29172085  0.83167036  0.80843576  1
  O  O400  1  0.62381595  0.33448145  0.30524489  1
  O  O401  1  0.61989548  0.32996341  0.79992824  1
  O  O402  1  0.61983247  0.83150596  0.30878173  1
  O  O403  1  0.62228003  0.83318397  0.80907554  1
  O  O404  1  0.95021479  0.32637362  0.30069648  1
  O  O405  1  0.95130401  0.34264647  0.80910964  1
  O  O406  1  0.95808918  0.83185728  0.30751044  1
  O  O407  1  0.95949632  0.83192711  0.80749522  1
  O  O408  1  0.13556524  0.41862027  0.30558852  1
  O  O409  1  0.12139259  0.41830748  0.80378652  1
  O  O410  1  0.11961914  0.92252998  0.30631182  1
  O  O411  1  0.12368736  0.91565926  0.80076051  1
  O  O412  1  0.45185019  0.41877945  0.30256894  1
  O  O413  1  0.45744998  0.41557120  0.80453790  1
  O  O414  1  0.45494421  0.91607679  0.30648594  1
  O  O415  1  0.45520116  0.91570650  0.80709635  1
  O  O416  1  0.78798427  0.42100412  0.30974983  1
  O  O417  1  0.78652298  0.41642792  0.80007379  1
  O  O418  1  0.78717392  0.91507096  0.29971651  1
  O  O419  1  0.79263409  0.91670423  0.80512970  1
  O  O420  1  0.29081063  0.16411284  0.30483506  1
  O  O421  1  0.29392467  0.16853275  0.80727872  1
  O  O422  1  0.29116877  0.66784981  0.30363100  1
  O  O423  1  0.28854212  0.66516704  0.80195880  1
  O  O424  1  0.62292856  0.16781029  0.30635513  1
  O  O425  1  0.62241215  0.16192286  0.80739273  1
  O  O426  1  0.62002795  0.66595782  0.30581986  1
  O  O427  1  0.62362940  0.66989320  0.79990216  1
  O  O428  1  0.95831048  0.16516887  0.30902137  1
  O  O429  1  0.95015812  0.15812285  0.80816909  1
  O  O430  1  0.95559459  0.66593219  0.30425097  1
  O  O431  1  0.95763557  0.66696238  0.80419460  1
  F  F432  1  0.04503339  -0.00176598  0.20260594  1
  F  F433  1  0.04363979  0.00082774  0.70236639  1
  F  F434  1  0.04983181  0.51270719  0.19706851  1
  F  F435  1  0.04486766  0.50063857  0.70107196  1
  F  F436  1  0.37776723  0.00000049  0.20195699  1
  F  F437  1  0.37306162  0.00116634  0.70145306  1
  F  F438  1  0.37787384  0.50250797  0.19889667  1
  F  F439  1  0.37967120  0.50213629  0.70014830  1
  F  F440  1  0.70839551  -0.00026296  0.20254767  1
  F  F441  1  0.71488318  0.00525637  0.69806967  1
  F  F442  1  0.71010355  0.50390022  0.20562022  1
  F  F443  1  0.71177178  0.50265969  0.70375035  1
  F  F444  1  0.21674736  0.24770669  0.20288777  1
  F  F445  1  0.21222550  0.24697797  0.69973565  1
  F  F446  1  0.21619826  0.74186836  0.19673793  1
  F  F447  1  0.21315586  0.75213511  0.70336953  1
  F  F448  1  0.54478552  0.24626665  0.20224532  1
  F  F449  1  0.54473119  0.24351951  0.70111535  1
  F  F450  1  0.54347995  0.75008236  0.20375455  1
  F  F451  1  0.54532878  0.75362853  0.70154288  1
  F  F452  1  0.87592940  0.24696851  0.20139324  1
  F  F453  1  0.86616307  0.25022576  0.70197501  1
  F  F454  1  0.87574805  0.74924924  0.20473421  1
  F  F455  1  0.87958011  0.74972970  0.70344215  1
  F  F456  1  0.28912045  0.00123833  0.30012642  1
  F  F457  1  0.28838895  0.00011161  0.80024389  1
  F  F458  1  0.29039194  0.50329880  0.29549766  1
  F  F459  1  0.28349165  0.50991855  0.79916712  1
  F  F460  1  0.62441122  -0.00014255  0.30168243  1
  F  F461  1  0.62287052  0.00086269  0.80042924  1
  F  F462  1  0.61776462  0.50217210  0.29975168  1
  F  F463  1  0.62280780  0.50099660  0.80145716  1
  F  F464  1  0.95421371  -0.00367243  0.29952798  1
  F  F465  1  0.95536208  0.00080078  0.79974571  1
  F  F466  1  0.94973667  0.51189965  0.30132375  1
  F  F467  1  0.95641863  0.50257627  0.79702413  1
  F  F468  1  0.12647622  0.25077799  0.29946427  1
  F  F469  1  0.13525314  0.25339859  0.80147350  1
  F  F470  1  0.11756812  0.73992177  0.30077592  1
  F  F471  1  0.12365078  0.75072706  0.79819694  1
  F  F472  1  0.45281788  0.24540286  0.30090847  1
  F  F473  1  0.45398157  0.24742763  0.79532219  1
  F  F474  1  0.45353845  0.74976286  0.29779388  1
  F  F475  1  0.45677706  0.74863564  0.79922431  1
  F  F476  1  0.78574467  0.24711277  0.29843214  1
  F  F477  1  0.78512814  0.24860042  0.80039571  1
  F  F478  1  0.78589087  0.74854897  0.29994562  1
  F  F479  1  0.78957459  0.74967753  0.79844617  1
