# generated using pymatgen
data_K24Na3Li5Mg64Fe17Si79(O5F)48
_symmetry_space_group_name_H-M   'P 1'
_cell_length_a   16.10919958
_cell_length_b   18.58798052
_cell_length_c   20.55708867
_cell_angle_alpha   90.00089164
_cell_angle_beta   100.00895137
_cell_angle_gamma   90.03070870
_symmetry_Int_Tables_number   1
_chemical_formula_structural   K24Na3Li5Mg64Fe17Si79(O5F)48
_chemical_formula_sum   'K24 Na3 Li5 Mg64 Fe17 Si79 O240 F48'
_cell_volume   6061.87818079
_cell_formula_units_Z   1
loop_
 _symmetry_equiv_pos_site_id
 _symmetry_equiv_pos_as_xyz
  1  'x, y, z'
loop_
 _atom_site_type_symbol
 _atom_site_label
 _atom_site_symmetry_multiplicity
 _atom_site_fract_x
 _atom_site_fract_y
 _atom_site_fract_z
 _atom_site_occupancy
  K  K0  1  -0.00981764  -0.00740537  0.00674619  1
  K  K1  1  -0.01096461  -0.00393674  0.49358761  1
  K  K2  1  0.00724031  0.49591539  0.00494776  1
  K  K3  1  0.00167462  0.50009211  0.49650098  1
  K  K4  1  0.33814534  -0.00364288  0.00601215  1
  K  K5  1  0.33274714  -0.00435904  0.49304092  1
  K  K6  1  0.33580367  0.51248840  0.00095669  1
  K  K7  1  0.34128974  0.50512269  0.49963838  1
  K  K8  1  0.67287816  0.00091847  0.00435667  1
  K  K9  1  0.67141605  0.00023054  0.50248261  1
  K  K10  1  0.64987602  0.49752477  0.00428954  1
  K  K11  1  0.66241704  0.49707082  0.49541123  1
  K  K12  1  0.16016555  0.25117794  0.00925972  1
  K  K13  1  0.16459600  0.25036625  0.49295564  1
  K  K14  1  0.17317038  0.75187724  0.00100769  1
  K  K15  1  0.17103106  0.75548175  0.49286823  1
  K  K16  1  0.51549061  0.25477527  -0.00052857  1
  K  K17  1  0.49402801  0.24463270  0.49665593  1
  K  K18  1  0.49675385  0.74384102  0.01136480  1
  K  K19  1  0.49924412  0.74669974  0.49396660  1
  K  K20  1  0.82715398  0.24111765  0.00365782  1
  K  K21  1  0.82865548  0.24532784  0.49501171  1
  K  K22  1  0.83169474  0.75682142  0.00469963  1
  K  K23  1  0.82703679  0.75986681  0.50174817  1
  Na  Na24  1  0.66679596  0.24941073  0.75506603  1
  Na  Na25  1  0.66759807  0.08430653  0.75135755  1
  Na  Na26  1  0.50351021  0.67074985  0.24519922  1
  Li  Li27  1  0.65828949  0.75199636  0.24459671  1
  Li  Li28  1  0.00055418  0.24943172  0.24400153  1
  Li  Li29  1  0.33718863  0.58869868  0.75237921  1
  Li  Li30  1  0.66379101  0.08071164  0.25054575  1
  Li  Li31  1  0.33771317  0.91552521  0.25980502  1
  Mg  Mg32  1  0.17251483  0.50301237  0.75156300  1
  Mg  Mg33  1  0.50240852  0.00360047  0.75244273  1
  Mg  Mg34  1  0.00086146  0.75080761  0.75311280  1
  Mg  Mg35  1  0.50133573  0.49796205  0.24916225  1
  Mg  Mg36  1  0.33598890  0.25178142  0.74612830  1
  Mg  Mg37  1  0.33405746  0.75429189  0.25312111  1
  Mg  Mg38  1  0.66742840  0.74891586  0.74461576  1
  Mg  Mg39  1  0.49905605  -0.00028382  0.25467257  1
  Mg  Mg40  1  0.83377552  0.50127450  0.74811796  1
  Mg  Mg41  1  0.00207569  0.25156279  0.74977413  1
  Mg  Mg42  1  0.16716293  0.49665904  0.24677555  1
  Mg  Mg43  1  0.83380403  0.00021678  0.75004769  1
  Mg  Mg44  1  0.16626113  0.00076068  0.75240626  1
  Mg  Mg45  1  0.82916647  -0.00146481  0.24802096  1
  Mg  Mg46  1  0.33111579  0.24628626  0.25058983  1
  Mg  Mg47  1  0.83279442  0.49865692  0.24804504  1
  Mg  Mg48  1  0.49870980  0.50358554  0.74681463  1
  Mg  Mg49  1  0.66532686  0.24655835  0.25034602  1
  Mg  Mg50  1  0.33423419  0.74822829  0.75301255  1
  Mg  Mg51  1  -0.00126343  0.74932916  0.25106675  1
  Mg  Mg52  1  0.16626625  -0.00159237  0.25499953  1
  Mg  Mg53  1  0.83327281  0.33386641  0.75015615  1
  Mg  Mg54  1  0.49892760  0.33446735  0.74854528  1
  Mg  Mg55  1  -0.00004454  0.58208442  0.25087320  1
  Mg  Mg56  1  0.83038820  0.16508990  0.24618444  1
  Mg  Mg57  1  0.83374244  0.16736627  0.75191130  1
  Mg  Mg58  1  0.50050467  0.16206734  0.25268386  1
  Mg  Mg59  1  0.33406467  0.08516693  0.75040269  1
  Mg  Mg60  1  -0.00134928  0.91574520  0.75257835  1
  Mg  Mg61  1  -0.00317018  0.91476788  0.25248901  1
  Mg  Mg62  1  -0.00054114  0.08553406  0.74849377  1
  Mg  Mg63  1  0.17085769  0.33661860  0.74741137  1
  Mg  Mg64  1  0.66428560  0.58598216  0.74535501  1
  Mg  Mg65  1  0.83263737  0.66657012  0.74788998  1
  Mg  Mg66  1  0.33407832  0.07944775  0.25462088  1
  Mg  Mg67  1  0.33544389  0.41403178  0.24807840  1
  Mg  Mg68  1  0.17219446  0.66613894  0.75495276  1
  Mg  Mg69  1  0.50041533  0.83521236  0.75011248  1
  Mg  Mg70  1  0.16887229  0.16747411  0.74813989  1
  Mg  Mg71  1  0.82924406  0.66714926  0.25007346  1
  Mg  Mg72  1  0.49826577  0.66545789  0.74804397  1
  Mg  Mg73  1  0.66353591  0.41475509  0.24724916  1
  Mg  Mg74  1  0.83104019  0.83304497  0.24963082  1
  Mg  Mg75  1  -0.00301844  0.08537951  0.24756940  1
  Mg  Mg76  1  0.00259493  0.41687223  0.74973732  1
  Mg  Mg77  1  0.49923663  0.33265177  0.24903765  1
  Mg  Mg78  1  0.83531863  0.83550331  0.74838748  1
  Mg  Mg79  1  0.33814970  0.58480422  0.25074787  1
  Mg  Mg80  1  0.16955968  0.66520708  0.25260823  1
  Mg  Mg81  1  0.66495488  0.91611404  0.24854098  1
  Mg  Mg82  1  0.16385440  0.16604409  0.24963347  1
  Mg  Mg83  1  0.00285426  0.58441288  0.75237031  1
  Mg  Mg84  1  0.49724977  0.16783708  0.74886939  1
  Mg  Mg85  1  0.33350592  0.91655733  0.75418761  1
  Mg  Mg86  1  0.66752460  0.91622029  0.74847196  1
  Mg  Mg87  1  0.83340461  0.33085330  0.24422267  1
  Mg  Mg88  1  0.66418822  0.58424090  0.24600017  1
  Mg  Mg89  1  0.16376726  0.33048028  0.24770696  1
  Mg  Mg90  1  0.66463737  0.41665860  0.74785970  1
  Mg  Mg91  1  -0.00131283  0.41185535  0.24616001  1
  Mg  Mg92  1  0.49954529  0.83441901  0.25252381  1
  Mg  Mg93  1  0.16713139  0.83441527  0.75646932  1
  Mg  Mg94  1  0.33568271  0.42037242  0.74796113  1
  Mg  Mg95  1  0.16743510  0.83491642  0.25429771  1
  Fe  Fe96  1  0.85652061  0.91244792  0.10943826  1
  Fe  Fe97  1  0.30689526  0.66759347  0.89348352  1
  Fe  Fe98  1  0.97084934  0.83045011  0.39131751  1
  Fe  Fe99  1  0.48183067  0.07902124  0.39509615  1
  Fe  Fe100  1  0.51863340  0.41026132  0.10648949  1
  Fe  Fe101  1  0.02517699  0.33624954  0.10676300  1
  Fe  Fe102  1  0.52074492  0.58072501  0.60566981  1
  Fe  Fe103  1  0.35277307  0.33271063  0.60754866  1
  Fe  Fe104  1  0.98010114  0.83084035  0.89342980  1
  Fe  Fe105  1  0.30632066  0.16580414  0.38979620  1
  Fe  Fe106  1  0.86041988  0.92194296  0.60977987  1
  Fe  Fe107  1  0.30899226  0.83400864  0.39264927  1
  Fe  Fe108  1  0.69615043  0.66326921  0.60526543  1
  Fe  Fe109  1  0.35116698  0.16097080  0.60804067  1
  Fe  Fe110  1  0.47688027  0.41864753  0.38938634  1
  Fe  Fe111  1  0.51966119  0.58161147  0.10592581  1
  Fe  Fe112  1  0.64136503  0.16709970  0.89450989  1
  Si  Si113  1  0.18919864  0.91458889  0.11805031  1
  Si  Si114  1  0.02913182  0.83024770  0.61665775  1
  Si  Si115  1  0.52313943  0.92070298  0.61533639  1
  Si  Si116  1  0.47521010  0.91673791  0.88683093  1
  Si  Si117  1  0.13235661  0.08841975  0.38602992  1
  Si  Si118  1  0.69526515  0.33664165  0.61453304  1
  Si  Si119  1  0.69610946  0.17108977  0.61599660  1
  Si  Si120  1  0.31009691  0.66111418  0.38898119  1
  Si  Si121  1  0.18559741  0.07389567  0.61398399  1
  Si  Si122  1  0.35082919  0.67590721  0.11466489  1
  Si  Si123  1  0.80440494  0.08234445  0.38186965  1
  Si  Si124  1  0.64430935  0.16878465  0.38688566  1
  Si  Si125  1  0.48527085  0.91206617  0.39201462  1
  Si  Si126  1  0.81581097  0.07983945  0.88811202  1
  Si  Si127  1  0.64192022  0.83088315  0.38304641  1
  Si  Si128  1  0.80741129  0.41559984  0.38286021  1
  Si  Si129  1  0.35260829  0.15830366  0.11442020  1
  Si  Si130  1  0.30808150  0.83885797  0.89154203  1
  Si  Si131  1  0.97494156  0.16810537  0.88535457  1
  Si  Si132  1  0.80965203  0.42164322  0.88488983  1
  Si  Si133  1  0.30632915  0.33740030  0.38518316  1
  Si  Si134  1  0.80939392  0.58074264  0.38455615  1
  Si  Si135  1  0.96535124  0.16579965  0.38115415  1
  Si  Si136  1  0.80098378  0.91719157  0.38669849  1
  Si  Si137  1  0.31191495  0.33398012  0.88407591  1
  Si  Si138  1  0.86997378  0.58116858  0.61273645  1
  Si  Si139  1  0.85597471  0.58567514  0.11461113  1
  Si  Si140  1  0.02408543  0.16438480  0.11039002  1
  Si  Si141  1  0.97325311  0.33415129  0.88429041  1
  Si  Si142  1  0.63974016  0.83427990  0.88383201  1
  Si  Si143  1  0.80907481  0.58614652  0.88465109  1
  Si  Si144  1  0.64305722  0.34106844  0.88788068  1
  Si  Si145  1  0.80641543  0.91356403  0.88689612  1
  Si  Si146  1  0.69282800  0.66591322  0.11105398  1
  Si  Si147  1  0.14306799  0.09241562  0.88568085  1
  Si  Si148  1  0.35583160  0.32141378  0.11094958  1
  Si  Si149  1  0.03081983  0.33655796  0.61368007  1
  Si  Si150  1  0.35668981  0.83888072  0.61771812  1
  Si  Si151  1  0.02671641  0.65944089  0.11615129  1
  Si  Si152  1  0.52292841  0.91821513  0.11571609  1
  Si  Si153  1  0.68612480  0.83248384  0.11226873  1
  Si  Si154  1  0.52263750  0.08354870  0.11523355  1
  Si  Si155  1  0.19079770  0.42761953  0.61111765  1
  Si  Si156  1  0.52478132  0.40985257  0.61092588  1
  Si  Si157  1  0.13669580  0.41052098  0.38271205  1
  Si  Si158  1  0.14413583  0.92665617  0.89067128  1
  Si  Si159  1  0.85972170  0.09336738  0.61079474  1
  Si  Si160  1  0.13811726  0.57583487  0.88936965  1
  Si  Si161  1  0.47619630  0.42027693  0.88439680  1
  Si  Si162  1  0.47927566  0.58610421  0.88723630  1
  Si  Si163  1  0.03097646  0.66692968  0.61896656  1
  Si  Si164  1  0.13715938  0.92182365  0.39209283  1
  Si  Si165  1  0.14371191  0.41061830  0.88510700  1
  Si  Si166  1  0.97737349  0.66112457  0.88792193  1
  Si  Si167  1  0.35735594  0.83980678  0.11879426  1
  Si  Si168  1  0.03046667  0.82594781  0.11401341  1
  Si  Si169  1  0.35783890  0.67447934  0.61309730  1
  Si  Si170  1  0.68631437  0.83504774  0.60961921  1
  Si  Si171  1  0.86194391  0.41451079  0.61368520  1
  Si  Si172  1  0.64944255  0.66848627  0.38098949  1
  Si  Si173  1  0.48225361  0.58626221  0.38525474  1
  Si  Si174  1  0.18646836  0.07666417  0.11480689  1
  Si  Si175  1  0.64591679  0.33023166  0.38641329  1
  Si  Si176  1  0.68963376  0.16590671  0.11557387  1
  Si  Si177  1  0.14382418  0.57478898  0.38519339  1
  Si  Si178  1  0.52684249  0.08677382  0.61375005  1
  Si  Si179  1  0.85552266  0.08314752  0.11072061  1
  Si  Si180  1  0.18928397  0.91231897  0.61995613  1
  Si  Si181  1  0.96902454  0.33151712  0.38143247  1
  Si  Si182  1  0.85595675  0.42062675  0.11029434  1
  Si  Si183  1  0.19942413  0.41746859  0.11010918  1
  Si  Si184  1  0.64376214  0.66882264  0.88461156  1
  Si  Si185  1  0.30880072  0.16932117  0.88526862  1
  Si  Si186  1  0.02981130  0.17082801  0.61391699  1
  Si  Si187  1  0.19355892  0.59092431  0.61746952  1
  Si  Si188  1  0.47169917  0.08250160  0.89078939  1
  Si  Si189  1  0.97886034  0.66002671  0.38825686  1
  Si  Si190  1  0.19489556  0.58378982  0.11502947  1
  Si  Si191  1  0.69456153  0.33155797  0.11130371  1
  O  O192  1  0.26949078  0.10740080  0.08545882  1
  O  O193  1  0.26534812  0.09048010  0.57988269  1
  O  O194  1  0.26085057  0.63400708  0.08337093  1
  O  O195  1  0.27317115  0.62370643  0.58739141  1
  O  O196  1  0.60017456  0.12405003  0.08581507  1
  O  O197  1  0.61496987  0.11796254  0.59115661  1
  O  O198  1  0.61653121  0.61693010  0.07340340  1
  O  O199  1  0.61444291  0.59979340  0.56780039  1
  O  O200  1  0.93397795  0.12262046  0.08206035  1
  O  O201  1  0.93738706  0.13764245  0.58386196  1
  O  O202  1  0.94017008  0.61447084  0.08631622  1
  O  O203  1  0.95972674  0.60638796  0.59013199  1
  O  O204  1  0.11327159  0.38195664  0.07125820  1
  O  O205  1  0.10247303  0.38126425  0.58325683  1
  O  O206  1  0.11303570  0.85906191  0.08576196  1
  O  O207  1  0.11939546  0.85052039  0.59218416  1
  O  O208  1  0.43499599  0.34006393  0.07594613  1
  O  O209  1  0.45819324  0.34748355  0.58180626  1
  O  O210  1  0.43313771  0.87752270  0.08518895  1
  O  O211  1  0.43638406  0.87390262  0.58852506  1
  O  O212  1  0.77733209  0.36542419  0.08402060  1
  O  O213  1  0.77695653  0.36888604  0.58308421  1
  O  O214  1  0.75582522  0.86566408  0.07190110  1
  O  O215  1  0.76224536  0.87037743  0.57715114  1
  O  O216  1  0.27686639  0.37628603  0.08227036  1
  O  O217  1  0.26691615  0.40266004  0.57576674  1
  O  O218  1  0.27341141  0.88836747  0.08922919  1
  O  O219  1  0.27546557  0.89176052  0.59156678  1
  O  O220  1  0.61475928  0.37583711  0.07397064  1
  O  O221  1  0.61562261  0.38842547  0.58572605  1
  O  O222  1  0.59630119  0.87609937  0.08431722  1
  O  O223  1  0.60097352  0.88523664  0.58575188  1
  O  O224  1  0.93281771  0.39744955  0.07391540  1
  O  O225  1  0.93969971  0.37467871  0.58456181  1
  O  O226  1  0.94786823  0.86813139  0.07726944  1
  O  O227  1  0.95659178  0.88309140  0.58056388  1
  O  O228  1  0.10216628  0.12233538  0.08142347  1
  O  O229  1  0.10344161  0.12644496  0.58559061  1
  O  O230  1  0.10016099  0.61584022  0.08568812  1
  O  O231  1  0.11473170  0.64526931  0.58819667  1
  O  O232  1  0.43271877  0.12483810  0.08293432  1
  O  O233  1  0.45089341  0.13607718  0.57671115  1
  O  O234  1  0.42528562  0.64344123  0.08053750  1
  O  O235  1  0.43106525  0.64644596  0.57519051  1
  O  O236  1  0.76681652  0.12825135  0.08448118  1
  O  O237  1  0.77532683  0.14164100  0.58122898  1
  O  O238  1  0.78066736  0.64093091  0.08301188  1
  O  O239  1  0.79771219  0.63329537  0.57621418  1
  O  O240  1  0.04578638  0.11587149  0.41300176  1
  O  O241  1  0.06598974  0.13065723  0.91547787  1
  O  O242  1  0.06370285  0.60929503  0.41444060  1
  O  O243  1  0.04835842  0.59812256  0.91268946  1
  O  O244  1  0.38662199  0.10179836  0.42937663  1
  O  O245  1  0.38445897  0.11350230  0.91525721  1
  O  O246  1  0.39996263  0.61899350  0.41496604  1
  O  O247  1  0.40942431  0.62109663  0.92540589  1
  O  O248  1  0.72603133  0.11566201  0.41320172  1
  O  O249  1  0.74274191  0.11383721  0.92306083  1
  O  O250  1  0.73156868  0.61724986  0.41492012  1
  O  O251  1  0.73059196  0.62350211  0.91341819  1
  O  O252  1  0.21605348  0.35914546  0.41099080  1
  O  O253  1  0.22977512  0.36504612  0.91419786  1
  O  O254  1  0.21967389  0.87741755  0.42716848  1
  O  O255  1  0.23543660  0.88801209  0.91838524  1
  O  O256  1  0.56847862  0.35548428  0.42122154  1
  O  O257  1  0.56219526  0.37692384  0.91718323  1
  O  O258  1  0.55961226  0.84994644  0.41637603  1
  O  O259  1  0.55945611  0.86805439  0.91375010  1
  O  O260  1  0.89285538  0.36931459  0.41446039  1
  O  O261  1  0.89753451  0.37640026  0.91298787  1
  O  O262  1  0.87717009  0.86744487  0.42376558  1
  O  O263  1  0.88079010  0.86084414  0.92206058  1
  O  O264  1  0.05529222  0.37694093  0.41193006  1
  O  O265  1  0.06445608  0.37245200  0.91366195  1
  O  O266  1  0.05759119  0.89439993  0.42490497  1
  O  O267  1  0.07101470  0.89392613  0.92635668  1
  O  O268  1  0.37304416  0.39935453  0.41572793  1
  O  O269  1  0.39540851  0.38281599  0.91240894  1
  O  O270  1  0.40644160  0.88617905  0.42671439  1
  O  O271  1  0.39739931  0.88196782  0.91796635  1
  O  O272  1  0.72925949  0.38212570  0.41407391  1
  O  O273  1  0.72920275  0.39090150  0.91489021  1
  O  O274  1  0.71602045  0.88905346  0.41399920  1
  O  O275  1  0.71967868  0.88619419  0.91323589  1
  O  O276  1  0.20440253  0.14331046  0.41930001  1
  O  O277  1  0.22538223  0.14221786  0.91508511  1
  O  O278  1  0.23318729  0.61404237  0.41545003  1
  O  O279  1  0.21524609  0.62340287  0.92665712  1
  O  O280  1  0.56942118  0.14660124  0.42557026  1
  O  O281  1  0.54897284  0.12831492  0.93059773  1
  O  O282  1  0.56327945  0.64211190  0.40781889  1
  O  O283  1  0.56924250  0.62915423  0.91586241  1
  O  O284  1  0.88626543  0.13335266  0.41369020  1
  O  O285  1  0.90488266  0.12427508  0.91795948  1
  O  O286  1  0.89957221  0.61965923  0.41569246  1
  O  O287  1  0.89212845  0.63380951  0.91555335  1
  O  O288  1  0.16820525  -0.00507845  0.08441096  1
  O  O289  1  0.15289705  -0.00905566  0.59236318  1
  O  O290  1  0.20062213  0.50254728  0.08476800  1
  O  O291  1  0.16605709  0.51105391  0.58592694  1
  O  O292  1  0.51521248  0.00089758  0.08394343  1
  O  O293  1  0.51253646  0.00251854  0.58581356  1
  O  O294  1  0.48893819  0.49533642  0.06274416  1
  O  O295  1  0.49060641  0.48603829  0.57865665  1
  O  O296  1  0.84375200  0.00622470  0.07376285  1
  O  O297  1  0.85015536  0.01630225  0.57447181  1
  O  O298  1  0.82978525  0.50448801  0.08583441  1
  O  O299  1  0.85562004  0.49693107  0.58475883  1
  O  O300  1  0.01545404  0.24153773  0.07287057  1
  O  O301  1  0.02987400  0.25389582  0.58524144  1
  O  O302  1  0.02143783  0.74127785  0.08664855  1
  O  O303  1  0.00318553  0.74731910  0.59101215  1
  O  O304  1  0.32575386  0.23883860  0.08431584  1
  O  O305  1  0.30478697  0.24688468  0.57503257  1
  O  O306  1  0.33660017  0.75951995  0.08624177  1
  O  O307  1  0.33294056  0.75864364  0.58714492  1
  O  O308  1  0.68332746  0.24750242  0.08386096  1
  O  O309  1  0.67738744  0.25401517  0.58592819  1
  O  O310  1  0.67141064  0.74894793  0.08492073  1
  O  O311  1  0.66387013  0.75685412  0.57642285  1
  O  O312  1  0.15229783  0.00708928  0.41556444  1
  O  O313  1  0.15983665  0.01142641  0.91557837  1
  O  O314  1  0.15119173  0.49199044  0.41437593  1
  O  O315  1  0.15377730  0.49162257  0.91600506  1
  O  O316  1  0.52260585  -0.01232468  0.42525041  1
  O  O317  1  0.48586227  -0.00190936  0.91783999  1
  O  O318  1  0.50921280  0.51094394  0.42261364  1
  O  O319  1  0.49126312  0.50182229  0.91375941  1
  O  O320  1  0.81989282  0.00107936  0.41341239  1
  O  O321  1  0.82988636  -0.00426577  0.91461291  1
  O  O322  1  0.82176426  0.49749500  0.41323934  1
  O  O323  1  0.82596885  0.50396511  0.91419301  1
  O  O324  1  0.33686573  0.26063722  0.41732620  1
  O  O325  1  0.33024944  0.25155656  0.91339906  1
  O  O326  1  0.31416028  0.73765464  0.42602669  1
  O  O327  1  0.31272869  0.76244911  0.92845047  1
  O  O328  1  0.67899838  0.24989950  0.41339070  1
  O  O329  1  0.66218399  0.26417270  0.92383873  1
  O  O330  1  0.67255002  0.74983338  0.41139049  1
  O  O331  1  0.65657713  0.75197403  0.91402497  1
  O  O332  1  0.98008109  0.24900652  0.41115605  1
  O  O333  1  0.97875258  0.25162906  0.91301653  1
  O  O334  1  0.99691727  0.73619516  0.42518935  1
  O  O335  1  1.00918646  0.73593381  0.92340414  1
  O  O336  1  0.20423440  0.07936035  0.19449090  1
  O  O337  1  0.20576556  0.08146811  0.69532834  1
  O  O338  1  0.20943949  0.58289752  0.19529974  1
  O  O339  1  0.20643060  0.58601589  0.69696558  1
  O  O340  1  0.53826766  0.08339275  0.19418193  1
  O  O341  1  0.53235368  0.08324090  0.69325368  1
  O  O342  1  0.54813854  0.57239183  0.19554749  1
  O  O343  1  0.54415460  0.58557989  0.69845551  1
  O  O344  1  0.87443843  0.08236082  0.19128157  1
  O  O345  1  0.88023178  0.08842358  0.69187990  1
  O  O346  1  0.87706400  0.58337889  0.19516397  1
  O  O347  1  0.88170480  0.58136487  0.69399866  1
  O  O348  1  0.04539506  0.33564114  0.19693517  1
  O  O349  1  0.04628484  0.33568135  0.69423787  1
  O  O350  1  0.04500534  0.82901899  0.19459849  1
  O  O351  1  0.04667261  0.83326049  0.69775111  1
  O  O352  1  0.37329545  0.32661276  0.19163121  1
  O  O353  1  0.37481037  0.33684967  0.70019065  1
  O  O354  1  0.37793360  0.83533066  0.19751663  1
  O  O355  1  0.37569672  0.83636081  0.69844017  1
  O  O356  1  0.70979293  0.33245066  0.19228463  1
  O  O357  1  0.71806312  0.34127463  0.69409887  1
  O  O358  1  0.71168835  0.83694129  0.19181605  1
  O  O359  1  0.70849347  0.83337607  0.69165235  1
  O  O360  1  0.21071066  0.41563056  0.19094832  1
  O  O361  1  0.20781990  0.42077119  0.69218068  1
  O  O362  1  0.19906163  0.91713768  0.19682675  1
  O  O363  1  0.20953144  0.91543091  0.70080935  1
  O  O364  1  0.54504757  0.41224468  0.19833581  1
  O  O365  1  0.54426910  0.41565311  0.69267571  1
  O  O366  1  0.54085529  0.91990726  0.19521028  1
  O  O367  1  0.54115925  0.91808260  0.69601986  1
  O  O368  1  0.87589067  0.41795454  0.19138837  1
  O  O369  1  0.88068295  0.41597461  0.69428599  1
  O  O370  1  0.87710184  0.91593122  0.20034119  1
  O  O371  1  0.88046164  0.91955558  0.70144123  1
  O  O372  1  0.04350101  0.16259605  0.19042353  1
  O  O373  1  0.04568905  0.16990966  0.69468282  1
  O  O374  1  0.04437716  0.66167944  0.19656601  1
  O  O375  1  0.04718711  0.66648450  0.69973284  1
  O  O376  1  0.37461927  0.16230391  0.19388226  1
  O  O377  1  0.37385325  0.16529737  0.70108801  1
  O  O378  1  0.36263830  0.67065888  0.19411328  1
  O  O379  1  0.37945152  0.67468961  0.69317651  1
  O  O380  1  0.70881033  0.16775642  0.19486659  1
  O  O381  1  0.72412518  0.17114520  0.69396403  1
  O  O382  1  0.71397536  0.65990429  0.19063511  1
  O  O383  1  0.71415761  0.66568711  0.69842538  1
  O  O384  1  0.11696243  0.08532191  0.30503136  1
  O  O385  1  0.12385856  0.08884185  0.80512559  1
  O  O386  1  0.12458947  0.57857343  0.30472211  1
  O  O387  1  0.12426264  0.58028114  0.80841414  1
  O  O388  1  0.45600381  0.08322457  0.30310550  1
  O  O389  1  0.45431988  0.08130943  0.81012200  1
  O  O390  1  0.45492299  0.57727311  0.30606231  1
  O  O391  1  0.46162224  0.58702979  0.80729219  1
  O  O392  1  0.79221492  0.08273709  0.30250353  1
  O  O393  1  0.80500292  0.08282928  0.80824353  1
  O  O394  1  0.79400641  0.58062602  0.30434706  1
  O  O395  1  0.79312589  0.58345067  0.80435021  1
  O  O396  1  0.28718590  0.33481216  0.30327032  1
  O  O397  1  0.28875394  0.33396198  0.80405237  1
  O  O398  1  0.28434004  0.83119174  0.30255679  1
  O  O399  1  0.29042590  0.83608423  0.81042132  1
  O  O400  1  0.62685174  0.33143213  0.30556982  1
  O  O401  1  0.62128861  0.34435043  0.80812784  1
  O  O402  1  0.62287873  0.83537462  0.30367837  1
  O  O403  1  0.62292514  0.83213740  0.80345704  1
  O  O404  1  0.95005537  0.33584009  0.30230311  1
  O  O405  1  0.95925591  0.33556178  0.80389049  1
  O  O406  1  0.95530207  0.82966591  0.29999982  1
  O  O407  1  0.95813389  0.83218052  0.80192567  1
  O  O408  1  0.12084946  0.41621547  0.30269575  1
  O  O409  1  0.12452863  0.41387735  0.80464292  1
  O  O410  1  0.11950028  0.91658913  0.31035404  1
  O  O411  1  0.12412315  0.92085091  0.80955294  1
  O  O412  1  0.45421132  0.41415318  0.29770865  1
  O  O413  1  0.45819782  0.41996105  0.80434571  1
  O  O414  1  0.46461153  0.91615308  0.31151064  1
  O  O415  1  0.45588785  0.91653220  0.80648444  1
  O  O416  1  0.79113013  0.41470115  0.30265673  1
  O  O417  1  0.79353207  0.41930951  0.80447569  1
  O  O418  1  0.78759893  0.91601217  0.30629090  1
  O  O419  1  0.78945000  0.91413331  0.80617798  1
  O  O420  1  0.28522755  0.16507640  0.29742465  1
  O  O421  1  0.28746203  0.16806920  0.80500286  1
  O  O422  1  0.28937646  0.66345745  0.30808476  1
  O  O423  1  0.28902499  0.67002310  0.80312303  1
  O  O424  1  0.62145816  0.16934017  0.30689683  1
  O  O425  1  0.60858015  0.16483400  0.80788089  1
  O  O426  1  0.63837716  0.66550495  0.30272112  1
  O  O427  1  0.62536626  0.66964985  0.80459368  1
  O  O428  1  0.94963326  0.16483505  0.30170142  1
  O  O429  1  0.96107305  0.16837178  0.80482719  1
  O  O430  1  0.95932093  0.66229132  0.30727230  1
  O  O431  1  0.95751034  0.66436162  0.80661094  1
  F  F432  1  0.04348449  -0.00172969  0.20438481  1
  F  F433  1  0.04670151  0.00147872  0.70473693  1
  F  F434  1  0.04465298  0.50016835  0.20043532  1
  F  F435  1  0.04789351  0.50000921  0.70420784  1
  F  F436  1  0.37805484  -0.00014133  0.20373364  1
  F  F437  1  0.37754583  -0.00125720  0.70638566  1
  F  F438  1  0.37508169  0.50072813  0.19921374  1
  F  F439  1  0.37849922  0.50252825  0.70289890  1
  F  F440  1  0.71242556  -0.00458542  0.19776485  1
  F  F441  1  0.71772944  -0.00805003  0.69984750  1
  F  F442  1  0.71476935  0.49709436  0.20114645  1
  F  F443  1  0.71541201  0.50048833  0.70131219  1
  F  F444  1  0.20952797  0.24979578  0.19778399  1
  F  F445  1  0.20923285  0.25137565  0.70104569  1
  F  F446  1  0.20742175  0.74777353  0.20329577  1
  F  F447  1  0.21133483  0.75421023  0.70575864  1
  F  F448  1  0.54475620  0.24746735  0.20231948  1
  F  F449  1  0.53317118  0.25158843  0.70052448  1
  F  F450  1  0.54289710  0.76472760  0.19326068  1
  F  F451  1  0.54419437  0.75251417  0.70181722  1
  F  F452  1  0.87053771  0.24838298  0.19585800  1
  F  F453  1  0.88465452  0.25309989  0.70119872  1
  F  F454  1  0.88038251  0.74421406  0.19881564  1
  F  F455  1  0.88120041  0.74796306  0.70161785  1
  F  F456  1  0.28263384  0.00240413  0.30246105  1
  F  F457  1  0.28669987  0.00200997  0.80052613  1
  F  F458  1  0.28565660  0.49884156  0.29459193  1
  F  F459  1  0.28558960  0.49281297  0.80245529  1
  F  F460  1  0.62188965  -0.00179740  0.29669030  1
  F  F461  1  0.61776308  -0.01126039  0.80223210  1
  F  F462  1  0.62864032  0.49754743  0.30011945  1
  F  F463  1  0.62434825  0.50169225  0.79608424  1
  F  F464  1  0.95221592  0.00273634  0.29788773  1
  F  F465  1  0.95891643  0.00482945  0.79944521  1
  F  F466  1  0.95492244  0.49741816  0.29639927  1
  F  F467  1  0.95561458  0.49867126  0.79781032  1
  F  F468  1  0.12309799  0.24901840  0.29729624  1
  F  F469  1  0.12261821  0.25257974  0.79723661  1
  F  F470  1  0.11961053  0.74599594  0.29961458  1
  F  F471  1  0.12224870  0.75015275  0.80223408  1
  F  F472  1  0.45316377  0.24875684  0.29566764  1
  F  F473  1  0.45201957  0.25334742  0.80224190  1
  F  F474  1  0.45023676  0.75709525  0.30271387  1
  F  F475  1  0.45686642  0.75259154  0.79912329  1
  F  F476  1  0.78824272  0.25036157  0.29615557  1
  F  F477  1  0.80779263  0.25278213  0.80483599  1
  F  F478  1  0.79695482  0.74937759  0.29842286  1
  F  F479  1  0.78938085  0.75164229  0.79649918  1
