# generated using pymatgen
data_K24Na3Li5Mg64Fe17Si79(O5F)48
_symmetry_space_group_name_H-M   'P 1'
_cell_length_a   16.08688372
_cell_length_b   18.57061081
_cell_length_c   20.53689994
_cell_angle_alpha   90.00495946
_cell_angle_beta   100.01271419
_cell_angle_gamma   89.98909048
_symmetry_Int_Tables_number   1
_chemical_formula_structural   K24Na3Li5Mg64Fe17Si79(O5F)48
_chemical_formula_sum   'K24 Na3 Li5 Mg64 Fe17 Si79 O240 F48'
_cell_volume   6041.81529980
_cell_formula_units_Z   1
loop_
 _symmetry_equiv_pos_site_id
 _symmetry_equiv_pos_as_xyz
  1  'x, y, z'
loop_
 _atom_site_type_symbol
 _atom_site_label
 _atom_site_symmetry_multiplicity
 _atom_site_fract_x
 _atom_site_fract_y
 _atom_site_fract_z
 _atom_site_occupancy
  K  K0  1  -0.00159963  0.00128990  0.00339717  1
  K  K1  1  0.00215590  0.00679435  0.50375658  1
  K  K2  1  -0.00537177  0.50604177  -0.00700398  1
  K  K3  1  0.00212127  0.50586723  0.50656365  1
  K  K4  1  0.33679614  -0.00001337  -0.00548302  1
  K  K5  1  0.33248861  -0.00220050  0.50511604  1
  K  K6  1  0.33840420  0.50495191  -0.00018614  1
  K  K7  1  0.33256775  0.50486365  0.50717934  1
  K  K8  1  0.65799682  -0.00463390  -0.00344114  1
  K  K9  1  0.66443927  -0.00938637  0.50008830  1
  K  K10  1  0.66819082  0.50180358  -0.00271228  1
  K  K11  1  0.67232571  0.49774146  0.50331445  1
  K  K12  1  0.16203235  0.25140146  -0.00270014  1
  K  K13  1  0.17135653  0.25047491  0.50501818  1
  K  K14  1  0.16928602  0.74923910  -0.00039981  1
  K  K15  1  0.16896251  0.74777643  0.50195598  1
  K  K16  1  0.50154297  0.24449975  -0.00500735  1
  K  K17  1  0.50302806  0.24859826  0.50246015  1
  K  K18  1  0.50115441  0.74967756  0.00041853  1
  K  K19  1  0.50055732  0.74542460  0.50067549  1
  K  K20  1  0.83943049  0.24277720  -0.00441607  1
  K  K21  1  0.83325651  0.25191933  0.50587605  1
  K  K22  1  0.83336168  0.74787649  -0.00260513  1
  K  K23  1  0.83111407  0.75164416  0.50137906  1
  Na  Na24  1  0.16569765  0.49969356  0.74645253  1
  Na  Na25  1  0.83223094  0.66745239  0.75378790  1
  Na  Na26  1  0.83511151  0.16886629  0.74698218  1
  Li  Li27  1  0.50228895  0.50158004  0.24778418  1
  Li  Li28  1  0.83450302  0.50366955  0.74845566  1
  Li  Li29  1  0.16176949  0.16560413  0.24154941  1
  Li  Li30  1  -0.00366790  0.58364543  0.25183507  1
  Li  Li31  1  0.33485773  0.08506273  0.75023631  1
  Mg  Mg32  1  0.83450846  -0.00197814  0.24807393  1
  Mg  Mg33  1  0.32922154  0.24991061  0.24804770  1
  Mg  Mg34  1  0.16227779  0.50106108  0.24740129  1
  Mg  Mg35  1  0.49583605  0.00036614  0.75562962  1
  Mg  Mg36  1  0.66656846  0.74732439  0.25329230  1
  Mg  Mg37  1  0.00282994  0.24974967  0.24632330  1
  Mg  Mg38  1  0.33219796  0.75021469  0.24859332  1
  Mg  Mg39  1  0.83293657  0.50151043  0.25481232  1
  Mg  Mg40  1  0.50057920  -0.00101843  0.25545171  1
  Mg  Mg41  1  0.83450362  0.00186994  0.74765254  1
  Mg  Mg42  1  -0.00070762  0.75112892  0.75031212  1
  Mg  Mg43  1  0.66797388  0.74874721  0.75327470  1
  Mg  Mg44  1  0.50190358  0.49901632  0.74770936  1
  Mg  Mg45  1  0.16703764  0.00148570  0.24339512  1
  Mg  Mg46  1  0.17213924  0.00296817  0.74974476  1
  Mg  Mg47  1  0.00126635  0.25109005  0.74427848  1
  Mg  Mg48  1  0.66959274  0.24964251  0.75363462  1
  Mg  Mg49  1  0.33337844  0.74898998  0.75083829  1
  Mg  Mg50  1  -0.00088735  0.74767378  0.24850441  1
  Mg  Mg51  1  0.33358977  0.24733004  0.74997520  1
  Mg  Mg52  1  0.66695700  0.25234760  0.25180324  1
  Mg  Mg53  1  0.33552186  0.91825713  0.75432746  1
  Mg  Mg54  1  0.00091623  0.08593125  0.74480297  1
  Mg  Mg55  1  0.49850547  0.16346450  0.75409794  1
  Mg  Mg56  1  0.50042627  0.83502008  0.75630980  1
  Mg  Mg57  1  0.33365342  0.58264405  0.24596037  1
  Mg  Mg58  1  0.67243715  0.41722811  0.75107195  1
  Mg  Mg59  1  0.83456186  0.66387748  0.25336947  1
  Mg  Mg60  1  0.83607491  0.16576607  0.24775015  1
  Mg  Mg61  1  0.50213703  0.66442989  0.74930636  1
  Mg  Mg62  1  0.50002497  0.83390058  0.25459690  1
  Mg  Mg63  1  0.49878214  0.33680089  0.24955137  1
  Mg  Mg64  1  0.16503075  0.33574153  0.74516485  1
  Mg  Mg65  1  0.33306475  0.41815659  0.24692278  1
  Mg  Mg66  1  0.33304635  0.41561002  0.74763357  1
  Mg  Mg67  1  0.66959289  0.91421096  0.25493408  1
  Mg  Mg68  1  -0.00141557  0.91518941  0.24525276  1
  Mg  Mg69  1  0.66492222  0.58123414  0.25245135  1
  Mg  Mg70  1  0.16282080  0.66452271  0.24845363  1
  Mg  Mg71  1  0.66692542  0.91564980  0.75354922  1
  Mg  Mg72  1  0.50004359  0.66238815  0.24996945  1
  Mg  Mg73  1  -0.00211120  0.41880408  0.24782438  1
  Mg  Mg74  1  -0.00460145  0.58314154  0.75193802  1
  Mg  Mg75  1  0.32976576  0.08518654  0.24865260  1
  Mg  Mg76  1  0.16850478  0.16593657  0.74871894  1
  Mg  Mg77  1  0.16397607  0.66511656  0.74806364  1
  Mg  Mg78  1  -0.00297541  0.42010785  0.74834053  1
  Mg  Mg79  1  0.66545833  0.41813046  0.25077621  1
  Mg  Mg80  1  0.83507663  0.33602582  0.75191490  1
  Mg  Mg81  1  0.33292373  0.91666171  0.24976815  1
  Mg  Mg82  1  -0.00098105  0.91822758  0.74786632  1
  Mg  Mg83  1  0.16725882  0.83532185  0.74967637  1
  Mg  Mg84  1  0.83403391  0.33564736  0.25144902  1
  Mg  Mg85  1  0.49971012  0.16659821  0.25281646  1
  Mg  Mg86  1  0.66731395  0.08355282  0.75430250  1
  Mg  Mg87  1  0.66946959  0.08440261  0.25397366  1
  Mg  Mg88  1  0.16534060  0.83466471  0.24543851  1
  Mg  Mg89  1  0.50111075  0.33265252  0.74953337  1
  Mg  Mg90  1  0.66789255  0.58118238  0.74894993  1
  Mg  Mg91  1  0.33183290  0.58201698  0.74533681  1
  Mg  Mg92  1  0.00265798  0.08518075  0.24278291  1
  Mg  Mg93  1  0.83405041  0.83486302  0.25081997  1
  Mg  Mg94  1  0.16377168  0.33308507  0.24506990  1
  Mg  Mg95  1  0.83334585  0.83539493  0.74988472  1
  Fe  Fe96  1  0.19346525  0.91665215  0.10738426  1
  Fe  Fe97  1  0.52561066  0.57858181  0.60890002  1
  Fe  Fe98  1  0.02528093  0.17302073  0.10520121  1
  Fe  Fe99  1  0.81412394  0.41303457  0.39193972  1
  Fe  Fe100  1  0.46803287  0.91614807  0.39306807  1
  Fe  Fe101  1  0.47359205  0.91195616  0.89751574  1
  Fe  Fe102  1  0.52269657  0.57868810  0.10993371  1
  Fe  Fe103  1  0.19810767  0.41628148  0.60588658  1
  Fe  Fe104  1  0.19424154  0.08353665  0.60947755  1
  Fe  Fe105  1  0.81344424  0.57905179  0.89165572  1
  Fe  Fe106  1  0.85641951  0.91634111  0.60973769  1
  Fe  Fe107  1  0.81548626  0.58690683  0.39452294  1
  Fe  Fe108  1  0.02012860  0.16973707  0.60485786  1
  Fe  Fe109  1  0.47311402  0.08665882  0.89548282  1
  Fe  Fe110  1  0.85799302  0.91278299  0.10695291  1
  Fe  Fe111  1  0.81059503  0.91661518  0.39232986  1
  Fe  Fe112  1  0.85641126  0.42488546  0.61369965  1
  Si  Si113  1  0.02140685  0.66040863  0.11466905  1
  Si  Si114  1  0.69354162  0.32992009  0.61475062  1
  Si  Si115  1  0.19345442  0.41860188  0.11214142  1
  Si  Si116  1  0.30305998  0.17619670  0.89035351  1
  Si  Si117  1  0.36503397  0.83625099  0.11328505  1
  Si  Si118  1  0.02324997  0.33923814  0.60851548  1
  Si  Si119  1  0.69048591  0.82859921  0.11502369  1
  Si  Si120  1  0.85478062  0.58514090  0.11744561  1
  Si  Si121  1  0.47278931  0.58402131  0.88358571  1
  Si  Si122  1  0.64297578  0.17067518  0.38689386  1
  Si  Si123  1  0.97968995  0.32628336  0.38367005  1
  Si  Si124  1  0.13782612  0.91741761  0.38146464  1
  Si  Si125  1  0.47475847  0.41707586  0.88444738  1
  Si  Si126  1  0.85206265  0.08195568  0.60913491  1
  Si  Si127  1  0.47541424  0.08845578  0.38970389  1
  Si  Si128  1  0.68846391  0.66876643  0.61444505  1
  Si  Si129  1  0.35740154  0.67122217  0.61113068  1
  Si  Si130  1  0.64715910  0.16788655  0.89154965  1
  Si  Si131  1  0.97976355  0.16175241  0.88405686  1
  Si  Si132  1  0.85362909  0.08330287  0.10815878  1
  Si  Si133  1  0.52657869  0.91895845  0.61896044  1
  Si  Si134  1  0.13463980  0.41620090  0.88453701  1
  Si  Si135  1  0.85311905  0.42143928  0.11417822  1
  Si  Si136  1  0.19350574  0.91273208  0.61427467  1
  Si  Si137  1  0.97681166  0.32643860  0.88646420  1
  Si  Si138  1  0.81206834  0.41034758  0.89051204  1
  Si  Si139  1  0.13703676  0.58267024  0.88523532  1
  Si  Si140  1  0.52856880  0.08286229  0.11896376  1
  Si  Si141  1  0.63557087  0.33697579  0.38745774  1
  Si  Si142  1  0.52142169  0.40913578  0.11082254  1
  Si  Si143  1  0.53084607  0.08307099  0.61799578  1
  Si  Si144  1  0.64286543  0.33468710  0.88721579  1
  Si  Si145  1  0.30122584  0.82511304  0.88882442  1
  Si  Si146  1  0.29878858  0.82971709  0.38688759  1
  Si  Si147  1  0.98331598  0.67355572  0.89071326  1
  Si  Si148  1  0.68675087  0.83122300  0.61492821  1
  Si  Si149  1  0.53211265  0.91660087  0.11951303  1
  Si  Si150  1  0.64678388  0.82997677  0.89096878  1
  Si  Si151  1  0.35453344  0.67030987  0.11058953  1
  Si  Si152  1  0.80960422  0.91716159  0.88691124  1
  Si  Si153  1  0.63809369  0.66200088  0.38931693  1
  Si  Si154  1  0.19428415  0.08589887  0.10799487  1
  Si  Si155  1  0.98189954  0.16457534  0.38114508  1
  Si  Si156  1  0.46848543  0.58315615  0.38334679  1
  Si  Si157  1  0.30333611  0.65895006  0.88397512  1
  Si  Si158  1  0.14444394  0.08001019  0.37959137  1
  Si  Si159  1  0.36620705  0.32790397  0.61242001  1
  Si  Si160  1  0.69202037  0.16771347  0.11594437  1
  Si  Si161  1  0.85555445  0.59141879  0.61529845  1
  Si  Si162  1  0.30316797  0.33522620  0.38285957  1
  Si  Si163  1  0.36156954  0.16298232  0.11485170  1
  Si  Si164  1  0.98021920  0.83320129  0.38573307  1
  Si  Si165  1  0.68908143  0.16656862  0.61778779  1
  Si  Si166  1  0.36189489  0.83605964  0.61779201  1
  Si  Si167  1  0.02817683  0.82511901  0.10807239  1
  Si  Si168  1  0.30369671  0.66361716  0.38389622  1
  Si  Si169  1  0.69026474  0.66525276  0.11451129  1
  Si  Si170  1  0.30653021  0.16950567  0.38261353  1
  Si  Si171  1  0.13937288  0.58145009  0.38318317  1
  Si  Si172  1  0.30465788  0.34033480  0.88604921  1
  Si  Si173  1  0.14402398  0.08320215  0.88625221  1
  Si  Si174  1  0.64194636  0.66326205  0.88918741  1
  Si  Si175  1  0.46767565  0.41705597  0.38277115  1
  Si  Si176  1  0.98162676  0.67306804  0.38688821  1
  Si  Si177  1  0.52821200  0.40945360  0.61375865  1
  Si  Si178  1  0.69029070  0.33268488  0.11387280  1
  Si  Si179  1  0.19067362  0.58445953  0.11255379  1
  Si  Si180  1  0.81052107  0.08176495  0.88591549  1
  Si  Si181  1  0.02143814  0.66894144  0.61432815  1
  Si  Si182  1  0.97838782  0.83866906  0.88697698  1
  Si  Si183  1  0.35581021  0.32798914  0.11323925  1
  Si  Si184  1  0.13800266  0.41671955  0.38222395  1
  Si  Si185  1  0.81346552  0.09020280  0.38712087  1
  Si  Si186  1  0.19021686  0.59129633  0.60986903  1
  Si  Si187  1  0.63797590  0.82850286  0.39175624  1
  Si  Si188  1  0.02950310  0.83357776  0.61378047  1
  Si  Si189  1  0.02000389  0.34402539  0.10843854  1
  Si  Si190  1  0.14220937  0.91891289  0.88468652  1
  Si  Si191  1  0.36617930  0.16406539  0.61432788  1
  O  O192  1  0.28574941  0.10885061  0.08385198  1
  O  O193  1  0.29500703  0.10946994  0.57814977  1
  O  O194  1  0.26190428  0.63083217  0.08258985  1
  O  O195  1  0.26526597  0.63524163  0.57988884  1
  O  O196  1  0.60824950  0.11767964  0.08916548  1
  O  O197  1  0.61250361  0.11036192  0.58581191  1
  O  O198  1  0.61894433  0.61097985  0.07715720  1
  O  O199  1  0.61931978  0.61311253  0.57491453  1
  O  O200  1  0.93017337  0.11402051  0.07369200  1
  O  O201  1  0.92786943  0.10822657  0.57214374  1
  O  O202  1  0.93852162  0.61018021  0.08674858  1
  O  O203  1  0.93807028  0.62225058  0.58337287  1
  O  O204  1  0.10178665  0.38281022  0.08157006  1
  O  O205  1  0.10821075  0.35437778  0.57588703  1
  O  O206  1  0.11370412  0.84398964  0.07928161  1
  O  O207  1  0.12005779  0.85155245  0.58915835  1
  O  O208  1  0.43835926  0.35585480  0.08350650  1
  O  O209  1  0.45728970  0.34646934  0.58917532  1
  O  O210  1  0.45429943  0.86233569  0.09048519  1
  O  O211  1  0.44172897  0.87205837  0.58926749  1
  O  O212  1  0.77058950  0.36953551  0.08536987  1
  O  O213  1  0.77169586  0.35484838  0.58099156  1
  O  O214  1  0.76816423  0.84878228  0.07841896  1
  O  O215  1  0.76539735  0.85353943  0.58020410  1
  O  O216  1  0.27005470  0.37539044  0.08344942  1
  O  O217  1  0.29553628  0.38186690  0.57389879  1
  O  O218  1  0.29366065  0.89051434  0.07705955  1
  O  O219  1  0.27848402  0.88298288  0.58670752  1
  O  O220  1  0.60321043  0.37459998  0.08129608  1
  O  O221  1  0.61218848  0.38185265  0.58533099  1
  O  O222  1  0.61287723  0.88660731  0.08904115  1
  O  O223  1  0.60524636  0.88535178  0.58778982  1
  O  O224  1  0.93641905  0.39639731  0.08322319  1
  O  O225  1  0.95608778  0.40320334  0.58247806  1
  O  O226  1  0.95231998  0.87757443  0.07346047  1
  O  O227  1  0.95727712  0.88881744  0.57976343  1
  O  O228  1  0.12666363  0.14712461  0.07697012  1
  O  O229  1  0.11051558  0.14256026  0.56494921  1
  O  O230  1  0.09889725  0.62127498  0.08351031  1
  O  O231  1  0.10251083  0.63779990  0.58357875  1
  O  O232  1  0.44706496  0.13372351  0.08882825  1
  O  O233  1  0.45464417  0.13855058  0.58811159  1
  O  O234  1  0.42424785  0.63289051  0.07415532  1
  O  O235  1  0.42877676  0.63498230  0.57537575  1
  O  O236  1  0.77143853  0.13849169  0.08453582  1
  O  O237  1  0.77414187  0.14251041  0.59043529  1
  O  O238  1  0.77947161  0.64263954  0.08845194  1
  O  O239  1  0.78134596  0.65392934  0.59325827  1
  O  O240  1  0.06082900  0.10943864  0.40829854  1
  O  O241  1  0.06274538  0.11356710  0.91738070  1
  O  O242  1  0.06226584  0.61782324  0.41390319  1
  O  O243  1  0.07348453  0.63130472  0.92236676  1
  O  O244  1  0.39706988  0.13186170  0.41583919  1
  O  O245  1  0.38973865  0.14152316  0.92897007  1
  O  O246  1  0.38869246  0.61746486  0.41448567  1
  O  O247  1  0.39404853  0.62026214  0.91390418  1
  O  O248  1  0.73237091  0.12947651  0.41430150  1
  O  O249  1  0.73989947  0.12819901  0.91772368  1
  O  O250  1  0.71361013  0.61114679  0.42446692  1
  O  O251  1  0.71811498  0.61403089  0.92633920  1
  O  O252  1  0.22415941  0.37130554  0.41189071  1
  O  O253  1  0.23111785  0.38651946  0.91535624  1
  O  O254  1  0.21142898  0.85862239  0.41073660  1
  O  O255  1  0.22015790  0.86467609  0.91440016  1
  O  O256  1  0.54917209  0.36669277  0.41302900  1
  O  O257  1  0.56195445  0.37262373  0.91538877  1
  O  O258  1  0.55574798  0.85238385  0.42317424  1
  O  O259  1  0.57626720  0.86297555  0.92923134  1
  O  O260  1  0.89900631  0.34216724  0.41759100  1
  O  O261  1  0.89514283  0.35665122  0.91681924  1
  O  O262  1  0.90042929  0.85207701  0.42044137  1
  O  O263  1  0.89843141  0.87473285  0.91556114  1
  O  O264  1  0.05969612  0.38081063  0.41142337  1
  O  O265  1  0.06408977  0.37125619  0.91907719  1
  O  O266  1  0.05461385  0.89370032  0.41206118  1
  O  O267  1  0.05996999  0.89036997  0.91539981  1
  O  O268  1  0.38775613  0.38215263  0.41337621  1
  O  O269  1  0.39638714  0.38036048  0.91552279  1
  O  O270  1  0.37395681  0.87892638  0.42568270  1
  O  O271  1  0.38723808  0.85850513  0.92855416  1
  O  O272  1  0.71311112  0.38513656  0.42215164  1
  O  O273  1  0.72910544  0.37713725  0.92049659  1
  O  O274  1  0.71638560  0.87964347  0.42366189  1
  O  O275  1  0.73603249  0.87444302  0.91745034  1
  O  O276  1  0.22787096  0.12958621  0.41006503  1
  O  O277  1  0.22359365  0.13497433  0.91775987  1
  O  O278  1  0.22635754  0.62581584  0.41440408  1
  O  O279  1  0.23412359  0.61064165  0.91511116  1
  O  O280  1  0.56341515  0.13474020  0.41585487  1
  O  O281  1  0.57902206  0.13178746  0.93014599  1
  O  O282  1  0.55015461  0.63272490  0.41370320  1
  O  O283  1  0.55478838  0.63300179  0.91442734  1
  O  O284  1  0.89739038  0.14184032  0.41143221  1
  O  O285  1  0.90034823  0.12367895  0.91257081  1
  O  O286  1  0.90368289  0.65480027  0.42385124  1
  O  O287  1  0.90926472  0.63870125  0.92453572  1
  O  O288  1  0.16403348  0.00901541  0.07342914  1
  O  O289  1  0.16693033  -0.01241986  0.57746455  1
  O  O290  1  0.19232094  0.50167534  0.08307852  1
  O  O291  1  0.17987967  0.51316230  0.57503881  1
  O  O292  1  0.51267051  -0.00014718  0.09204084  1
  O  O293  1  0.50907051  0.00096722  0.58898400  1
  O  O294  1  0.49819766  0.48506733  0.07438679  1
  O  O295  1  0.49685077  0.48445327  0.57748612  1
  O  O296  1  0.82327280  0.00550340  0.07668328  1
  O  O297  1  0.81384105  0.00577028  0.57728244  1
  O  O298  1  0.82875305  0.50363762  0.08707012  1
  O  O299  1  0.82283388  0.51701953  0.57838565  1
  O  O300  1  0.00123271  0.26809544  0.07106637  1
  O  O301  1  -0.01632447  0.26268909  0.57874291  1
  O  O302  1  0.00304811  0.74077294  0.08256500  1
  O  O303  1  0.00524062  0.75146085  0.58578318  1
  O  O304  1  0.33905486  0.24496161  0.08556781  1
  O  O305  1  0.34492302  0.24573380  0.58329956  1
  O  O306  1  0.34309446  0.75423578  0.08397998  1
  O  O307  1  0.34772010  0.75575075  0.58512576  1
  O  O308  1  0.67498125  0.24964462  0.08560581  1
  O  O309  1  0.66312969  0.24736234  0.58778429  1
  O  O310  1  0.66008011  0.74721571  0.08815066  1
  O  O311  1  0.65620906  0.75043340  0.58762753  1
  O  O312  1  0.16580748  -0.00164490  0.41050850  1
  O  O313  1  0.16398577  0.00032922  0.91465245  1
  O  O314  1  0.15229851  0.49872673  0.41210071  1
  O  O315  1  0.13262405  0.49947713  0.91288697  1
  O  O316  1  0.48748590  0.01136764  0.42607948  1
  O  O317  1  0.48058550  -0.00049506  0.94038357  1
  O  O318  1  0.48151740  0.49978847  0.41170735  1
  O  O319  1  0.48573341  0.50065408  0.91270252  1
  O  O320  1  0.83143210  0.01285486  0.42187562  1
  O  O321  1  0.81814502  -0.00042989  0.91819054  1
  O  O322  1  0.85560325  0.49895946  0.42793638  1
  O  O323  1  0.83515545  0.48553144  0.92911955  1
  O  O324  1  0.31327527  0.25263473  0.41210239  1
  O  O325  1  0.30303666  0.26049946  0.91987235  1
  O  O326  1  0.31262844  0.74557698  0.41431683  1
  O  O327  1  0.29825361  0.74008695  0.91432475  1
  O  O328  1  0.64917651  0.25305516  0.41551932  1
  O  O329  1  0.65601345  0.25285910  0.91776593  1
  O  O330  1  0.65708956  0.74450533  0.41739959  1
  O  O331  1  0.66144027  0.74615093  0.91719632  1
  O  O332  1  1.01439499  0.24462968  0.40748784  1
  O  O333  1  0.99208858  0.24358392  0.91625786  1
  O  O334  1  1.01987178  0.75390770  0.41154318  1
  O  O335  1  0.99800712  0.75818506  0.91894550  1
  O  O336  1  0.21350606  0.08153442  0.18890698  1
  O  O337  1  0.21299692  0.08390452  0.70092230  1
  O  O338  1  0.20864071  0.58353763  0.19287671  1
  O  O339  1  0.21348347  0.59272124  0.68992498  1
  O  O340  1  0.54515897  0.08438034  0.19954952  1
  O  O341  1  0.54639515  0.08181928  0.69819031  1
  O  O342  1  0.54475280  0.58427629  0.20023269  1
  O  O343  1  0.54297321  0.58217484  0.70051818  1
  O  O344  1  0.87374197  0.08382045  0.19008464  1
  O  O345  1  0.88021706  0.07617236  0.68934061  1
  O  O346  1  0.87353756  0.58299600  0.19683478  1
  O  O347  1  0.88232643  0.58405399  0.69383765  1
  O  O348  1  0.04077283  0.33823164  0.18924741  1
  O  O349  1  0.04431656  0.33677621  0.69085651  1
  O  O350  1  0.04264345  0.82933345  0.18992781  1
  O  O351  1  0.04554100  0.83466015  0.69506822  1
  O  O352  1  0.37436348  0.33231043  0.19352387  1
  O  O353  1  0.37957059  0.33091880  0.69377012  1
  O  O354  1  0.37700349  0.83327771  0.19430587  1
  O  O355  1  0.37730419  0.83209674  0.69802605  1
  O  O356  1  0.70756388  0.33209837  0.19415376  1
  O  O357  1  0.70906383  0.33134789  0.69574786  1
  O  O358  1  0.70792973  0.83088077  0.19606925  1
  O  O359  1  0.70644196  0.83424887  0.69607816  1
  O  O360  1  0.20979556  0.41766274  0.19242256  1
  O  O361  1  0.21896830  0.41016712  0.69608615  1
  O  O362  1  0.21356853  0.91619148  0.19968256  1
  O  O363  1  0.21264454  0.91489373  0.69550131  1
  O  O364  1  0.54327603  0.40944349  0.19099168  1
  O  O365  1  0.54475285  0.41353875  0.69493874  1
  O  O366  1  0.54793839  0.91718918  0.20000164  1
  O  O367  1  0.54501875  0.91681209  0.69916756  1
  O  O368  1  0.87473653  0.41700075  0.19410157  1
  O  O369  1  0.87609982  0.41826799  0.70403576  1
  O  O370  1  0.87881761  0.91509694  0.19863692  1
  O  O371  1  0.87778522  0.91731434  0.70157346  1
  O  O372  1  0.04116501  0.16924492  0.19559918  1
  O  O373  1  0.04696698  0.16678538  0.69739593  1
  O  O374  1  0.04409442  0.66568715  0.19413030  1
  O  O375  1  0.04259815  0.66878648  0.69482157  1
  O  O376  1  0.37871406  0.16638281  0.19544233  1
  O  O377  1  0.38159594  0.16947192  0.69442771  1
  O  O378  1  0.37321546  0.66711845  0.19165483  1
  O  O379  1  0.37656857  0.66782491  0.69237751  1
  O  O380  1  0.70931835  0.16773737  0.19655816  1
  O  O381  1  0.69830526  0.16589799  0.69710682  1
  O  O382  1  0.70748779  0.66618656  0.19538913  1
  O  O383  1  0.69532475  0.66809742  0.69414974  1
  O  O384  1  0.12467702  0.07905690  0.30007373  1
  O  O385  1  0.12557299  0.08252652  0.80651544  1
  O  O386  1  0.12649866  0.58238748  0.30349247  1
  O  O387  1  0.11976388  0.59083705  0.80642245  1
  O  O388  1  0.45764161  0.08578534  0.30851992  1
  O  O389  1  0.45798969  0.08349434  0.80443064  1
  O  O390  1  0.44859904  0.58555847  0.30373446  1
  O  O391  1  0.45467045  0.58353927  0.80351713  1
  O  O392  1  0.79211838  0.08680066  0.30570872  1
  O  O393  1  0.78740979  0.07673754  0.80685623  1
  O  O394  1  0.78758596  0.58412396  0.30205679  1
  O  O395  1  0.78202468  0.57492990  0.80456910  1
  O  O396  1  0.28786294  0.33545782  0.30240953  1
  O  O397  1  0.29202456  0.33575921  0.80639559  1
  O  O398  1  0.28890153  0.83055768  0.30614105  1
  O  O399  1  0.28929385  0.82914875  0.80798718  1
  O  O400  1  0.62021306  0.33371295  0.30614112  1
  O  O401  1  0.62333057  0.33422144  0.80699521  1
  O  O402  1  0.62240399  0.83149083  0.30969834  1
  O  O403  1  0.62420995  0.83344821  0.80994581  1
  O  O404  1  0.95933181  0.33196605  0.30238136  1
  O  O405  1  0.96028930  0.33018105  0.80690199  1
  O  O406  1  0.96050296  0.83321600  0.30456098  1
  O  O407  1  0.96057854  0.83613178  0.80698597  1
  O  O408  1  0.12287298  0.41696528  0.30168563  1
  O  O409  1  0.11723117  0.40941477  0.80588401  1
  O  O410  1  0.12067105  0.91649886  0.30100586  1
  O  O411  1  0.12345193  0.91717587  0.80441391  1
  O  O412  1  0.45025679  0.41449247  0.30285452  1
  O  O413  1  0.45781679  0.41530203  0.80419898  1
  O  O414  1  0.45288831  0.91686225  0.30108292  1
  O  O415  1  0.45558005  0.91460215  0.80515211  1
  O  O416  1  0.78747169  0.41493738  0.29932743  1
  O  O417  1  0.78777991  0.41067395  0.81106836  1
  O  O418  1  0.78911993  0.91748356  0.30044163  1
  O  O419  1  0.78977646  0.91832080  0.80682270  1
  O  O420  1  0.29384982  0.16851863  0.30294282  1
  O  O421  1  0.28815736  0.17541311  0.81056804  1
  O  O422  1  0.28741584  0.66467199  0.30333259  1
  O  O423  1  0.28882220  0.66295139  0.80376722  1
  O  O424  1  0.62378080  0.16859587  0.30602736  1
  O  O425  1  0.62553373  0.16613576  0.81086385  1
  O  O426  1  0.62183754  0.66508939  0.30821415  1
  O  O427  1  0.62352515  0.66567836  0.80845771  1
  O  O428  1  0.95760216  0.16490475  0.30079057  1
  O  O429  1  0.96768606  0.16548805  0.80529473  1
  O  O430  1  0.95802564  0.67040882  0.30666135  1
  O  O431  1  0.96953437  0.67189739  0.81109847  1
  F  F432  1  0.04475271  -0.00153816  0.19647583  1
  F  F433  1  0.04932573  -0.00052311  0.70255605  1
  F  F434  1  0.04691199  0.49622799  0.19714313  1
  F  F435  1  0.03438448  0.50350852  0.69928789  1
  F  F436  1  0.38155088  0.00376559  0.20289081  1
  F  F437  1  0.38068821  -0.00700464  0.70043589  1
  F  F438  1  0.36876133  0.49953903  0.19567995  1
  F  F439  1  0.38083206  0.49944566  0.69908982  1
  F  F440  1  0.70867597  0.00277284  0.20357716  1
  F  F441  1  0.70920830  -0.00073761  0.70413769  1
  F  F442  1  0.70949382  0.49892599  0.19985487  1
  F  F443  1  0.70129300  0.49745389  0.69843538  1
  F  F444  1  0.21463982  0.25730449  0.19600806  1
  F  F445  1  0.21498047  0.24996835  0.70185151  1
  F  F446  1  0.21218898  0.74761908  0.20079356  1
  F  F447  1  0.21325553  0.75059963  0.70289116  1
  F  F448  1  0.54468316  0.24924863  0.20347527  1
  F  F449  1  0.54708212  0.24764018  0.70772125  1
  F  F450  1  0.54422745  0.75042458  0.20597243  1
  F  F451  1  0.54394809  0.75264153  0.70695160  1
  F  F452  1  0.87676978  0.25178646  0.20079281  1
  F  F453  1  0.88266334  0.26040985  0.69976325  1
  F  F454  1  0.87756685  0.74888200  0.20326517  1
  F  F455  1  0.88380470  0.76021299  0.70151643  1
  F  F456  1  0.28892298  0.00285095  0.29816147  1
  F  F457  1  0.28578950  -0.00901776  0.80552282  1
  F  F458  1  0.28508392  0.50018139  0.29553534  1
  F  F459  1  0.30306286  0.50113831  0.80074637  1
  F  F460  1  0.62282306  0.00201223  0.30230855  1
  F  F461  1  0.62199901  -0.00111632  0.80215628  1
  F  F462  1  0.62170781  0.49650812  0.29939854  1
  F  F463  1  0.61875510  0.49516917  0.80104903  1
  F  F464  1  0.95732531  0.00321182  0.29378233  1
  F  F465  1  0.95755995  0.00308904  0.79859391  1
  F  F466  1  0.95535027  0.49616060  0.29810105  1
  F  F467  1  0.96687542  0.50172890  0.80741522  1
  F  F468  1  0.12112962  0.25741188  0.29610577  1
  F  F469  1  0.12355931  0.25269152  0.79597212  1
  F  F470  1  0.12245563  0.75010885  0.29495243  1
  F  F471  1  0.12353605  0.75180129  0.79710677  1
  F  F472  1  0.45258269  0.25152772  0.29734142  1
  F  F473  1  0.45519474  0.25169703  0.80079049  1
  F  F474  1  0.45106237  0.74775770  0.29757239  1
  F  F475  1  0.45330316  0.74660681  0.80007919  1
  F  F476  1  0.78816399  0.24915450  0.29682113  1
  F  F477  1  0.78522916  0.25705019  0.80368939  1
  F  F478  1  0.78767481  0.75007668  0.29826719  1
  F  F479  1  0.78415258  0.76220182  0.80338712  1
