# generated using pymatgen
data_K24Na3Li5Mg64Fe17Si79(O5F)48
_symmetry_space_group_name_H-M   'P 1'
_cell_length_a   16.09629221
_cell_length_b   18.58680430
_cell_length_c   20.56877537
_cell_angle_alpha   90.01125761
_cell_angle_beta   99.98788113
_cell_angle_gamma   89.98360040
_symmetry_Int_Tables_number   1
_chemical_formula_structural   K24Na3Li5Mg64Fe17Si79(O5F)48
_chemical_formula_sum   'K24 Na3 Li5 Mg64 Fe17 Si79 O240 F48'
_cell_volume   6060.47456287
_cell_formula_units_Z   1
loop_
 _symmetry_equiv_pos_site_id
 _symmetry_equiv_pos_as_xyz
  1  'x, y, z'
loop_
 _atom_site_type_symbol
 _atom_site_label
 _atom_site_symmetry_multiplicity
 _atom_site_fract_x
 _atom_site_fract_y
 _atom_site_fract_z
 _atom_site_occupancy
  K  K0  1  -0.00261353  -0.01273069  -0.00200345  1
  K  K1  1  0.00563585  -0.00770045  0.50155477  1
  K  K2  1  -0.00322771  0.50543989  -0.00178399  1
  K  K3  1  -0.00177538  0.50809887  0.50229410  1
  K  K4  1  0.34366265  -0.01371986  -0.00408440  1
  K  K5  1  0.32057695  -0.00974274  0.49856287  1
  K  K6  1  0.34058105  0.51100877  -0.00875476  1
  K  K7  1  0.33923245  0.49931803  0.49946553  1
  K  K8  1  0.64983094  -0.00118532  -0.00284409  1
  K  K9  1  0.67455061  -0.00389424  0.49992410  1
  K  K10  1  0.64649463  0.50477417  -0.00596321  1
  K  K11  1  0.66169147  0.50927399  0.50186651  1
  K  K12  1  0.17278635  0.25032414  -0.00395601  1
  K  K13  1  0.17468634  0.24643954  0.50131875  1
  K  K14  1  0.16276299  0.76018774  -0.00687442  1
  K  K15  1  0.17718598  0.75457955  0.50149109  1
  K  K16  1  0.51503065  0.25885740  0.00116019  1
  K  K17  1  0.49533766  0.25725218  0.49798061  1
  K  K18  1  0.49581667  0.74914039  -0.00243425  1
  K  K19  1  0.50701056  0.75486854  0.49877551  1
  K  K20  1  0.82075915  0.24497502  0.00080430  1
  K  K21  1  0.82547707  0.24735439  0.49675713  1
  K  K22  1  0.83506584  0.74829827  -0.00357235  1
  K  K23  1  0.82243903  0.74544598  0.50055820  1
  Na  Na24  1  0.17013434  0.49901447  0.75116712  1
  Na  Na25  1  0.66471401  0.42473716  0.75235279  1
  Na  Na26  1  0.33647010  0.58075937  0.25148227  1
  Li  Li27  1  -0.00215935  0.75050064  0.74998394  1
  Li  Li28  1  0.16728770  -0.00261813  0.25094567  1
  Li  Li29  1  0.66429114  0.58185920  0.75081764  1
  Li  Li30  1  0.16637543  0.16928249  0.74763104  1
  Li  Li31  1  0.33258148  0.42164790  0.75209171  1
  Mg  Mg32  1  0.49993605  -0.00225277  0.24813952  1
  Mg  Mg33  1  0.83279582  -0.00035291  0.25286626  1
  Mg  Mg34  1  0.82972390  0.50122047  0.74878732  1
  Mg  Mg35  1  0.49691324  0.00056174  0.75074530  1
  Mg  Mg36  1  0.49715569  0.50192224  0.75262647  1
  Mg  Mg37  1  0.33200546  0.74858433  0.74951483  1
  Mg  Mg38  1  0.00141418  0.24909265  0.25160452  1
  Mg  Mg39  1  0.00222137  0.74985666  0.25248820  1
  Mg  Mg40  1  0.16583629  0.00239072  0.74720555  1
  Mg  Mg41  1  0.33316753  0.24816925  0.25247392  1
  Mg  Mg42  1  0.50327870  0.50024164  0.24905115  1
  Mg  Mg43  1  0.66622518  0.74985195  0.24972998  1
  Mg  Mg44  1  0.17012334  0.49801498  0.25336669  1
  Mg  Mg45  1  0.83397479  -0.00155560  0.74908273  1
  Mg  Mg46  1  0.66319448  0.25148470  0.75190853  1
  Mg  Mg47  1  0.00200300  0.25105700  0.74983945  1
  Mg  Mg48  1  0.33422071  0.75115846  0.24978350  1
  Mg  Mg49  1  0.66824920  0.25086275  0.24834325  1
  Mg  Mg50  1  0.66845373  0.74893273  0.74860307  1
  Mg  Mg51  1  0.32847211  0.25386682  0.74860344  1
  Mg  Mg52  1  0.83336134  0.50036785  0.25057768  1
  Mg  Mg53  1  0.49975738  0.16488510  0.25029204  1
  Mg  Mg54  1  0.50077684  0.66504280  0.24899482  1
  Mg  Mg55  1  0.66501802  0.08484255  0.75128527  1
  Mg  Mg56  1  0.83250849  0.33381543  0.24798629  1
  Mg  Mg57  1  0.83410190  0.16425203  0.25128965  1
  Mg  Mg58  1  0.83342063  0.66476104  0.25137681  1
  Mg  Mg59  1  0.33673920  0.41277092  0.25401159  1
  Mg  Mg60  1  0.83492443  0.83102260  0.74623461  1
  Mg  Mg61  1  0.49955865  0.83453134  0.74808561  1
  Mg  Mg62  1  0.33133361  0.91617966  0.74842128  1
  Mg  Mg63  1  0.83074122  0.33432097  0.75080478  1
  Mg  Mg64  1  0.00139952  0.41572102  0.25033298  1
  Mg  Mg65  1  0.83275394  0.66575573  0.74967951  1
  Mg  Mg66  1  0.50096388  0.33483273  0.24950573  1
  Mg  Mg67  1  0.17006738  0.83622304  0.25131250  1
  Mg  Mg68  1  0.00162105  0.08605451  0.74741098  1
  Mg  Mg69  1  0.66715005  0.91484678  0.74928615  1
  Mg  Mg70  1  0.16812821  0.33308850  0.74898426  1
  Mg  Mg71  1  -0.00071064  0.58428402  0.74993551  1
  Mg  Mg72  1  0.33295429  0.58130434  0.75167097  1
  Mg  Mg73  1  0.00267821  0.08159002  0.25190137  1
  Mg  Mg74  1  0.66669690  0.58494660  0.24955525  1
  Mg  Mg75  1  0.50397895  0.66428108  0.75055773  1
  Mg  Mg76  1  0.00268498  0.58393624  0.25185194  1
  Mg  Mg77  1  0.49905998  0.16808090  0.75278647  1
  Mg  Mg78  1  0.33016286  0.08055084  0.25147445  1
  Mg  Mg79  1  -0.00032759  0.41722010  0.74902764  1
  Mg  Mg80  1  0.83399750  0.83439475  0.25073563  1
  Mg  Mg81  1  0.17106779  0.66587574  0.25184273  1
  Mg  Mg82  1  0.33107269  0.91562478  0.25047705  1
  Mg  Mg83  1  0.16751246  0.16316160  0.25327919  1
  Mg  Mg84  1  0.49890258  0.83452452  0.25003775  1
  Mg  Mg85  1  0.49694837  0.33703081  0.75174168  1
  Mg  Mg86  1  0.66643179  0.41507893  0.24724190  1
  Mg  Mg87  1  -0.00052069  0.91346805  0.74567183  1
  Mg  Mg88  1  0.83208000  0.16622313  0.75059332  1
  Mg  Mg89  1  0.66739372  0.91560797  0.25047441  1
  Mg  Mg90  1  0.00347593  0.91669268  0.25250199  1
  Mg  Mg91  1  0.16328286  0.83439683  0.74865181  1
  Mg  Mg92  1  0.16272893  0.66719067  0.75047100  1
  Mg  Mg93  1  0.32906754  0.08703013  0.74974861  1
  Mg  Mg94  1  0.17095215  0.33267056  0.25406037  1
  Mg  Mg95  1  0.66865301  0.08388790  0.25063831  1
  Fe  Fe96  1  0.63873053  0.66797330  0.39157178  1
  Fe  Fe97  1  0.51991939  0.41643423  0.10743106  1
  Fe  Fe98  1  0.81223710  0.57988591  0.39198843  1
  Fe  Fe99  1  0.31014100  0.32992498  0.39358960  1
  Fe  Fe100  1  0.81399543  0.08784373  0.39306510  1
  Fe  Fe101  1  0.30949250  0.83258616  0.39247063  1
  Fe  Fe102  1  0.19094292  0.91612288  0.60848415  1
  Fe  Fe103  1  0.51959848  0.59110132  0.10752125  1
  Fe  Fe104  1  0.64128363  0.16807138  0.89073944  1
  Fe  Fe105  1  0.69905643  0.33477263  0.10700697  1
  Fe  Fe106  1  0.47629392  0.58894628  0.88992742  1
  Fe  Fe107  1  0.97432124  0.82993671  0.88602388  1
  Fe  Fe108  1  0.34924245  0.83243582  0.10864894  1
  Fe  Fe109  1  0.69210106  0.83376848  0.60840729  1
  Fe  Fe110  1  0.52568096  0.91346022  0.10904742  1
  Fe  Fe111  1  0.81303124  0.91555102  0.39108770  1
  Fe  Fe112  1  0.47431843  0.91279364  0.88729466  1
  Si  Si113  1  0.69043544  0.66255720  0.61397576  1
  Si  Si114  1  0.30319947  0.16871825  0.88326200  1
  Si  Si115  1  0.18997418  0.08774025  0.61182880  1
  Si  Si116  1  0.18875142  0.92300832  0.11328034  1
  Si  Si117  1  0.86207860  0.08020629  0.11569665  1
  Si  Si118  1  0.35605847  0.33609777  0.61472256  1
  Si  Si119  1  0.86801080  0.91517990  0.11593481  1
  Si  Si120  1  0.13819547  0.41717556  0.38827362  1
  Si  Si121  1  0.02535818  0.82977943  0.61036801  1
  Si  Si122  1  0.81046981  0.41842101  0.88549870  1
  Si  Si123  1  0.86984715  0.41913550  0.11234744  1
  Si  Si124  1  0.97567334  0.66071432  0.88786361  1
  Si  Si125  1  0.29862746  0.83245777  0.88468930  1
  Si  Si126  1  0.03196816  0.33367223  0.11667862  1
  Si  Si127  1  0.52460924  0.57917743  0.61480988  1
  Si  Si128  1  0.47553510  0.08173987  0.38455866  1
  Si  Si129  1  0.52474984  0.92121429  0.61150349  1
  Si  Si130  1  0.52004705  0.08595661  0.61454150  1
  Si  Si131  1  0.63983561  0.83841580  0.38744459  1
  Si  Si132  1  0.47349218  0.58276341  0.38777678  1
  Si  Si133  1  0.19471190  0.41382154  0.11618803  1
  Si  Si134  1  0.80785366  0.91641004  0.88542818  1
  Si  Si135  1  0.29805380  0.66715414  0.88649171  1
  Si  Si136  1  0.30730668  0.33221313  0.88522516  1
  Si  Si137  1  0.02419235  0.33702991  0.61229651  1
  Si  Si138  1  0.13927950  0.08170843  0.38601161  1
  Si  Si139  1  0.97580319  0.82829307  0.38640400  1
  Si  Si140  1  0.47478765  0.92036632  0.38742003  1
  Si  Si141  1  0.81431351  0.40961074  0.38727077  1
  Si  Si142  1  0.97364468  0.16737452  0.88476325  1
  Si  Si143  1  0.51990866  0.08652389  0.11340227  1
  Si  Si144  1  0.19118528  0.57758935  0.11673464  1
  Si  Si145  1  0.13973707  0.41171311  0.88517567  1
  Si  Si146  1  0.85974578  0.08685275  0.61349153  1
  Si  Si147  1  0.81025182  0.58236288  0.88502508  1
  Si  Si148  1  0.64915537  0.67096320  0.88512991  1
  Si  Si149  1  0.86290417  0.91975702  0.60979602  1
  Si  Si150  1  0.02355657  0.16941488  0.11556715  1
  Si  Si151  1  0.35222758  0.16473819  0.11653679  1
  Si  Si152  1  0.97343889  0.33308492  0.88658103  1
  Si  Si153  1  0.02372387  0.17203433  0.61362122  1
  Si  Si154  1  0.64352596  0.33368718  0.38628742  1
  Si  Si155  1  0.03202129  0.66627813  0.11578174  1
  Si  Si156  1  0.18721945  0.08553658  0.11645332  1
  Si  Si157  1  0.86599800  0.58511955  0.11466854  1
  Si  Si158  1  0.70079343  0.83423156  0.11154603  1
  Si  Si159  1  0.64525898  0.83330567  0.88524453  1
  Si  Si160  1  0.02297739  0.66366256  0.61468674  1
  Si  Si161  1  0.64267324  0.33583583  0.88703840  1
  Si  Si162  1  0.13483327  0.91555598  0.38698619  1
  Si  Si163  1  0.85780296  0.58024845  0.61547633  1
  Si  Si164  1  0.98179318  0.17261740  0.38791698  1
  Si  Si165  1  0.97757739  0.33380994  0.38350768  1
  Si  Si166  1  0.63679097  0.16813682  0.38763402  1
  Si  Si167  1  0.48021984  0.41779806  0.39045031  1
  Si  Si168  1  0.69928257  0.66795489  0.11063435  1
  Si  Si169  1  0.14351276  0.58217320  0.38681564  1
  Si  Si170  1  0.46804907  0.08692167  0.88865638  1
  Si  Si171  1  0.34801169  0.66984613  0.11235158  1
  Si  Si172  1  0.69248617  0.16150000  0.11267274  1
  Si  Si173  1  0.36004596  0.66382450  0.61317649  1
  Si  Si174  1  0.03131348  0.83198684  0.11628259  1
  Si  Si175  1  0.52185547  0.41482531  0.61536465  1
  Si  Si176  1  0.98157339  0.66739232  0.38775334  1
  Si  Si177  1  0.13911194  0.08712941  0.88191799  1
  Si  Si178  1  0.13751355  0.92362896  0.88487729  1
  Si  Si179  1  0.19253424  0.58625259  0.61411381  1
  Si  Si180  1  0.13635416  0.57872725  0.88480426  1
  Si  Si181  1  0.81100864  0.08077265  0.88715107  1
  Si  Si182  1  0.35599226  0.32750994  0.11441787  1
  Si  Si183  1  0.35678721  0.17152324  0.61452377  1
  Si  Si184  1  0.69000061  0.16524264  0.61389951  1
  Si  Si185  1  0.85558590  0.41446789  0.61423598  1
  Si  Si186  1  0.19150045  0.41765885  0.61433621  1
  Si  Si187  1  0.30850198  0.66413336  0.38821693  1
  Si  Si188  1  0.47404118  0.41557672  0.88654688  1
  Si  Si189  1  0.69010887  0.33027603  0.61528287  1
  Si  Si190  1  0.36321877  0.82987444  0.61138633  1
  Si  Si191  1  0.30972286  0.15820885  0.38965429  1
  O  O192  1  0.27062770  0.11312960  0.08600199  1
  O  O193  1  0.26825925  0.13046222  0.58388347  1
  O  O194  1  0.27571445  0.60393988  0.09054227  1
  O  O195  1  0.26924431  0.62421891  0.58133091  1
  O  O196  1  0.60282929  0.11943207  0.08580679  1
  O  O197  1  0.60171112  0.12126709  0.58590944  1
  O  O198  1  0.61799984  0.62366381  0.07597082  1
  O  O199  1  0.60427234  0.61441407  0.58584893  1
  O  O200  1  0.93706242  0.12421056  0.08552509  1
  O  O201  1  0.93325411  0.13163438  0.58352456  1
  O  O202  1  0.94555154  0.62186490  0.08533052  1
  O  O203  1  0.93742860  0.61574585  0.58524192  1
  O  O204  1  0.11550942  0.35932390  0.08687607  1
  O  O205  1  0.09972627  0.37828468  0.58166350  1
  O  O206  1  0.10596195  0.87077450  0.08463308  1
  O  O207  1  0.09928098  0.85743568  0.57194300  1
  O  O208  1  0.43362409  0.34623417  0.07850966  1
  O  O209  1  0.43370418  0.37271774  0.58242434  1
  O  O210  1  0.44143148  0.85329722  0.06953086  1
  O  O211  1  0.44406620  0.86801905  0.58542786  1
  O  O212  1  0.79713185  0.36778469  0.07518301  1
  O  O213  1  0.76745675  0.37015446  0.58471300  1
  O  O214  1  0.78493061  0.86862314  0.08548719  1
  O  O215  1  0.77928354  0.87942695  0.57352069  1
  O  O216  1  0.27493641  0.38152889  0.08682908  1
  O  O217  1  0.26825437  0.37905631  0.58192106  1
  O  O218  1  0.26443855  0.90184356  0.07531521  1
  O  O219  1  0.28080700  0.87266713  0.57534701  1
  O  O220  1  0.61061878  0.38984168  0.06731754  1
  O  O221  1  0.60056993  0.37255000  0.58771085  1
  O  O222  1  0.62363229  0.88352348  0.07696330  1
  O  O223  1  0.60085661  0.89559242  0.57549850  1
  O  O224  1  0.95876378  0.39203378  0.08839505  1
  O  O225  1  0.93320729  0.37665534  0.58301378  1
  O  O226  1  0.94528791  0.87675065  0.08583793  1
  O  O227  1  0.94287666  0.88164782  0.58314934  1
  O  O228  1  0.10563721  0.13847167  0.08622612  1
  O  O229  1  0.10275935  0.13548927  0.58488584  1
  O  O230  1  0.10822019  0.62741238  0.08469931  1
  O  O231  1  0.10205112  0.62693292  0.58291497  1
  O  O232  1  0.43724948  0.14045238  0.08812787  1
  O  O233  1  0.43674917  0.13539625  0.58506893  1
  O  O234  1  0.42810437  0.65257594  0.07668253  1
  O  O235  1  0.43469179  0.62019254  0.58297573  1
  O  O236  1  0.76960747  0.11484026  0.08687420  1
  O  O237  1  0.76820848  0.12638986  0.58454050  1
  O  O238  1  0.78321404  0.63241062  0.08435265  1
  O  O239  1  0.76982545  0.62165812  0.58590539  1
  O  O240  1  0.06356764  0.12120741  0.41768313  1
  O  O241  1  0.06002126  0.12248279  0.91351148  1
  O  O242  1  0.06179433  0.61294222  0.41544369  1
  O  O243  1  0.05574648  0.60616007  0.91770106  1
  O  O244  1  0.39027516  0.10351055  0.41431804  1
  O  O245  1  0.38099765  0.11563704  0.91435581  1
  O  O246  1  0.38082092  0.60132551  0.40921230  1
  O  O247  1  0.38519225  0.63174133  0.92251099  1
  O  O248  1  0.71510915  0.12112518  0.42452302  1
  O  O249  1  0.73559396  0.10860984  0.92303264  1
  O  O250  1  0.72362744  0.60627227  0.43171749  1
  O  O251  1  0.73170051  0.61888469  0.91400242  1
  O  O252  1  0.21211249  0.36448754  0.42366247  1
  O  O253  1  0.22721413  0.36814758  0.91602745  1
  O  O254  1  0.21335873  0.86840192  0.42383415  1
  O  O255  1  0.22239672  0.87631194  0.91177066  1
  O  O256  1  0.56982136  0.37444214  0.41837957  1
  O  O257  1  0.56092646  0.36899282  0.91548521  1
  O  O258  1  0.55133784  0.86360317  0.41275135  1
  O  O259  1  0.56669821  0.85382111  0.92079970  1
  O  O260  1  0.89092368  0.34986957  0.41220456  1
  O  O261  1  0.89533175  0.36968103  0.91767321  1
  O  O262  1  0.89338671  0.84137084  0.41927266  1
  O  O263  1  0.88027706  0.86304642  0.92205534  1
  O  O264  1  0.04807707  0.39504023  0.41224388  1
  O  O265  1  0.06156567  0.37561076  0.91832098  1
  O  O266  1  0.04882175  0.88829574  0.41372025  1
  O  O267  1  0.06296088  0.89393895  0.92112765  1
  O  O268  1  0.40807659  0.38297879  0.42731281  1
  O  O269  1  0.39479991  0.37445277  0.91468489  1
  O  O270  1  0.39642627  0.89925730  0.42345605  1
  O  O271  1  0.38477330  0.87011735  0.91986476  1
  O  O272  1  0.73285568  0.37433664  0.41544761  1
  O  O273  1  0.72597299  0.38895639  0.91088107  1
  O  O274  1  0.70854183  0.89943242  0.41643320  1
  O  O275  1  0.71942831  0.89405524  0.91061446  1
  O  O276  1  0.22823084  0.12246564  0.41712574  1
  O  O277  1  0.21967662  0.13854838  0.91159647  1
  O  O278  1  0.22523899  0.63088937  0.41714304  1
  O  O279  1  0.22092012  0.62459356  0.91554748  1
  O  O280  1  0.54904204  0.14094093  0.41275618  1
  O  O281  1  0.54248755  0.14176027  0.92117398  1
  O  O282  1  0.54176738  0.63832387  0.42651794  1
  O  O283  1  0.57326969  0.64488382  0.92177119  1
  O  O284  1  0.90178240  0.15640773  0.42261970  1
  O  O285  1  0.89631071  0.13019855  0.91478154  1
  O  O286  1  0.90488060  0.64313660  0.42341712  1
  O  O287  1  0.89568330  0.62642688  0.91935667  1
  O  O288  1  0.15792494  0.00576731  0.08783418  1
  O  O289  1  0.17759771  0.01124776  0.57388444  1
  O  O290  1  0.17038568  0.49495678  0.08667631  1
  O  O291  1  0.18343490  0.50190485  0.58668571  1
  O  O292  1  0.49808625  0.00962349  0.07910152  1
  O  O293  1  0.49995777  0.00488557  0.58484842  1
  O  O294  1  0.48355137  0.50350709  0.07116667  1
  O  O295  1  0.51569754  0.49641753  0.58335821  1
  O  O296  1  0.86214859  -0.00203958  0.08608403  1
  O  O297  1  0.85846158  0.00527907  0.58430298  1
  O  O298  1  0.85819871  0.50296087  0.08494196  1
  O  O299  1  0.84711664  0.49707218  0.58585435  1
  O  O300  1  0.00695719  0.25239078  0.08718249  1
  O  O301  1  0.01570482  0.25441132  0.58265156  1
  O  O302  1  0.02107012  0.74905461  0.08717907  1
  O  O303  1  0.00406067  0.74531987  0.58527569  1
  O  O304  1  0.32207542  0.24543722  0.08952581  1
  O  O305  1  0.34624028  0.25341855  0.58363649  1
  O  O306  1  0.30022514  0.74259222  0.08140822  1
  O  O307  1  0.35779383  0.74597682  0.58315589  1
  O  O308  1  0.68851756  0.23800552  0.07613179  1
  O  O309  1  0.67997468  0.24770559  0.58284382  1
  O  O310  1  0.69528743  0.75138289  0.08222153  1
  O  O311  1  0.67567769  0.73921517  0.57600519  1
  O  O312  1  0.14740754  -0.00039388  0.41442135  1
  O  O313  1  0.15813191  0.00672285  0.91343655  1
  O  O314  1  0.15958288  0.49984610  0.41562639  1
  O  O315  1  0.15192392  0.49492460  0.91227264  1
  O  O316  1  0.50731022  0.00261223  0.41364694  1
  O  O317  1  0.48867677  0.00735706  0.91992391  1
  O  O318  1  0.49635105  0.50051949  0.41802365  1
  O  O319  1  0.48562424  0.49359777  0.92153369  1
  O  O320  1  0.85383207  0.00183028  0.42997293  1
  O  O321  1  0.83544655  -0.00156341  0.91302326  1
  O  O322  1  0.84362534  0.48441971  0.42330582  1
  O  O323  1  0.82665895  0.50001735  0.91614093  1
  O  O324  1  0.33001727  0.23476685  0.42643857  1
  O  O325  1  0.31756580  0.24977038  0.91632648  1
  O  O326  1  0.33476141  0.73863269  0.42745486  1
  O  O327  1  0.29197746  0.75035237  0.91296625  1
  O  O328  1  0.65013663  0.25160049  0.41663711  1
  O  O329  1  0.66905467  0.26041343  0.92464044  1
  O  O330  1  0.66675537  0.76185258  0.42232239  1
  O  O331  1  0.68151329  0.75320234  0.91105506  1
  O  O332  1  1.01547048  0.25537016  0.41025360  1
  O  O333  1  0.98535876  0.24979230  0.91509815  1
  O  O334  1  1.01657884  0.74863931  0.41029201  1
  O  O335  1  0.99880743  0.73765322  0.92317547  1
  O  O336  1  0.20908978  0.08831666  0.19585999  1
  O  O337  1  0.20969701  0.08332540  0.69168911  1
  O  O338  1  0.19948192  0.57920239  0.19591328  1
  O  O339  1  0.21294809  0.59209176  0.69295759  1
  O  O340  1  0.54133650  0.08554831  0.19454413  1
  O  O341  1  0.53968353  0.08496560  0.69472380  1
  O  O342  1  0.54569890  0.58262773  0.19911203  1
  O  O343  1  0.53895663  0.58197518  0.69365950  1
  O  O344  1  0.88130427  0.08298108  0.19577232  1
  O  O345  1  0.87589538  0.08689542  0.69396663  1
  O  O346  1  0.88325904  0.58360460  0.19492736  1
  O  O347  1  0.87764460  0.58206820  0.69534110  1
  O  O348  1  0.04754849  0.33216078  0.19708207  1
  O  O349  1  0.04037625  0.33497318  0.69244379  1
  O  O350  1  0.04547922  0.83231517  0.19631544  1
  O  O351  1  0.04713833  0.83662801  0.69003104  1
  O  O352  1  0.37608797  0.32896829  0.19533136  1
  O  O353  1  0.37569096  0.33224340  0.69373430  1
  O  O354  1  0.37792100  0.83593515  0.20042224  1
  O  O355  1  0.37552573  0.83099005  0.69197229  1
  O  O356  1  0.71397936  0.33270333  0.19985653  1
  O  O357  1  0.71266729  0.32544877  0.69423158  1
  O  O358  1  0.71352052  0.83247871  0.19237406  1
  O  O359  1  0.71173295  0.83451302  0.69999628  1
  O  O360  1  0.20917815  0.41425810  0.19629310  1
  O  O361  1  0.20844700  0.40926559  0.69226008  1
  O  O362  1  0.20846052  0.91704178  0.19301875  1
  O  O363  1  0.21031261  0.91796520  0.70005568  1
  O  O364  1  0.54552162  0.41418360  0.20058871  1
  O  O365  1  0.53276785  0.41615080  0.69396629  1
  O  O366  1  0.54620145  0.91657366  0.20132316  1
  O  O367  1  0.54472298  0.92005021  0.69230432  1
  O  O368  1  0.88142523  0.41724288  0.19338901  1
  O  O369  1  0.87544128  0.41254893  0.69420234  1
  O  O370  1  0.88310868  0.91644678  0.19587531  1
  O  O371  1  0.87573832  0.92009481  0.69052684  1
  O  O372  1  0.04229346  0.16734510  0.19574730  1
  O  O373  1  0.03653562  0.17027788  0.69306424  1
  O  O374  1  0.04593897  0.66569821  0.19605160  1
  O  O375  1  0.04384084  0.66186943  0.69397925  1
  O  O376  1  0.37274421  0.16412894  0.19719578  1
  O  O377  1  0.37539461  0.16897987  0.69458328  1
  O  O378  1  0.37658680  0.67324260  0.19246836  1
  O  O379  1  0.37529255  0.66690368  0.69297561  1
  O  O380  1  0.71054139  0.16589530  0.19359755  1
  O  O381  1  0.71025284  0.16577669  0.69397877  1
  O  O382  1  0.71504747  0.66781107  0.19133636  1
  O  O383  1  0.71106382  0.66838674  0.69357449  1
  O  O384  1  0.12053598  0.08650168  0.30646034  1
  O  O385  1  0.11932117  0.08414653  0.80240196  1
  O  O386  1  0.12482185  0.58199539  0.30629579  1
  O  O387  1  0.11641963  0.58729211  0.80601014  1
  O  O388  1  0.45611313  0.08338673  0.30408539  1
  O  O389  1  0.45335024  0.08610420  0.80672053  1
  O  O390  1  0.46840213  0.58142805  0.30864929  1
  O  O391  1  0.45355520  0.58799185  0.79924982  1
  O  O392  1  0.79019558  0.08457129  0.30028030  1
  O  O393  1  0.79158484  0.08398061  0.80591406  1
  O  O394  1  0.79158286  0.58215505  0.29924221  1
  O  O395  1  0.79603368  0.58214696  0.80571572  1
  O  O396  1  0.28999748  0.32934104  0.30206789  1
  O  O397  1  0.28583056  0.33050639  0.80600390  1
  O  O398  1  0.28768768  0.83358342  0.30139145  1
  O  O399  1  0.28766377  0.83252563  0.80398331  1
  O  O400  1  0.62472504  0.33150159  0.30637694  1
  O  O401  1  0.61947048  0.32750287  0.80754504  1
  O  O402  1  0.62443934  0.83397163  0.30603122  1
  O  O403  1  0.62232549  0.83491140  0.80427961  1
  O  O404  1  0.95818670  0.33375422  0.30269534  1
  O  O405  1  0.95588447  0.33263362  0.80626933  1
  O  O406  1  0.95773579  0.83175931  0.30501308  1
  O  O407  1  0.95310575  0.83612751  0.79590195  1
  O  O408  1  0.12256243  0.41493686  0.30719689  1
  O  O409  1  0.11632270  0.40698766  0.80630292  1
  O  O410  1  0.12065360  0.91307484  0.30689667  1
  O  O411  1  0.11878486  0.92148645  0.80420495  1
  O  O412  1  0.45885960  0.41271381  0.31012818  1
  O  O413  1  0.45862137  0.41606816  0.80677136  1
  O  O414  1  0.45458360  0.92078490  0.30687742  1
  O  O415  1  0.45308361  0.91654129  0.79550784  1
  O  O416  1  0.79554663  0.41430441  0.30647418  1
  O  O417  1  0.80158349  0.41666367  0.80646368  1
  O  O418  1  0.79035008  0.91632510  0.29818629  1
  O  O419  1  0.79200407  0.91817533  0.80451214  1
  O  O420  1  0.29040881  0.16373541  0.30881262  1
  O  O421  1  0.29047464  0.16961354  0.80369669  1
  O  O422  1  0.28545635  0.67303388  0.30882352  1
  O  O423  1  0.28535509  0.66698387  0.80569113  1
  O  O424  1  0.62332122  0.16739235  0.30659186  1
  O  O425  1  0.62160654  0.16630028  0.79874774  1
  O  O426  1  0.62565260  0.66794030  0.29953347  1
  O  O427  1  0.62482036  0.67210319  0.80527542  1
  O  O428  1  0.96051921  0.16728463  0.30679201  1
  O  O429  1  0.95561483  0.16785126  0.80445619  1
  O  O430  1  0.96052472  0.66481249  0.30636453  1
  O  O431  1  0.95435952  0.66099547  0.80799660  1
  F  F432  1  0.04078084  0.00005787  0.20191865  1
  F  F433  1  0.04331837  0.00271455  0.69838505  1
  F  F434  1  0.04716496  0.49852090  0.20392655  1
  F  F435  1  0.03205083  0.49869960  0.69741930  1
  F  F436  1  0.37740077  0.00171522  0.20181942  1
  F  F437  1  0.37588499  0.00503659  0.70034017  1
  F  F438  1  0.38327862  0.48667983  0.20316961  1
  F  F439  1  0.37709853  0.50289871  0.69865372  1
  F  F440  1  0.71179342  0.00139804  0.19938734  1
  F  F441  1  0.71229618  0.00292861  0.70245106  1
  F  F442  1  0.71554414  0.49722904  0.20029358  1
  F  F443  1  0.72012515  0.50370987  0.69314836  1
  F  F444  1  0.20977514  0.24674825  0.20355040  1
  F  F445  1  0.21042227  0.25232194  0.69788327  1
  F  F446  1  0.20736805  0.74883880  0.20148092  1
  F  F447  1  0.21152647  0.75044734  0.70066548  1
  F  F448  1  0.54558926  0.24819908  0.20363479  1
  F  F449  1  0.54200410  0.25155205  0.70043015  1
  F  F450  1  0.54631774  0.75244957  0.20140436  1
  F  F451  1  0.54495647  0.75056737  0.70092630  1
  F  F452  1  0.88151470  0.24823738  0.20247141  1
  F  F453  1  0.87837536  0.25037697  0.70298342  1
  F  F454  1  0.88263084  0.74858423  0.20294012  1
  F  F455  1  0.87272051  0.74608381  0.69799783  1
  F  F456  1  0.28894719  0.00016330  0.29861021  1
  F  F457  1  0.28697717  0.00348214  0.79802165  1
  F  F458  1  0.28380400  0.48708460  0.30443397  1
  F  F459  1  0.29870301  0.50387197  0.80643364  1
  F  F460  1  0.62168566  0.00383634  0.29723773  1
  F  F461  1  0.62028823  0.00077834  0.79630458  1
  F  F462  1  0.62816800  0.49722790  0.29902346  1
  F  F463  1  0.61234096  0.50986456  0.80484170  1
  F  F464  1  0.95579218  0.00032184  0.29955614  1
  F  F465  1  0.95440905  0.00312127  0.79415651  1
  F  F466  1  0.95681003  0.49919878  0.29767688  1
  F  F467  1  0.95370750  0.49767474  0.79797108  1
  F  F468  1  0.12222884  0.24869383  0.29944038  1
  F  F469  1  0.11787559  0.25308153  0.79793337  1
  F  F470  1  0.12149687  0.74884521  0.29808750  1
  F  F471  1  0.12352591  0.75193156  0.79720592  1
  F  F472  1  0.45546180  0.24845612  0.29814901  1
  F  F473  1  0.45082237  0.25121514  0.79695438  1
  F  F474  1  0.45648968  0.74869641  0.29840976  1
  F  F475  1  0.45328381  0.75093727  0.79525186  1
  F  F476  1  0.79072861  0.24836874  0.29796461  1
  F  F477  1  0.78878179  0.24892366  0.79913319  1
  F  F478  1  0.78961011  0.74970992  0.29576813  1
  F  F479  1  0.79010297  0.74865756  0.79852839  1
