# generated using pymatgen
data_K24Na3Li5Mg64Fe17Si79(O5F)48
_symmetry_space_group_name_H-M   'P 1'
_cell_length_a   16.09517948
_cell_length_b   18.60354331
_cell_length_c   20.56702571
_cell_angle_alpha   90.01568616
_cell_angle_beta   100.01570254
_cell_angle_gamma   89.95624819
_symmetry_Int_Tables_number   1
_chemical_formula_structural   K24Na3Li5Mg64Fe17Si79(O5F)48
_chemical_formula_sum   'K24 Na3 Li5 Mg64 Fe17 Si79 O240 F48'
_cell_volume   6064.47637390
_cell_formula_units_Z   1
loop_
 _symmetry_equiv_pos_site_id
 _symmetry_equiv_pos_as_xyz
  1  'x, y, z'
loop_
 _atom_site_type_symbol
 _atom_site_label
 _atom_site_symmetry_multiplicity
 _atom_site_fract_x
 _atom_site_fract_y
 _atom_site_fract_z
 _atom_site_occupancy
  K  K0  1  0.01524098  -0.00704626  0.00864003  1
  K  K1  1  -0.01114939  -0.00657462  0.48855398  1
  K  K2  1  -0.00350255  0.49993528  -0.00190993  1
  K  K3  1  0.01942426  0.50827698  0.50826343  1
  K  K4  1  0.33778834  -0.00609689  0.01949912  1
  K  K5  1  0.34234738  -0.00993232  0.48643567  1
  K  K6  1  0.33388482  0.50349846  -0.00163984  1
  K  K7  1  0.31996068  0.50531448  0.49912277  1
  K  K8  1  0.66235237  -0.01128700  0.00907483  1
  K  K9  1  0.65651301  -0.01014169  0.48931408  1
  K  K10  1  0.66084270  0.50497484  -0.00156612  1
  K  K11  1  0.66115504  0.50495194  0.49952069  1
  K  K12  1  0.17469363  0.26201330  0.00308618  1
  K  K13  1  0.17128255  0.25689988  0.49861516  1
  K  K14  1  0.17984189  0.75150817  0.00938752  1
  K  K15  1  0.16076697  0.74034035  0.49246366  1
  K  K16  1  0.47777033  0.25563334  -0.00580784  1
  K  K17  1  0.49083871  0.23999005  0.49373880  1
  K  K18  1  0.50094386  0.75002212  0.00941104  1
  K  K19  1  0.48083246  0.74682351  0.48616162  1
  K  K20  1  0.84332539  0.25220139  -0.00024563  1
  K  K21  1  0.83809499  0.25433028  0.49979229  1
  K  K22  1  0.82561196  0.74512325  0.00917211  1
  K  K23  1  0.84150181  0.75255237  0.48912392  1
  Na  Na24  1  0.33438622  0.24919022  0.75106327  1
  Na  Na25  1  0.49546567  0.67248034  0.24976546  1
  Na  Na26  1  0.33404889  0.91409091  0.25567011  1
  Li  Li27  1  0.33418154  0.75317217  0.25308474  1
  Li  Li28  1  0.50072064  0.00198681  0.75002684  1
  Li  Li29  1  0.32876391  0.58225343  0.74897742  1
  Li  Li30  1  0.00171468  0.91089950  0.25096488  1
  Li  Li31  1  0.16806342  0.33601850  0.24155075  1
  Mg  Mg32  1  0.66638896  0.25068911  0.25428513  1
  Mg  Mg33  1  0.49869726  0.50158516  0.24930502  1
  Mg  Mg34  1  0.00048147  0.74796349  0.74819988  1
  Mg  Mg35  1  0.00119867  0.25217790  0.74819292  1
  Mg  Mg36  1  0.83700405  0.49856951  0.24715931  1
  Mg  Mg37  1  0.16891571  -0.00035895  0.74832391  1
  Mg  Mg38  1  0.66895431  0.74973163  0.25293339  1
  Mg  Mg39  1  0.66687538  0.25109985  0.75192649  1
  Mg  Mg40  1  0.83200737  0.49986780  0.74892819  1
  Mg  Mg41  1  0.49795979  0.00034424  0.25326638  1
  Mg  Mg42  1  0.83398207  0.00074832  0.75148444  1
  Mg  Mg43  1  0.66508937  0.75029132  0.75332150  1
  Mg  Mg44  1  -0.00116990  0.75235205  0.24861260  1
  Mg  Mg45  1  0.83374519  -0.00357998  0.25304456  1
  Mg  Mg46  1  0.33361600  0.74838147  0.74642827  1
  Mg  Mg47  1  0.16943278  0.50292526  0.74714655  1
  Mg  Mg48  1  0.33017765  0.25356458  0.24815560  1
  Mg  Mg49  1  0.49347737  0.50195512  0.75383718  1
  Mg  Mg50  1  0.16564439  -0.00355416  0.25170102  1
  Mg  Mg51  1  0.00358873  0.24783184  0.24866335  1
  Mg  Mg52  1  0.16761181  0.49852107  0.24365238  1
  Mg  Mg53  1  0.66593773  0.08361598  0.75111188  1
  Mg  Mg54  1  0.49736943  0.16669196  0.25387223  1
  Mg  Mg55  1  0.66674370  0.41637513  0.24933317  1
  Mg  Mg56  1  0.16768254  0.16667175  0.25174052  1
  Mg  Mg57  1  0.50114020  0.16580203  0.75021304  1
  Mg  Mg58  1  0.00411265  0.41255969  0.24420322  1
  Mg  Mg59  1  0.66548876  0.91857862  0.75254201  1
  Mg  Mg60  1  0.83562500  0.16712118  0.75174640  1
  Mg  Mg61  1  0.00204396  0.41498862  0.74838952  1
  Mg  Mg62  1  0.83409775  0.83640819  0.25021798  1
  Mg  Mg63  1  0.49787351  0.66624537  0.75244245  1
  Mg  Mg64  1  0.49613256  0.33550289  0.24901737  1
  Mg  Mg65  1  0.33366462  0.41712271  0.74687394  1
  Mg  Mg66  1  0.33758178  0.08263655  0.74873305  1
  Mg  Mg67  1  0.83297358  0.66488699  0.75084315  1
  Mg  Mg68  1  0.49923672  0.83156497  0.25722614  1
  Mg  Mg69  1  0.83552161  0.33257678  0.24876181  1
  Mg  Mg70  1  0.00216619  0.58459674  0.74616595  1
  Mg  Mg71  1  0.16646536  0.33461897  0.74590681  1
  Mg  Mg72  1  0.16652080  0.66390648  0.74700800  1
  Mg  Mg73  1  0.83450808  0.66440789  0.24692091  1
  Mg  Mg74  1  0.16571409  0.83282165  0.25261322  1
  Mg  Mg75  1  0.66692785  0.58321451  0.24794409  1
  Mg  Mg76  1  0.83275173  0.83384107  0.75121409  1
  Mg  Mg77  1  -0.00030808  0.07923830  0.25176564  1
  Mg  Mg78  1  0.66653775  0.08430222  0.25716323  1
  Mg  Mg79  1  0.00038337  0.91514999  0.74908086  1
  Mg  Mg80  1  0.00141172  0.08407243  0.75018028  1
  Mg  Mg81  1  0.83540528  0.33500415  0.74940643  1
  Mg  Mg82  1  0.50156159  0.83772455  0.75163507  1
  Mg  Mg83  1  0.66503315  0.41663345  0.75266329  1
  Mg  Mg84  1  0.83350169  0.16483536  0.25379919  1
  Mg  Mg85  1  0.16761571  0.16588519  0.74716145  1
  Mg  Mg86  1  0.66737945  0.91329757  0.25651915  1
  Mg  Mg87  1  0.33510496  0.08356843  0.25301470  1
  Mg  Mg88  1  0.49895601  0.33443546  0.75293259  1
  Mg  Mg89  1  0.16751236  0.66798305  0.24396279  1
  Mg  Mg90  1  0.33786036  0.91816365  0.74851147  1
  Mg  Mg91  1  0.16784435  0.83363115  0.74647433  1
  Mg  Mg92  1  0.33052345  0.58647371  0.24574122  1
  Mg  Mg93  1  0.32762891  0.41613567  0.24523063  1
  Mg  Mg94  1  0.66404303  0.58526714  0.75381530  1
  Mg  Mg95  1  0.00009629  0.58386854  0.24483874  1
  Fe  Fe96  1  0.19054412  0.59257039  0.10481029  1
  Fe  Fe97  1  0.01982403  0.83857526  0.11149976  1
  Fe  Fe98  1  0.02221969  0.33169982  0.60610452  1
  Fe  Fe99  1  0.35957632  0.33595276  0.10716986  1
  Fe  Fe100  1  0.86081824  0.57605274  0.10751089  1
  Fe  Fe101  1  0.02050679  0.66979355  0.60470786  1
  Fe  Fe102  1  0.47484160  0.90564871  0.39494962  1
  Fe  Fe103  1  0.46849895  0.41611689  0.89168154  1
  Fe  Fe104  1  0.18437133  0.42097166  0.10306961  1
  Fe  Fe105  1  0.14254110  0.58692908  0.88899400  1
  Fe  Fe106  1  0.47738139  0.08134500  0.39484316  1
  Fe  Fe107  1  0.19857412  0.58483237  0.60600181  1
  Fe  Fe108  1  0.97741128  0.33428896  0.88912729  1
  Fe  Fe109  1  0.97651694  0.83491280  0.39112920  1
  Fe  Fe110  1  0.80480160  0.91946156  0.39645993  1
  Fe  Fe111  1  0.69028195  0.83205393  0.11333615  1
  Fe  Fe112  1  0.63646062  0.67026133  0.89182941  1
  Si  Si113  1  0.36331511  0.83716345  0.61389024  1
  Si  Si114  1  0.36432226  0.83144447  0.11856578  1
  Si  Si115  1  0.29663562  0.32987958  0.88345585  1
  Si  Si116  1  0.46643698  0.58881581  0.88871506  1
  Si  Si117  1  0.30903234  0.33618441  0.38424283  1
  Si  Si118  1  0.97611165  0.66264595  0.38481886  1
  Si  Si119  1  0.80516265  0.41522349  0.88601759  1
  Si  Si120  1  0.69058499  0.33340908  0.61516891  1
  Si  Si121  1  0.36706087  0.33082599  0.61289111  1
  Si  Si122  1  0.36870455  0.67233570  0.61085428  1
  Si  Si123  1  0.19282638  0.91258888  0.11424608  1
  Si  Si124  1  0.14099064  0.41478993  0.38058265  1
  Si  Si125  1  0.29828623  0.82609309  0.39118474  1
  Si  Si126  1  0.69255399  0.33112538  0.11737708  1
  Si  Si127  1  0.64551065  0.16731608  0.88631521  1
  Si  Si128  1  0.13910282  0.57753410  0.38088357  1
  Si  Si129  1  0.52497293  0.08494013  0.11902858  1
  Si  Si130  1  0.14334192  0.91186545  0.88341183  1
  Si  Si131  1  0.81110590  0.08501367  0.88615539  1
  Si  Si132  1  0.81299443  0.41464052  0.38435666  1
  Si  Si133  1  0.14492952  0.92102692  0.39015170  1
  Si  Si134  1  0.85556124  0.08194921  0.61622979  1
  Si  Si135  1  0.81060721  0.57812178  0.38484865  1
  Si  Si136  1  0.36383421  0.16371126  0.61349706  1
  Si  Si137  1  0.19285873  0.07916995  0.11696207  1
  Si  Si138  1  0.14371440  0.42040078  0.88367021  1
  Si  Si139  1  0.68781716  0.16860734  0.11871472  1
  Si  Si140  1  0.96712558  0.66595477  0.88645520  1
  Si  Si141  1  0.97426324  0.83227380  0.88443269  1
  Si  Si142  1  0.85145706  0.41882861  0.61055642  1
  Si  Si143  1  0.47638306  0.08788974  0.88536711  1
  Si  Si144  1  0.47390504  0.41996943  0.38653449  1
  Si  Si145  1  0.98062472  0.16375126  0.88731844  1
  Si  Si146  1  0.47603755  0.92291916  0.88478598  1
  Si  Si147  1  0.80396423  0.58062817  0.88563959  1
  Si  Si148  1  0.97818607  0.16587144  0.38566659  1
  Si  Si149  1  0.14375855  0.08529852  0.38604226  1
  Si  Si150  1  0.68974801  0.66256931  0.11145456  1
  Si  Si151  1  0.19529011  0.08322546  0.61262761  1
  Si  Si152  1  0.30308696  0.66237619  0.38422844  1
  Si  Si153  1  0.30389074  0.67594024  0.88344689  1
  Si  Si154  1  0.64172187  0.34090217  0.38662204  1
  Si  Si155  1  0.85361392  0.92387066  0.11059192  1
  Si  Si156  1  0.81123646  0.92056633  0.88601131  1
  Si  Si157  1  0.80881742  0.09199262  0.39185806  1
  Si  Si158  1  0.30497133  0.16103892  0.88405208  1
  Si  Si159  1  0.19809414  0.41070607  0.60622095  1
  Si  Si160  1  0.85183153  0.08601063  0.11709139  1
  Si  Si161  1  0.52986096  0.08409873  0.61574137  1
  Si  Si162  1  0.69233938  0.66786384  0.61616801  1
  Si  Si163  1  0.02330968  0.32315656  0.11082956  1
  Si  Si164  1  0.64458530  0.84092566  0.88901940  1
  Si  Si165  1  0.69304416  0.16834846  0.61593027  1
  Si  Si166  1  0.97812339  0.33086409  0.38312553  1
  Si  Si167  1  0.64432980  0.17567968  0.39194775  1
  Si  Si168  1  0.64230664  0.82197360  0.39582146  1
  Si  Si169  1  0.47137726  0.58292970  0.38495285  1
  Si  Si170  1  0.02317122  0.15805902  0.11564970  1
  Si  Si171  1  0.69173299  0.83257107  0.61695302  1
  Si  Si172  1  0.14258961  0.07698400  0.88477750  1
  Si  Si173  1  0.64060117  0.33257266  0.88799915  1
  Si  Si174  1  0.52468668  0.91983019  0.11682266  1
  Si  Si175  1  0.85744410  0.40579728  0.11057141  1
  Si  Si176  1  0.02208115  0.84218032  0.61173314  1
  Si  Si177  1  0.52704371  0.41737939  0.61478522  1
  Si  Si178  1  0.35576529  0.16605321  0.11403563  1
  Si  Si179  1  0.52909144  0.58298732  0.61609680  1
  Si  Si180  1  0.64602315  0.65796545  0.38566710  1
  Si  Si181  1  0.19490952  0.91774837  0.61299537  1
  Si  Si182  1  0.53167463  0.41583367  0.11367450  1
  Si  Si183  1  0.02266688  0.15877530  0.61137417  1
  Si  Si184  1  0.36335368  0.66695260  0.11007123  1
  Si  Si185  1  0.31399745  0.83723438  0.88326010  1
  Si  Si186  1  0.52812486  0.57900014  0.11550992  1
  Si  Si187  1  0.02157322  0.67198329  0.10990488  1
  Si  Si188  1  0.30555305  0.17156417  0.38829236  1
  Si  Si189  1  0.85217201  0.58215594  0.61158536  1
  Si  Si190  1  0.52987532  0.91913356  0.61726487  1
  Si  Si191  1  0.85469864  0.91899771  0.61694950  1
  O  O192  1  0.27168995  0.11518914  0.08712337  1
  O  O193  1  0.27114030  0.12661761  0.58417256  1
  O  O194  1  0.28544188  0.62292709  0.06768919  1
  O  O195  1  0.28772219  0.63093106  0.57210201  1
  O  O196  1  0.60629949  0.11799178  0.08857678  1
  O  O197  1  0.60735939  0.12347641  0.58563255  1
  O  O198  1  0.61167307  0.60480436  0.08636082  1
  O  O199  1  0.61085708  0.61647057  0.58760927  1
  O  O200  1  0.93588429  0.11253580  0.08721989  1
  O  O201  1  0.93990249  0.10479724  0.58671251  1
  O  O202  1  0.95779179  0.60705820  0.07824887  1
  O  O203  1  0.92776781  0.60663783  0.57523162  1
  O  O204  1  0.09747898  0.35140010  0.07497229  1
  O  O205  1  0.11595557  0.36397392  0.57207657  1
  O  O206  1  0.11262620  0.87129755  0.07213285  1
  O  O207  1  0.10363319  0.88017444  0.58523387  1
  O  O208  1  0.46313844  0.35899489  0.07942683  1
  O  O209  1  0.44363746  0.37074366  0.58154532  1
  O  O210  1  0.43611403  0.87750584  0.08654686  1
  O  O211  1  0.43804307  0.88307242  0.58684349  1
  O  O212  1  0.77830060  0.34823767  0.08819123  1
  O  O213  1  0.76807294  0.36691181  0.58318278  1
  O  O214  1  0.77777731  0.87193464  0.07430570  1
  O  O215  1  0.77433861  0.86608603  0.58960879  1
  O  O216  1  0.27620045  0.39399448  0.06413075  1
  O  O217  1  0.27876607  0.36881938  0.57964046  1
  O  O218  1  0.27711794  0.87745863  0.08943038  1
  O  O219  1  0.27161559  0.87557959  0.58524158  1
  O  O220  1  0.62231013  0.39225342  0.09020377  1
  O  O221  1  0.60639940  0.38078708  0.58478211  1
  O  O222  1  0.59629300  0.88968572  0.07800341  1
  O  O223  1  0.60707150  0.87940138  0.58730071  1
  O  O224  1  0.93509010  0.36701679  0.08153860  1
  O  O225  1  0.92641385  0.39087166  0.57408686  1
  O  O226  1  0.93808980  0.90954051  0.07950908  1
  O  O227  1  0.94089722  0.89814030  0.58980133  1
  O  O228  1  0.10206900  0.11999324  0.08635049  1
  O  O229  1  0.10407977  0.12136989  0.58407318  1
  O  O230  1  0.11035951  0.66561833  0.08263693  1
  O  O231  1  0.10399630  0.63433698  0.56323722  1
  O  O232  1  0.43883914  0.12915470  0.08813463  1
  O  O233  1  0.44005079  0.12294004  0.58287926  1
  O  O234  1  0.45090651  0.63381594  0.08672313  1
  O  O235  1  0.45072237  0.63454378  0.58397972  1
  O  O236  1  0.77224375  0.14179510  0.08973739  1
  O  O237  1  0.77534459  0.13526327  0.58778107  1
  O  O238  1  0.76812578  0.63549400  0.07740443  1
  O  O239  1  0.77013271  0.63498327  0.58430489  1
  O  O240  1  0.06141889  0.11752228  0.41567670  1
  O  O241  1  0.05963092  0.10699965  0.91285345  1
  O  O242  1  0.05991899  0.61154717  0.41108049  1
  O  O243  1  0.04326593  0.61557750  0.92014483  1
  O  O244  1  0.38675277  0.12911884  0.42655247  1
  O  O245  1  0.39696997  0.12344284  0.91581168  1
  O  O246  1  0.39629642  0.62473513  0.41601891  1
  O  O247  1  0.37772412  0.61734899  0.91097406  1
  O  O248  1  0.74034030  0.14558489  0.41912234  1
  O  O249  1  0.72981071  0.11797685  0.91521133  1
  O  O250  1  0.72882924  0.60668393  0.41659716  1
  O  O251  1  0.72317600  0.60245163  0.91791591  1
  O  O252  1  0.23090135  0.37559452  0.41313114  1
  O  O253  1  0.20943360  0.35311443  0.90921997  1
  O  O254  1  0.22392671  0.86863030  0.42369170  1
  O  O255  1  0.23035330  0.86777374  0.91228348  1
  O  O256  1  0.56646743  0.38241741  0.41703086  1
  O  O257  1  0.56240494  0.35470485  0.92268791  1
  O  O258  1  0.56229862  0.84222580  0.43036612  1
  O  O259  1  0.56356559  0.87996803  0.91534005  1
  O  O260  1  0.89706917  0.36545755  0.41242472  1
  O  O261  1  0.87766625  0.36063203  0.91994743  1
  O  O262  1  0.89961469  0.87253645  0.43926529  1
  O  O263  1  0.89728681  0.87405191  0.91308033  1
  O  O264  1  0.06497337  0.37445320  0.41227139  1
  O  O265  1  0.05898509  0.40413904  0.91476181  1
  O  O266  1  0.06631652  0.89758476  0.42442306  1
  O  O267  1  0.06324608  0.87574113  0.91153991  1
  O  O268  1  0.39889445  0.37733616  0.41644852  1
  O  O269  1  0.37696303  0.37314244  0.92297592  1
  O  O270  1  0.38470892  0.86297014  0.42870424  1
  O  O271  1  0.39425026  0.88994368  0.91385162  1
  O  O272  1  0.73197239  0.38201479  0.41457784  1
  O  O273  1  0.71871387  0.38913769  0.91310482  1
  O  O274  1  0.72021751  0.87130127  0.43196703  1
  O  O275  1  0.72801412  0.89325402  0.91420568  1
  O  O276  1  0.22060472  0.14087027  0.41488996  1
  O  O277  1  0.22931229  0.12040772  0.91615279  1
  O  O278  1  0.22903072  0.61618814  0.41328170  1
  O  O279  1  0.22143041  0.66061859  0.91586179  1
  O  O280  1  0.57602700  0.13734820  0.42845141  1
  O  O281  1  0.56391514  0.13343354  0.91492587  1
  O  O282  1  0.56339939  0.62229982  0.41317814  1
  O  O283  1  0.53829956  0.64594263  0.92280949  1
  O  O284  1  0.89999771  0.13380024  0.41784309  1
  O  O285  1  0.89597908  0.13170338  0.91453478  1
  O  O286  1  0.89526504  0.62455452  0.41341536  1
  O  O287  1  0.88083564  0.63754752  0.91196353  1
  O  O288  1  0.18655342  -0.00212237  0.08546119  1
  O  O289  1  0.19266440  0.00046935  0.58400581  1
  O  O290  1  0.14667895  0.50784244  0.06680069  1
  O  O291  1  0.19339411  0.48940762  0.57211837  1
  O  O292  1  0.50805135  0.00409611  0.08892268  1
  O  O293  1  0.52635885  0.00142670  0.58856503  1
  O  O294  1  0.50765451  0.49724624  0.08493538  1
  O  O295  1  0.51665241  0.50041034  0.58555417  1
  O  O296  1  0.82228964  0.00824352  0.08551281  1
  O  O297  1  0.82726468  0.00056671  0.59036698  1
  O  O298  1  0.83261436  0.48137096  0.07474950  1
  O  O299  1  0.81967682  0.50053057  0.58603027  1
  O  O300  1  0.00465897  0.23849487  0.08477794  1
  O  O301  1  -0.00010169  0.23488983  0.57541897  1
  O  O302  1  -0.02258860  0.74807236  0.08226783  1
  O  O303  1  -0.00284258  0.76688524  0.57633518  1
  O  O304  1  0.33837108  0.24047030  0.07436728  1
  O  O305  1  0.36224009  0.24663780  0.58491992  1
  O  O306  1  0.35800330  0.75199090  0.08190610  1
  O  O307  1  0.36554749  0.75677188  0.58256990  1
  O  O308  1  0.66291944  0.25001749  0.09019694  1
  O  O309  1  0.67742922  0.25048450  0.58679591  1
  O  O310  1  0.65885752  0.74015906  0.08043399  1
  O  O311  1  0.67561492  0.75050941  0.58836507  1
  O  O312  1  0.16873619  0.00562021  0.41707956  1
  O  O313  1  0.15541376  -0.00597522  0.91321458  1
  O  O314  1  0.14863116  0.49576762  0.41237689  1
  O  O315  1  0.18571939  0.49518507  0.91363041  1
  O  O316  1  0.49253494  -0.00539387  0.43843284  1
  O  O317  1  0.48965464  0.00543255  0.91468693  1
  O  O318  1  0.48004847  0.50127245  0.41902553  1
  O  O319  1  0.48805359  0.51028975  0.92311337  1
  O  O320  1  0.81045330  0.01650636  0.42956801  1
  O  O321  1  0.82941067  0.00293132  0.91412473  1
  O  O322  1  0.82910529  0.49564715  0.41459571  1
  O  O323  1  0.83063817  0.49792997  0.91081349  1
  O  O324  1  0.31522988  0.25546905  0.41710333  1
  O  O325  1  0.31052055  0.24414102  0.90893223  1
  O  O326  1  0.30165281  0.74124152  0.41974929  1
  O  O327  1  0.33872288  0.75732171  0.91232737  1
  O  O328  1  0.65048418  0.26054842  0.41838432  1
  O  O329  1  0.66873048  0.24891672  0.91389719  1
  O  O330  1  0.66607235  0.73664691  0.41960059  1
  O  O331  1  0.66598198  0.76443237  0.92351004  1
  O  O332  1  0.99242303  0.24907078  0.41364369  1
  O  O333  1  1.00539339  0.23959657  0.92217087  1
  O  O334  1  0.99466664  0.73841516  0.42188791  1
  O  O335  1  0.98100455  0.75079653  0.91294886  1
  O  O336  1  0.20939040  0.08326124  0.19679693  1
  O  O337  1  0.21128983  0.08192696  0.69311710  1
  O  O338  1  0.20987529  0.58275259  0.19684403  1
  O  O339  1  0.21044566  0.58540968  0.69621857  1
  O  O340  1  0.54675163  0.08799423  0.19898048  1
  O  O341  1  0.54854425  0.08789935  0.69535701  1
  O  O342  1  0.54834858  0.57477737  0.19501566  1
  O  O343  1  0.54344493  0.58210978  0.69596630  1
  O  O344  1  0.87286397  0.08578030  0.19737153  1
  O  O345  1  0.87594240  0.08341957  0.69699335  1
  O  O346  1  0.87810235  0.57965790  0.19957451  1
  O  O347  1  0.87223316  0.58417300  0.69274838  1
  O  O348  1  0.03775706  0.32695107  0.19109801  1
  O  O349  1  0.04412701  0.33204348  0.69732984  1
  O  O350  1  0.04646420  0.83274650  0.20124797  1
  O  O351  1  0.04263585  0.83786208  0.69295660  1
  O  O352  1  0.37864702  0.33414058  0.19970477  1
  O  O353  1  0.38503959  0.33563337  0.69176493  1
  O  O354  1  0.38559004  0.82708770  0.19662145  1
  O  O355  1  0.37885633  0.83659323  0.69427013  1
  O  O356  1  0.71080059  0.33106047  0.19823009  1
  O  O357  1  0.70895359  0.33321471  0.69560508  1
  O  O358  1  0.71165139  0.83333522  0.20464948  1
  O  O359  1  0.71005866  0.83466662  0.69763393  1
  O  O360  1  0.21037030  0.41740763  0.19451426  1
  O  O361  1  0.21199633  0.41254139  0.68730036  1
  O  O362  1  0.20016408  0.91655361  0.19322116  1
  O  O363  1  0.21183288  0.91815231  0.69372753  1
  O  O364  1  0.54592431  0.41526746  0.19500744  1
  O  O365  1  0.54635756  0.41570689  0.69461857  1
  O  O366  1  0.54694173  0.92030669  0.19701373  1
  O  O367  1  0.54800397  0.91605882  0.69690077  1
  O  O368  1  0.87668880  0.41083503  0.19186819  1
  O  O369  1  0.87086820  0.41677042  0.69133347  1
  O  O370  1  0.86748221  0.92122482  0.19082584  1
  O  O371  1  0.87472810  0.91776403  0.69766955  1
  O  O372  1  0.04189458  0.16167218  0.19573464  1
  O  O373  1  0.04162368  0.16159274  0.69255111  1
  O  O374  1  0.03940058  0.66694987  0.19204117  1
  O  O375  1  0.04135544  0.66996494  0.69707251  1
  O  O376  1  0.37475404  0.16988850  0.19469827  1
  O  O377  1  0.38313155  0.15881174  0.69264268  1
  O  O378  1  0.36812564  0.66254616  0.18834299  1
  O  O379  1  0.38345489  0.67395387  0.69086154  1
  O  O380  1  0.70826846  0.16804703  0.19928435  1
  O  O381  1  0.71142708  0.16690073  0.69640457  1
  O  O382  1  0.71040835  0.66292560  0.19307403  1
  O  O383  1  0.71070927  0.66772573  0.69643729  1
  O  O384  1  0.12250339  0.08495534  0.30605568  1
  O  O385  1  0.12417281  0.07963923  0.80414881  1
  O  O386  1  0.12094791  0.57927653  0.30116805  1
  O  O387  1  0.11947510  0.58412445  0.79743345  1
  O  O388  1  0.45640286  0.08597372  0.30284994  1
  O  O389  1  0.45741195  0.08765217  0.80583632  1
  O  O390  1  0.45157626  0.57635130  0.30634872  1
  O  O391  1  0.45857358  0.58633145  0.80789677  1
  O  O392  1  0.78957997  0.08847930  0.31093390  1
  O  O393  1  0.79185524  0.08476634  0.80546997  1
  O  O394  1  0.79029134  0.57762303  0.30487916  1
  O  O395  1  0.78773958  0.58232732  0.80412473  1
  O  O396  1  0.29477006  0.33462442  0.30538344  1
  O  O397  1  0.28365461  0.33769467  0.80382984  1
  O  O398  1  0.27926872  0.82731692  0.31260721  1
  O  O399  1  0.29233736  0.83835705  0.80278194  1
  O  O400  1  0.62362821  0.33708900  0.30646138  1
  O  O401  1  0.62459692  0.33237557  0.80656230  1
  O  O402  1  0.62715750  0.82900118  0.31503555  1
  O  O403  1  0.62538202  0.83777249  0.80793545  1
  O  O404  1  0.95748134  0.33081903  0.30305567  1
  O  O405  1  0.95320578  0.33209232  0.79728844  1
  O  O406  1  0.95147725  0.83122300  0.30116638  1
  O  O407  1  0.95628876  0.83466892  0.80369028  1
  O  O408  1  0.12102133  0.41539451  0.30153439  1
  O  O409  1  0.12393014  0.41857214  0.80187199  1
  O  O410  1  0.12963300  0.91950613  0.31047479  1
  O  O411  1  0.12464091  0.91560562  0.80295674  1
  O  O412  1  0.45960557  0.41810486  0.30684203  1
  O  O413  1  0.45505484  0.41587538  0.80003627  1
  O  O414  1  0.46931838  0.91935876  0.30640071  1
  O  O415  1  0.45700368  0.91836369  0.80518014  1
  O  O416  1  0.79253615  0.41381304  0.30412142  1
  O  O417  1  0.78815244  0.41517482  0.80443582  1
  O  O418  1  0.78926931  0.91905665  0.30465379  1
  O  O419  1  0.79212902  0.91869344  0.80534106  1
  O  O420  1  0.29076476  0.16999105  0.30765095  1
  O  O421  1  0.28502497  0.15375106  0.80491071  1
  O  O422  1  0.28745370  0.66155144  0.30541271  1
  O  O423  1  0.28606777  0.67796088  0.80325585  1
  O  O424  1  0.62463927  0.17136215  0.31093418  1
  O  O425  1  0.62760119  0.16597258  0.80589996  1
  O  O426  1  0.63419804  0.66138443  0.30671127  1
  O  O427  1  0.62002775  0.66915235  0.79949480  1
  O  O428  1  0.95737333  0.16623969  0.30547906  1
  O  O429  1  0.95902172  0.16418728  0.80596514  1
  O  O430  1  0.95665755  0.66355843  0.30442806  1
  O  O431  1  0.95219865  0.66784405  0.80511577  1
  F  F432  1  0.04682299  0.00463976  0.20268848  1
  F  F433  1  0.04567692  -0.00032354  0.70225263  1
  F  F434  1  0.04274077  0.49717663  0.19864113  1
  F  F435  1  0.04230047  0.49791458  0.69725978  1
  F  F436  1  0.38191477  0.01079706  0.19731050  1
  F  F437  1  0.37599245  0.00018727  0.69974358  1
  F  F438  1  0.38010005  0.49828844  0.20130664  1
  F  F439  1  0.38205492  0.49798830  0.69649148  1
  F  F440  1  0.71045806  0.00604828  0.20637411  1
  F  F441  1  0.71373182  0.00123000  0.70259748  1
  F  F442  1  0.71409939  0.49606993  0.20269344  1
  F  F443  1  0.70864519  0.50014325  0.70306325  1
  F  F444  1  0.21147127  0.24421260  0.20112504  1
  F  F445  1  0.20059325  0.24644949  0.69629750  1
  F  F446  1  0.20778827  0.75272814  0.20198516  1
  F  F447  1  0.21274665  0.75543388  0.69770155  1
  F  F448  1  0.54704375  0.25019991  0.20640473  1
  F  F449  1  0.54882432  0.24966501  0.70135894  1
  F  F450  1  0.55351302  0.76086578  0.20367169  1
  F  F451  1  0.54625048  0.75597225  0.70193841  1
  F  F452  1  0.87768417  0.24646824  0.20371967  1
  F  F453  1  0.87576797  0.24615741  0.69966771  1
  F  F454  1  0.87499547  0.74855760  0.20117232  1
  F  F455  1  0.87594938  0.75163843  0.70258328  1
  F  F456  1  0.28291742  0.01103007  0.30315387  1
  F  F457  1  0.28859353  -0.00127390  0.79758948  1
  F  F458  1  0.28896211  0.49822977  0.29815668  1
  F  F459  1  0.28790965  0.49567115  0.79406687  1
  F  F460  1  0.62296518  0.00261803  0.30270000  1
  F  F461  1  0.62943751  0.00237753  0.80133773  1
  F  F462  1  0.62344215  0.49734925  0.29972323  1
  F  F463  1  0.61937136  0.49945336  0.79839853  1
  F  F464  1  0.95007276  0.00738029  0.30282266  1
  F  F465  1  0.95632977  -0.00038305  0.79833543  1
  F  F466  1  0.95654108  0.49199539  0.29647104  1
  F  F467  1  0.95184825  0.50026453  0.79252545  1
  F  F468  1  0.11762746  0.24388415  0.30061133  1
  F  F469  1  0.12086764  0.24374675  0.79717496  1
  F  F470  1  0.11900231  0.74322476  0.29962117  1
  F  F471  1  0.12045142  0.75659749  0.79576818  1
  F  F472  1  0.45601594  0.25163631  0.30105168  1
  F  F473  1  0.46960132  0.24738668  0.80208289  1
  F  F474  1  0.45555385  0.75816547  0.31166123  1
  F  F475  1  0.45444053  0.75468204  0.79680933  1
  F  F476  1  0.78958367  0.25149902  0.30081319  1
  F  F477  1  0.78851962  0.24942658  0.79775430  1
  F  F478  1  0.79084125  0.74319793  0.29995850  1
  F  F479  1  0.78819270  0.75170974  0.79885801  1
