# generated using pymatgen
data_K24Na3Li5Mg64Fe17Si79(O5F)48
_symmetry_space_group_name_H-M   'P 1'
_cell_length_a   16.09813964
_cell_length_b   18.57774559
_cell_length_c   20.57188134
_cell_angle_alpha   90.01469363
_cell_angle_beta   100.00523699
_cell_angle_gamma   89.97459130
_symmetry_Int_Tables_number   1
_chemical_formula_structural   K24Na3Li5Mg64Fe17Si79(O5F)48
_chemical_formula_sum   'K24 Na3 Li5 Mg64 Fe17 Si79 O240 F48'
_cell_volume   6058.80701799
_cell_formula_units_Z   1
loop_
 _symmetry_equiv_pos_site_id
 _symmetry_equiv_pos_as_xyz
  1  'x, y, z'
loop_
 _atom_site_type_symbol
 _atom_site_label
 _atom_site_symmetry_multiplicity
 _atom_site_fract_x
 _atom_site_fract_y
 _atom_site_fract_z
 _atom_site_occupancy
  K  K0  1  0.00489309  -0.00854498  -0.00020255  1
  K  K1  1  -0.00467343  0.00209691  0.50696883  1
  K  K2  1  0.00386993  0.49972271  -0.00046263  1
  K  K3  1  -0.00703882  0.50386026  0.49653124  1
  K  K4  1  0.32929916  -0.00351295  0.00194596  1
  K  K5  1  0.33437142  -0.00618285  0.49807272  1
  K  K6  1  0.33150281  0.49826570  0.00120115  1
  K  K7  1  0.33706996  0.51827699  0.49739033  1
  K  K8  1  0.66543168  -0.00833988  -0.00504532  1
  K  K9  1  0.68107653  -0.00181751  0.50858594  1
  K  K10  1  0.66752487  0.51148425  -0.00547614  1
  K  K11  1  0.66120675  0.50582226  0.50695419  1
  K  K12  1  0.16670686  0.24914324  0.00060697  1
  K  K13  1  0.16248237  0.25290529  0.49880817  1
  K  K14  1  0.15983292  0.75559421  0.00833399  1
  K  K15  1  0.16706627  0.75063391  0.49220942  1
  K  K16  1  0.49740017  0.24853310  -0.00318768  1
  K  K17  1  0.51021257  0.25336249  0.50662026  1
  K  K18  1  0.50822676  0.74974583  0.00031128  1
  K  K19  1  0.50531719  0.74052202  0.49957638  1
  K  K20  1  0.83370475  0.25136330  -0.00157236  1
  K  K21  1  0.83015615  0.24419655  0.51608341  1
  K  K22  1  0.83706035  0.75596449  -0.00000337  1
  K  K23  1  0.82682237  0.75014269  0.50205212  1
  Na  Na24  1  -0.00050046  0.74832773  0.24344156  1
  Na  Na25  1  0.66642610  0.58211776  0.75198351  1
  Na  Na26  1  0.33221590  0.92056486  0.75236915  1
  Li  Li27  1  0.49043378  -0.00616346  0.24900164  1
  Li  Li28  1  0.83210426  0.50424741  0.24263050  1
  Li  Li29  1  -0.00443828  0.08112848  0.75851520  1
  Li  Li30  1  0.33721779  0.91533235  0.24186727  1
  Li  Li31  1  0.83171436  0.83452302  0.75072305  1
  Mg  Mg32  1  0.33310260  0.75219548  0.74642485  1
  Mg  Mg33  1  0.33621880  0.75349260  0.25025940  1
  Mg  Mg34  1  0.16704749  0.50141334  0.24851543  1
  Mg  Mg35  1  0.83267136  0.49754412  0.74673860  1
  Mg  Mg36  1  0.00058531  0.25133081  0.24761257  1
  Mg  Mg37  1  0.66929385  0.75056114  0.25281953  1
  Mg  Mg38  1  -0.00331038  0.75058684  0.74835739  1
  Mg  Mg39  1  -0.00299824  0.24713332  0.74629844  1
  Mg  Mg40  1  0.50030986  0.49965247  0.74802155  1
  Mg  Mg41  1  0.66862325  0.75102746  0.75106532  1
  Mg  Mg42  1  0.16991415  -0.00189988  0.24774306  1
  Mg  Mg43  1  0.50217569  0.50064528  0.25489447  1
  Mg  Mg44  1  0.83343101  -0.00052880  0.25011694  1
  Mg  Mg45  1  0.16649630  0.50070868  0.75105829  1
  Mg  Mg46  1  0.66746377  0.24894701  0.25388621  1
  Mg  Mg47  1  0.83603226  -0.00199571  0.74877485  1
  Mg  Mg48  1  0.33079476  0.24893405  0.75194445  1
  Mg  Mg49  1  0.66632915  0.24864229  0.74267723  1
  Mg  Mg50  1  0.33392561  0.24806463  0.25478680  1
  Mg  Mg51  1  0.49838346  -0.00188002  0.74961525  1
  Mg  Mg52  1  0.15947703  0.00061391  0.75123518  1
  Mg  Mg53  1  0.33237698  0.41515649  0.75032328  1
  Mg  Mg54  1  0.50268909  0.83381376  0.75204034  1
  Mg  Mg55  1  0.16514215  0.33489464  0.75079356  1
  Mg  Mg56  1  0.83355329  0.33150068  0.74543879  1
  Mg  Mg57  1  0.00034384  0.58428740  0.75043219  1
  Mg  Mg58  1  0.67112963  0.58426543  0.25243276  1
  Mg  Mg59  1  0.16856932  0.83457912  0.24579178  1
  Mg  Mg60  1  -0.00311323  0.91593570  0.74824992  1
  Mg  Mg61  1  0.83337629  0.16630519  0.25080723  1
  Mg  Mg62  1  0.15930158  0.16409220  0.75035014  1
  Mg  Mg63  1  0.50005736  0.16234057  0.25510119  1
  Mg  Mg64  1  0.33407103  0.41528275  0.25456527  1
  Mg  Mg65  1  -0.00375880  0.58290377  0.24736139  1
  Mg  Mg66  1  0.16641508  0.66770840  0.24818603  1
  Mg  Mg67  1  0.83292650  0.33711407  0.25072554  1
  Mg  Mg68  1  0.33625470  0.58485151  0.74771024  1
  Mg  Mg69  1  0.83195516  0.66745685  0.74928474  1
  Mg  Mg70  1  0.83280290  0.66381653  0.24907049  1
  Mg  Mg71  1  0.83670898  0.16309530  0.74640964  1
  Mg  Mg72  1  0.66617339  0.41431566  0.74435573  1
  Mg  Mg73  1  0.16654698  0.83419669  0.74906741  1
  Mg  Mg74  1  0.49887690  0.33293958  0.74531159  1
  Mg  Mg75  1  0.67025735  0.91415449  0.75161742  1
  Mg  Mg76  1  0.00208657  0.41462905  0.74852047  1
  Mg  Mg77  1  0.83271014  0.83355674  0.25035554  1
  Mg  Mg78  1  0.49828329  0.16406073  0.74754985  1
  Mg  Mg79  1  -0.00561531  0.41781211  0.24609453  1
  Mg  Mg80  1  0.66248762  0.91893899  0.25288563  1
  Mg  Mg81  1  0.00041469  0.91506711  0.24810635  1
  Mg  Mg82  1  0.50193029  0.33270094  0.25672736  1
  Mg  Mg83  1  0.32902923  0.08343829  0.75052423  1
  Mg  Mg84  1  0.16831099  0.66692416  0.74983466  1
  Mg  Mg85  1  0.67010539  0.41713452  0.25471272  1
  Mg  Mg86  1  0.66441240  0.08191550  0.25426268  1
  Mg  Mg87  1  0.33672052  0.58523781  0.25143713  1
  Mg  Mg88  1  0.16273071  0.33438130  0.24916335  1
  Mg  Mg89  1  0.16335280  0.16573777  0.24904899  1
  Mg  Mg90  1  0.49794588  0.83744832  0.25161285  1
  Mg  Mg91  1  0.33459196  0.07901297  0.25299277  1
  Mg  Mg92  1  0.50215898  0.66589252  0.25291241  1
  Mg  Mg93  1  0.50364075  0.66748908  0.75061215  1
  Mg  Mg94  1  0.66801987  0.08280147  0.74624511  1
  Mg  Mg95  1  -0.00080038  0.08513837  0.24838956  1
  Fe  Fe96  1  0.68982888  0.67255148  0.11193851  1
  Fe  Fe97  1  0.47717592  0.58354833  0.39296357  1
  Fe  Fe98  1  0.86411568  0.08026689  0.60827126  1
  Fe  Fe99  1  0.64539437  0.66508875  0.89285412  1
  Fe  Fe100  1  0.69139126  0.33617199  0.60533199  1
  Fe  Fe101  1  0.02210558  0.83950480  0.10645958  1
  Fe  Fe102  1  0.01930479  0.16341439  0.10858729  1
  Fe  Fe103  1  0.14482276  0.42469222  0.89046701  1
  Fe  Fe104  1  0.85431911  0.58316897  0.10785789  1
  Fe  Fe105  1  0.51744205  0.58537181  0.60901735  1
  Fe  Fe106  1  0.14239385  0.07522047  0.89032593  1
  Fe  Fe107  1  0.64595339  0.83560513  0.89306226  1
  Fe  Fe108  1  0.36359757  0.83111777  0.10962968  1
  Fe  Fe109  1  0.02991362  0.66019330  0.10547629  1
  Fe  Fe110  1  0.97688466  0.16380918  0.88842687  1
  Fe  Fe111  1  0.97685516  0.33243421  0.88589598  1
  Fe  Fe112  1  0.01833668  0.33806005  0.10875880  1
  Si  Si113  1  0.52703780  0.08563493  0.11944487  1
  Si  Si114  1  0.80956959  0.58360366  0.38880191  1
  Si  Si115  1  0.35612513  0.16242997  0.61434336  1
  Si  Si116  1  0.68640395  0.16182805  0.60637192  1
  Si  Si117  1  0.02650820  0.82934697  0.61235168  1
  Si  Si118  1  0.97275770  0.66513501  0.38667705  1
  Si  Si119  1  0.20331888  0.57943413  0.11475423  1
  Si  Si120  1  0.69068330  0.33056101  0.11805269  1
  Si  Si121  1  0.30602805  0.16406474  0.38875864  1
  Si  Si122  1  0.35146693  0.67463318  0.60986671  1
  Si  Si123  1  0.30569506  0.33050740  0.38899756  1
  Si  Si124  1  0.03037758  0.17495172  0.60681442  1
  Si  Si125  1  0.81028851  0.91786247  0.38775072  1
  Si  Si126  1  0.19023614  0.08454879  0.61232288  1
  Si  Si127  1  0.47239537  0.08450996  0.88421562  1
  Si  Si128  1  0.97337703  0.83323961  0.88160390  1
  Si  Si129  1  0.47346553  0.91850445  0.88760718  1
  Si  Si130  1  0.19341870  0.58295803  0.61350904  1
  Si  Si131  1  0.81633318  0.57409507  0.88390604  1
  Si  Si132  1  0.14661472  0.59437532  0.88651667  1
  Si  Si133  1  0.30995986  0.82889423  0.88213095  1
  Si  Si134  1  0.80398466  0.08913185  0.88403451  1
  Si  Si135  1  0.47470460  0.91674664  0.38744067  1
  Si  Si136  1  0.68997279  0.16653102  0.11785482  1
  Si  Si137  1  0.35356468  0.83753454  0.61392254  1
  Si  Si138  1  0.03096334  0.33918643  0.60923803  1
  Si  Si139  1  0.68745461  0.84040330  0.11889520  1
  Si  Si140  1  0.46965833  0.58052169  0.88688277  1
  Si  Si141  1  0.85917275  0.91036596  0.61041314  1
  Si  Si142  1  0.97424625  0.16910686  0.38691645  1
  Si  Si143  1  0.85061829  0.91924190  0.11501864  1
  Si  Si144  1  0.19780526  0.41783933  0.61262517  1
  Si  Si145  1  0.30830153  0.16753634  0.88677076  1
  Si  Si146  1  0.85058778  0.07998783  0.11493532  1
  Si  Si147  1  0.13962278  0.91768489  0.38634335  1
  Si  Si148  1  0.97323928  0.83354547  0.38640934  1
  Si  Si149  1  0.81000197  0.08376261  0.38732882  1
  Si  Si150  1  0.14615587  0.90546607  0.88680681  1
  Si  Si151  1  0.30363067  0.67093959  0.38701745  1
  Si  Si152  1  0.13886559  0.08256146  0.38689325  1
  Si  Si153  1  0.64229360  0.16349437  0.38973984  1
  Si  Si154  1  0.19539828  0.92238250  0.11080680  1
  Si  Si155  1  0.02893479  0.66487971  0.61366746  1
  Si  Si156  1  0.47569853  0.40988291  0.39217228  1
  Si  Si157  1  0.19770960  0.08835514  0.11564996  1
  Si  Si158  1  0.64470770  0.32989237  0.38996604  1
  Si  Si159  1  0.52160346  0.08006885  0.61282545  1
  Si  Si160  1  0.14206641  0.41828043  0.38673436  1
  Si  Si161  1  0.64248173  0.83762412  0.38886182  1
  Si  Si162  1  0.80758284  0.41642272  0.38847431  1
  Si  Si163  1  0.63793402  0.33241118  0.88033615  1
  Si  Si164  1  0.97417925  0.33545210  0.38670547  1
  Si  Si165  1  0.86127711  0.58748577  0.61264046  1
  Si  Si166  1  0.86405491  0.42130672  0.60793995  1
  Si  Si167  1  0.52988137  0.57752661  0.11712039  1
  Si  Si168  1  0.31119874  0.66912092  0.88245459  1
  Si  Si169  1  0.64766429  0.67030676  0.39175510  1
  Si  Si170  1  0.13943056  0.58409530  0.38591695  1
  Si  Si171  1  0.80559836  0.40966921  0.88228998  1
  Si  Si172  1  0.63746395  0.16627542  0.88142339  1
  Si  Si173  1  0.52751946  0.41337005  0.12083299  1
  Si  Si174  1  0.19859291  0.41331305  0.11618660  1
  Si  Si175  1  0.31028923  0.33188658  0.88732466  1
  Si  Si176  1  0.47373985  0.41432784  0.88258008  1
  Si  Si177  1  0.52944747  0.92201474  0.11634187  1
  Si  Si178  1  0.47337037  0.08314791  0.38968946  1
  Si  Si179  1  0.81308200  0.92492573  0.88536139  1
  Si  Si180  1  0.30590729  0.83677850  0.38435016  1
  Si  Si181  1  0.36385670  0.16715369  0.11977240  1
  Si  Si182  1  0.51534828  0.41523858  0.60767196  1
  Si  Si183  1  0.35638337  0.32713865  0.61360241  1
  Si  Si184  1  0.84756115  0.41824369  0.11282015  1
  Si  Si185  1  0.36478968  0.66141566  0.11466065  1
  Si  Si186  1  0.68918354  0.83353028  0.61310868  1
  Si  Si187  1  0.97335559  0.66690294  0.88406717  1
  Si  Si188  1  0.18520035  0.92000605  0.61395874  1
  Si  Si189  1  0.52135580  0.91460305  0.61258901  1
  Si  Si190  1  0.36400307  0.33136319  0.12071952  1
  Si  Si191  1  0.69487629  0.66926854  0.61169711  1
  O  O192  1  0.28611584  0.11456145  0.09013413  1
  O  O193  1  0.27379505  0.11358177  0.58296660  1
  O  O194  1  0.29427741  0.59770048  0.09158798  1
  O  O195  1  0.26263975  0.62932312  0.58165107  1
  O  O196  1  0.60826272  0.11625044  0.08780429  1
  O  O197  1  0.59703472  0.11532393  0.58018081  1
  O  O198  1  0.60814097  0.59942260  0.08276062  1
  O  O199  1  0.61448050  0.62150369  0.57916796  1
  O  O200  1  0.93107172  0.09523264  0.08093658  1
  O  O201  1  0.94733644  0.13251435  0.57111764  1
  O  O202  1  0.95040102  0.59248878  0.07134525  1
  O  O203  1  0.93845610  0.62772988  0.58259160  1
  O  O204  1  0.12367644  0.36153079  0.08288286  1
  O  O205  1  0.10901138  0.37894829  0.57949428  1
  O  O206  1  0.11460771  0.87769916  0.07281741  1
  O  O207  1  0.09922410  0.87450073  0.58058767  1
  O  O208  1  0.44873773  0.35830493  0.09266827  1
  O  O209  1  0.43703940  0.35566390  0.58335908  1
  O  O210  1  0.45953312  0.86801721  0.07762887  1
  O  O211  1  0.43213883  0.87277166  0.58161799  1
  O  O212  1  0.77324912  0.35419226  0.08824711  1
  O  O213  1  0.78305394  0.37719170  0.57113596  1
  O  O214  1  0.77392494  0.86162237  0.09050658  1
  O  O215  1  0.76611747  0.87180467  0.58182858  1
  O  O216  1  0.28716528  0.38556034  0.09151719  1
  O  O217  1  0.27223023  0.37471714  0.58261161  1
  O  O218  1  0.27717319  0.89689644  0.07982444  1
  O  O219  1  0.26859382  0.88732061  0.58633198  1
  O  O220  1  0.60834475  0.38195891  0.09015054  1
  O  O221  1  0.59277173  0.38873409  0.57247532  1
  O  O222  1  0.62168520  0.90730865  0.09348926  1
  O  O223  1  0.59957931  0.87716624  0.58225433  1
  O  O224  1  0.92894664  0.40180055  0.07844053  1
  O  O225  1  0.94761899  0.38797097  0.57984243  1
  O  O226  1  0.92800543  0.90256186  0.07793930  1
  O  O227  1  0.93169019  0.85900777  0.58220864  1
  O  O228  1  0.12516981  0.14376794  0.08410467  1
  O  O229  1  0.11259779  0.13720750  0.57886018  1
  O  O230  1  0.13322520  0.63276944  0.07666634  1
  O  O231  1  0.10028825  0.61736368  0.58360822  1
  O  O232  1  0.44787034  0.14041855  0.09061301  1
  O  O233  1  0.43532288  0.12700155  0.58446643  1
  O  O234  1  0.44931425  0.62970113  0.08860656  1
  O  O235  1  0.42450654  0.64516327  0.57291802  1
  O  O236  1  0.77240500  0.13813489  0.08888993  1
  O  O237  1  0.75771114  0.12182724  0.57252421  1
  O  O238  1  0.78126698  0.65605857  0.07239050  1
  O  O239  1  0.77704419  0.63413888  0.58218164  1
  O  O240  1  0.06353605  0.12675299  0.41647175  1
  O  O241  1  0.04902920  0.09316229  0.92779195  1
  O  O242  1  0.06279074  0.62353498  0.41726358  1
  O  O243  1  0.06443977  0.62883534  0.91319710  1
  O  O244  1  0.39648858  0.12470990  0.42067173  1
  O  O245  1  0.39467740  0.11999839  0.91447264  1
  O  O246  1  0.38807109  0.63109003  0.42383637  1
  O  O247  1  0.38146497  0.60795623  0.91196356  1
  O  O248  1  0.73028827  0.11920769  0.41724971  1
  O  O249  1  0.71430679  0.11187483  0.91083168  1
  O  O250  1  0.73847092  0.62908236  0.42121195  1
  O  O251  1  0.73597611  0.59952379  0.91470026  1
  O  O252  1  0.23023809  0.37425101  0.41828079  1
  O  O253  1  0.23657458  0.36118560  0.92356981  1
  O  O254  1  0.23160620  0.88063757  0.41682228  1
  O  O255  1  0.22459975  0.84768887  0.91208721  1
  O  O256  1  0.56298518  0.36237234  0.41798347  1
  O  O257  1  0.55664213  0.36405356  0.91088778  1
  O  O258  1  0.56506710  0.87566327  0.42041926  1
  O  O259  1  0.55104305  0.87354640  0.92762107  1
  O  O260  1  0.89911407  0.37643688  0.41835903  1
  O  O261  1  0.87187281  0.34931354  0.91352994  1
  O  O262  1  0.89752626  0.87362087  0.41970189  1
  O  O263  1  0.90067840  0.87808237  0.91119183  1
  O  O264  1  0.06450766  0.37688247  0.41584721  1
  O  O265  1  0.04867510  0.40541665  0.92222077  1
  O  O266  1  0.06496634  0.87319340  0.41651269  1
  O  O267  1  0.06444334  0.86967078  0.91382033  1
  O  O268  1  0.39828797  0.36501219  0.41897849  1
  O  O269  1  0.39670165  0.37921812  0.91438348  1
  O  O270  1  0.39639697  0.87666522  0.41712849  1
  O  O271  1  0.38324981  0.88917966  0.90771065  1
  O  O272  1  0.73147896  0.37464295  0.41933492  1
  O  O273  1  0.71593799  0.38629959  0.90807286  1
  O  O274  1  0.73050298  0.88300695  0.41800448  1
  O  O275  1  0.73942365  0.89649546  0.92310409  1
  O  O276  1  0.22980798  0.12178838  0.41814783  1
  O  O277  1  0.23391453  0.14013099  0.92285320  1
  O  O278  1  0.22444664  0.63054781  0.41612763  1
  O  O279  1  0.22302821  0.65378166  0.90934481  1
  O  O280  1  0.56363679  0.12560912  0.41918409  1
  O  O281  1  0.55523301  0.13574449  0.91150505  1
  O  O282  1  0.57678876  0.63399759  0.42797020  1
  O  O283  1  0.54732365  0.62703110  0.92354248  1
  O  O284  1  0.89663151  0.12945236  0.41661049  1
  O  O285  1  0.87072707  0.14867064  0.91596423  1
  O  O286  1  0.90072641  0.62258586  0.42128299  1
  O  O287  1  0.90148204  0.62228280  0.91412213  1
  O  O288  1  0.17786302  0.00769507  0.08647292  1
  O  O289  1  0.17166113  0.00225177  0.58251110  1
  O  O290  1  0.18345791  0.49578946  0.08862139  1
  O  O291  1  0.19482446  0.50066396  0.58365381  1
  O  O292  1  0.50412073  0.00564633  0.08939910  1
  O  O293  1  0.50713715  -0.00236039  0.58290635  1
  O  O294  1  0.50129016  0.49346987  0.09207888  1
  O  O295  1  0.48104444  0.49247648  0.57833346  1
  O  O296  1  0.81013845  0.00016957  0.09360697  1
  O  O297  1  0.85899688  -0.01429972  0.57066223  1
  O  O298  1  0.80178898  0.49227373  0.08572494  1
  O  O299  1  0.85600282  0.50606070  0.58038426  1
  O  O300  1  -0.02127850  0.25034663  0.07514372  1
  O  O301  1  0.02413730  0.25871214  0.57507841  1
  O  O302  1  -0.00186880  0.74985815  0.06887139  1
  O  O303  1  0.03133711  0.74652523  0.58295551  1
  O  O304  1  0.34415683  0.24970384  0.09104377  1
  O  O305  1  0.33782690  0.24448321  0.58451132  1
  O  O306  1  0.33732325  0.73598661  0.07677527  1
  O  O307  1  0.32891181  0.75764867  0.58181163  1
  O  O308  1  0.66509763  0.24845575  0.08998919  1
  O  O309  1  0.66982862  0.24130246  0.57326076  1
  O  O310  1  0.64732142  0.76604267  0.08862683  1
  O  O311  1  0.68111545  0.75231805  0.57992442  1
  O  O312  1  0.14178180  0.00039150  0.41804079  1
  O  O313  1  0.17523399  -0.01921192  0.92174204  1
  O  O314  1  0.14936973  0.50092802  0.41768519  1
  O  O315  1  0.17765116  0.51941303  0.92152985  1
  O  O316  1  0.47974300  0.00027362  0.41916388  1
  O  O317  1  0.48568100  0.00353105  0.91502139  1
  O  O318  1  0.48518969  0.48772059  0.42643949  1
  O  O319  1  0.48555223  0.49569643  0.91277834  1
  O  O320  1  0.82327506  0.00129338  0.41661456  1
  O  O321  1  0.83261935  0.00850568  0.91270148  1
  O  O322  1  0.81486231  0.49946789  0.41813404  1
  O  O323  1  0.83540034  0.49022167  0.91056607  1
  O  O324  1  0.30641581  0.24725418  0.41818224  1
  O  O325  1  0.33792042  0.24970739  0.91234168  1
  O  O326  1  0.30552360  0.75479621  0.41578820  1
  O  O327  1  0.34487842  0.74887922  0.91035267  1
  O  O328  1  0.65613821  0.24635324  0.41826121  1
  O  O329  1  0.65430091  0.24936858  0.91055698  1
  O  O330  1  0.65934265  0.75551728  0.41850825  1
  O  O331  1  0.67326075  0.75048953  0.93692377  1
  O  O332  1  0.98405615  0.25211028  0.41650134  1
  O  O333  1  1.02641153  0.24896265  0.92130909  1
  O  O334  1  0.98104294  0.74964760  0.41515491  1
  O  O335  1  0.97472877  0.75020226  0.91072044  1
  O  O336  1  0.21305758  0.08677397  0.19710949  1
  O  O337  1  0.20872397  0.08543925  0.69192323  1
  O  O338  1  0.21632552  0.58111308  0.19624508  1
  O  O339  1  0.21076817  0.58335648  0.69369446  1
  O  O340  1  0.54720298  0.08869040  0.19899078  1
  O  O341  1  0.54087912  0.08221017  0.69295955  1
  O  O342  1  0.54694722  0.57989296  0.19824951  1
  O  O343  1  0.52978708  0.58310839  0.69858596  1
  O  O344  1  0.87264592  0.08473523  0.19652153  1
  O  O345  1  0.87387983  0.07924384  0.69756306  1
  O  O346  1  0.87788850  0.58471875  0.19963043  1
  O  O347  1  0.87936760  0.58404175  0.69238102  1
  O  O348  1  0.04365993  0.33471218  0.20231167  1
  O  O349  1  0.04825618  0.33679663  0.68869766  1
  O  O350  1  0.05000300  0.84279199  0.19749278  1
  O  O351  1  0.04437292  0.83011028  0.69210852  1
  O  O352  1  0.38032192  0.33077949  0.20141946  1
  O  O353  1  0.37297588  0.33026540  0.69393327  1
  O  O354  1  0.38294234  0.83004498  0.20027629  1
  O  O355  1  0.37922894  0.83152992  0.69250742  1
  O  O356  1  0.70727295  0.33104334  0.19873544  1
  O  O357  1  0.70985307  0.33167702  0.69640116  1
  O  O358  1  0.70832868  0.83861300  0.20028680  1
  O  O359  1  0.70507340  0.83460317  0.69217420  1
  O  O360  1  0.21461582  0.41407924  0.19772111  1
  O  O361  1  0.21350583  0.41693403  0.69247221  1
  O  O362  1  0.20835424  0.91949328  0.19178592  1
  O  O363  1  0.19857753  0.91800665  0.69277929  1
  O  O364  1  0.54527266  0.41278500  0.20147811  1
  O  O365  1  0.53730470  0.41298923  0.68909293  1
  O  O366  1  0.54446229  0.91795050  0.19673904  1
  O  O367  1  0.53935605  0.91722619  0.69225782  1
  O  O368  1  0.87265379  0.41247800  0.19385616  1
  O  O369  1  0.87899510  0.41908171  0.68814462  1
  O  O370  1  0.87481462  0.91826210  0.19646386  1
  O  O371  1  0.87748535  0.91510944  0.68985675  1
  O  O372  1  0.04309828  0.16689919  0.20220450  1
  O  O373  1  0.04876443  0.17793753  0.68578180  1
  O  O374  1  0.05238214  0.65509614  0.19688212  1
  O  O375  1  0.04619927  0.66509429  0.69355110  1
  O  O376  1  0.37976044  0.16815568  0.20024565  1
  O  O377  1  0.37405774  0.16587847  0.69442668  1
  O  O378  1  0.38039406  0.66648435  0.19587100  1
  O  O379  1  0.37047019  0.66913659  0.69036454  1
  O  O380  1  0.70827760  0.16644187  0.19864234  1
  O  O381  1  0.70384122  0.16325311  0.68763027  1
  O  O382  1  0.70976411  0.66780001  0.20470896  1
  O  O383  1  0.71565990  0.67376667  0.69085338  1
  O  O384  1  0.12264334  0.08352887  0.30740520  1
  O  O385  1  0.12006194  0.08310024  0.79865896  1
  O  O386  1  0.12528583  0.58130042  0.30661901  1
  O  O387  1  0.12564177  0.58724278  0.80502749  1
  O  O388  1  0.45410248  0.08790968  0.31072228  1
  O  O389  1  0.45525324  0.08443554  0.80375243  1
  O  O390  1  0.45702891  0.58245495  0.30169861  1
  O  O391  1  0.45275639  0.58174119  0.80605932  1
  O  O392  1  0.79122375  0.08507543  0.30734066  1
  O  O393  1  0.78448543  0.08571389  0.80311020  1
  O  O394  1  0.78919371  0.58453397  0.31006520  1
  O  O395  1  0.80429529  0.57924809  0.80392704  1
  O  O396  1  0.28962511  0.33179494  0.30882414  1
  O  O397  1  0.29067808  0.33404384  0.80587435  1
  O  O398  1  0.28841093  0.83493718  0.30543045  1
  O  O399  1  0.28545454  0.82502105  0.80273251  1
  O  O400  1  0.62578442  0.33081956  0.30958302  1
  O  O401  1  0.61807250  0.32854462  0.80022286  1
  O  O402  1  0.62405225  0.83680641  0.30904019  1
  O  O403  1  0.62285561  0.83573076  0.80033803  1
  O  O404  1  0.95467164  0.33382224  0.30709518  1
  O  O405  1  0.95441030  0.33293143  0.79222492  1
  O  O406  1  0.95183002  0.84124927  0.30795482  1
  O  O407  1  0.95984781  0.83204647  0.80184745  1
  O  O408  1  0.12800327  0.41752736  0.30737028  1
  O  O409  1  0.12440491  0.41875145  0.79735334  1
  O  O410  1  0.12322507  0.91987842  0.30703173  1
  O  O411  1  0.12414001  0.91116668  0.80580859  1
  O  O412  1  0.45749418  0.41223078  0.31119852  1
  O  O413  1  0.45419990  0.41326584  0.80201715  1
  O  O414  1  0.46170229  0.91641602  0.30919355  1
  O  O415  1  0.46672749  0.91856011  0.80787989  1
  O  O416  1  0.78783172  0.41084134  0.30947442  1
  O  O417  1  0.78888203  0.41344864  0.80129053  1
  O  O418  1  0.79134572  0.91875732  0.30797692  1
  O  O419  1  0.78928261  0.92206553  0.80515069  1
  O  O420  1  0.29007271  0.16600856  0.30888361  1
  O  O421  1  0.28966277  0.16737398  0.80545821  1
  O  O422  1  0.29087598  0.66716375  0.30668333  1
  O  O423  1  0.29198315  0.66651804  0.80151767  1
  O  O424  1  0.62415007  0.16552887  0.30959287  1
  O  O425  1  0.61951172  0.16655303  0.80083128  1
  O  O426  1  0.62566823  0.66732044  0.31157416  1
  O  O427  1  0.61820342  0.67692234  0.80307706  1
  O  O428  1  0.95483201  0.16771652  0.30713811  1
  O  O429  1  0.95388346  0.16936506  0.79697910  1
  O  O430  1  0.95220612  0.66122366  0.30838425  1
  O  O431  1  0.95850154  0.66612650  0.80332879  1
  F  F432  1  0.04610528  0.00268877  0.20476385  1
  F  F433  1  0.04519119  -0.00994131  0.69636447  1
  F  F434  1  0.04889803  0.49662079  0.20257120  1
  F  F435  1  0.04768622  0.50496168  0.69808899  1
  F  F436  1  0.37786727  0.00532784  0.20307460  1
  F  F437  1  0.38154039  0.01053948  0.69756219  1
  F  F438  1  0.38143517  0.49398377  0.20620290  1
  F  F439  1  0.37496234  0.49754387  0.70101837  1
  F  F440  1  0.71185795  0.00262866  0.20676619  1
  F  F441  1  0.70939160  -0.00192313  0.69917498  1
  F  F442  1  0.70575809  0.49743750  0.20667635  1
  F  F443  1  0.71612524  0.49084728  0.69473679  1
  F  F444  1  0.21524574  0.25009534  0.20680984  1
  F  F445  1  0.21393698  0.25152225  0.70177380  1
  F  F446  1  0.21649435  0.74935702  0.20149844  1
  F  F447  1  0.20948824  0.74907814  0.69763261  1
  F  F448  1  0.54534719  0.24903573  0.20825701  1
  F  F449  1  0.54011065  0.24676870  0.69696678  1
  F  F450  1  0.54762585  0.75043441  0.20939417  1
  F  F451  1  0.54115744  0.75239855  0.69759117  1
  F  F452  1  0.87547646  0.25013197  0.20571406  1
  F  F453  1  0.87407308  0.24890637  0.69172183  1
  F  F454  1  0.86348333  0.75138606  0.20205542  1
  F  F455  1  0.88372926  0.74208381  0.69592224  1
  F  F456  1  0.28279744  0.00717930  0.30513655  1
  F  F457  1  0.28015568  0.01016860  0.79986618  1
  F  F458  1  0.28910289  0.49920555  0.30092541  1
  F  F459  1  0.28868456  0.50074157  0.79600818  1
  F  F460  1  0.63071568  0.00186694  0.30669054  1
  F  F461  1  0.61968194  0.00225359  0.79450473  1
  F  F462  1  0.62192716  0.49747587  0.30468826  1
  F  F463  1  0.61452987  0.48388005  0.79848084  1
  F  F464  1  0.95422474  0.00286034  0.29902429  1
  F  F465  1  0.95302705  -0.00850860  0.79919809  1
  F  F466  1  0.96504671  0.49690007  0.30195046  1
  F  F467  1  0.95646347  0.49942658  0.79265871  1
  F  F468  1  0.12396951  0.25014311  0.30330329  1
  F  F469  1  0.12137256  0.25177676  0.79439279  1
  F  F470  1  0.13601321  0.75129323  0.30236518  1
  F  F471  1  0.11988951  0.74877338  0.79423292  1
  F  F472  1  0.45626681  0.24863194  0.30480311  1
  F  F473  1  0.45414213  0.24892909  0.79536193  1
  F  F474  1  0.45722784  0.74826532  0.30369215  1
  F  F475  1  0.45136990  0.75024645  0.79539721  1
  F  F476  1  0.78796689  0.24879303  0.30143228  1
  F  F477  1  0.78494826  0.24562524  0.79117070  1
  F  F478  1  0.78855859  0.75549701  0.30561776  1
  F  F479  1  0.79006370  0.74838024  0.79703213  1
