# generated using pymatgen
data_K24Na3Li5Mg64Fe17Si79(O5F)48
_symmetry_space_group_name_H-M   'P 1'
_cell_length_a   16.10017323
_cell_length_b   18.59116083
_cell_length_c   20.54981164
_cell_angle_alpha   90.00851600
_cell_angle_beta   100.01336547
_cell_angle_gamma   89.99306486
_symmetry_Int_Tables_number   1
_chemical_formula_structural   K24Na3Li5Mg64Fe17Si79(O5F)48
_chemical_formula_sum   'K24 Na3 Li5 Mg64 Fe17 Si79 O240 F48'
_cell_volume   6057.29156553
_cell_formula_units_Z   1
loop_
 _symmetry_equiv_pos_site_id
 _symmetry_equiv_pos_as_xyz
  1  'x, y, z'
loop_
 _atom_site_type_symbol
 _atom_site_label
 _atom_site_symmetry_multiplicity
 _atom_site_fract_x
 _atom_site_fract_y
 _atom_site_fract_z
 _atom_site_occupancy
  K  K0  1  0.00201049  -0.00467661  0.00200006  1
  K  K1  1  0.00498379  0.01450628  0.49329042  1
  K  K2  1  0.00273645  0.50575150  -0.00912867  1
  K  K3  1  0.00169006  0.49893165  0.50983486  1
  K  K4  1  0.32591178  0.00515633  -0.00314056  1
  K  K5  1  0.32026712  -0.00152583  0.50103887  1
  K  K6  1  0.33316975  0.50480494  -0.01270863  1
  K  K7  1  0.34220202  0.50588125  0.51865814  1
  K  K8  1  0.66771533  0.00383126  -0.00459195  1
  K  K9  1  0.66826484  -0.00117127  0.50021610  1
  K  K10  1  0.66474054  0.49355223  -0.01517148  1
  K  K11  1  0.65983093  0.50296058  0.51774330  1
  K  K12  1  0.15438845  0.25415216  -0.01016754  1
  K  K13  1  0.16490040  0.24007742  0.50190994  1
  K  K14  1  0.16854456  0.74895573  0.00351391  1
  K  K15  1  0.17625831  0.75138601  0.50094574  1
  K  K16  1  0.49807765  0.24747676  -0.01394289  1
  K  K17  1  0.51033522  0.25085498  0.52093463  1
  K  K18  1  0.50155052  0.74997119  -0.00623764  1
  K  K19  1  0.50230597  0.74157366  0.50846763  1
  K  K20  1  0.83310380  0.24019032  -0.00606620  1
  K  K21  1  0.83727289  0.25058824  0.51125774  1
  K  K22  1  0.83246337  0.75054569  -0.00826768  1
  K  K23  1  0.82477391  0.74620675  0.50156946  1
  Na  Na24  1  -0.00090916  0.24921232  0.75281151  1
  Na  Na25  1  0.00209283  0.58100214  0.75642174  1
  Na  Na26  1  0.33676233  0.58091816  0.75013049  1
  Li  Li27  1  0.84464418  0.00217720  0.24929825  1
  Li  Li28  1  0.66015461  0.25099846  0.74703959  1
  Li  Li29  1  0.49674776  0.66020230  0.75118608  1
  Li  Li30  1  -0.00749768  0.08529579  0.24571834  1
  Li  Li31  1  0.50423696  0.17307820  0.74494799  1
  Mg  Mg32  1  0.00004967  0.74750906  0.75097431  1
  Mg  Mg33  1  -0.00093090  0.24588678  0.24775441  1
  Mg  Mg34  1  0.49902873  0.49950296  0.25324972  1
  Mg  Mg35  1  0.16720183  0.00267623  0.74749203  1
  Mg  Mg36  1  -0.00088791  0.75189446  0.24779414  1
  Mg  Mg37  1  0.66984119  0.24945116  0.24816107  1
  Mg  Mg38  1  0.49897890  0.50014269  0.74915966  1
  Mg  Mg39  1  0.49982341  0.00202689  0.74965844  1
  Mg  Mg40  1  0.83301384  0.00103211  0.74946218  1
  Mg  Mg41  1  0.50223022  0.00157079  0.25149509  1
  Mg  Mg42  1  0.33733028  0.74819537  0.74840055  1
  Mg  Mg43  1  0.66277085  0.74755973  0.75318170  1
  Mg  Mg44  1  0.83133007  0.49739441  0.75357896  1
  Mg  Mg45  1  0.16389972  0.00033926  0.24647403  1
  Mg  Mg46  1  0.16687747  0.50181896  0.24823426  1
  Mg  Mg47  1  0.33276515  0.24910347  0.24898126  1
  Mg  Mg48  1  0.33170032  0.75092139  0.24952032  1
  Mg  Mg49  1  0.83306771  0.50147767  0.25362756  1
  Mg  Mg50  1  0.16574454  0.49879090  0.75233275  1
  Mg  Mg51  1  0.33535537  0.24869496  0.75032043  1
  Mg  Mg52  1  0.66486992  0.74988764  0.25686140  1
  Mg  Mg53  1  0.83276269  0.66394079  0.75361253  1
  Mg  Mg54  1  0.67000596  0.91810401  0.25225223  1
  Mg  Mg55  1  0.33168557  0.08443613  0.24686105  1
  Mg  Mg56  1  0.16786277  0.83335500  0.74771820  1
  Mg  Mg57  1  0.00034339  0.58581127  0.25115303  1
  Mg  Mg58  1  0.16622014  0.33430383  0.75445629  1
  Mg  Mg59  1  0.33434556  0.08595479  0.74719459  1
  Mg  Mg60  1  0.50078080  0.33308385  0.24942510  1
  Mg  Mg61  1  0.33382940  0.91669032  0.74779940  1
  Mg  Mg62  1  0.66322802  0.08635451  0.74649093  1
  Mg  Mg63  1  0.33142685  0.41490256  0.24782345  1
  Mg  Mg64  1  0.33550696  0.41556463  0.75043030  1
  Mg  Mg65  1  0.66770637  0.41636651  0.25137702  1
  Mg  Mg66  1  0.83754635  0.16219539  0.24869940  1
  Mg  Mg67  1  0.66509350  0.58271779  0.75564211  1
  Mg  Mg68  1  0.66509360  0.58537596  0.25635156  1
  Mg  Mg69  1  0.67393031  0.08304739  0.24841500  1
  Mg  Mg70  1  0.33116816  0.58525850  0.25080248  1
  Mg  Mg71  1  0.66636609  0.91544381  0.75164975  1
  Mg  Mg72  1  -0.00069904  0.41673375  0.75082381  1
  Mg  Mg73  1  0.00165150  0.08466092  0.74828294  1
  Mg  Mg74  1  0.82933298  0.33013207  0.75121341  1
  Mg  Mg75  1  0.49981122  0.83619272  0.25347283  1
  Mg  Mg76  1  0.16108930  0.16356614  0.24668121  1
  Mg  Mg77  1  0.16835389  0.83575357  0.24887158  1
  Mg  Mg78  1  -0.00335651  0.92058324  0.24752289  1
  Mg  Mg79  1  0.83350837  0.83385089  0.75137938  1
  Mg  Mg80  1  0.83166417  0.66683904  0.25427361  1
  Mg  Mg81  1  0.83275358  0.83630744  0.25080495  1
  Mg  Mg82  1  0.49957643  0.66583622  0.25472676  1
  Mg  Mg83  1  0.16946017  0.66518763  0.75043934  1
  Mg  Mg84  1  0.33107917  0.91615022  0.24961618  1
  Mg  Mg85  1  0.66458133  0.41157782  0.75158171  1
  Mg  Mg86  1  0.16342973  0.33329622  0.24686609  1
  Mg  Mg87  1  0.50106708  0.33028766  0.74752487  1
  Mg  Mg88  1  0.50210576  0.83117079  0.75071853  1
  Mg  Mg89  1  0.16670629  0.16549316  0.74903829  1
  Mg  Mg90  1  0.00213349  0.91548438  0.74908430  1
  Mg  Mg91  1  0.50282091  0.16654184  0.24888644  1
  Mg  Mg92  1  0.16922611  0.66638991  0.24909496  1
  Mg  Mg93  1  -0.00020244  0.41632740  0.25099553  1
  Mg  Mg94  1  0.83617018  0.33358744  0.25263754  1
  Mg  Mg95  1  0.83000177  0.16786225  0.74716241  1
  Fe  Fe96  1  0.31586744  0.83448084  0.39212045  1
  Fe  Fe97  1  0.18894811  0.91678905  0.10720800  1
  Fe  Fe98  1  0.81175193  0.57908191  0.89384323  1
  Fe  Fe99  1  0.52333157  0.58729568  0.61293163  1
  Fe  Fe100  1  0.69381281  0.32727501  0.61031165  1
  Fe  Fe101  1  0.97267034  0.33103386  0.89003568  1
  Fe  Fe102  1  0.19254898  0.58410298  0.10758653  1
  Fe  Fe103  1  0.97629826  0.16792597  0.39095969  1
  Fe  Fe104  1  0.31076285  0.66356623  0.39181631  1
  Fe  Fe105  1  0.63473949  0.66660647  0.39582653  1
  Fe  Fe106  1  0.14235509  0.08140187  0.88945404  1
  Fe  Fe107  1  0.14174210  0.42160425  0.89409866  1
  Fe  Fe108  1  0.47567673  0.41924565  0.88923920  1
  Fe  Fe109  1  0.85554901  0.07614054  0.10711771  1
  Fe  Fe110  1  0.02317144  0.16740454  0.10656958  1
  Fe  Fe111  1  0.64142491  0.83581372  0.89210378  1
  Fe  Fe112  1  0.18813846  0.08623430  0.60644842  1
  Si  Si113  1  0.01771361  0.33675059  0.11363105  1
  Si  Si114  1  0.18775989  0.58200553  0.61448343  1
  Si  Si115  1  0.13661082  0.58665666  0.38774978  1
  Si  Si116  1  0.30752235  0.33241918  0.88790833  1
  Si  Si117  1  0.52504525  0.07915208  0.61213496  1
  Si  Si118  1  0.80754448  0.91745065  0.38518041  1
  Si  Si119  1  0.31292085  0.67362383  0.88495663  1
  Si  Si120  1  0.80738666  0.58279884  0.39100506  1
  Si  Si121  1  0.81024330  0.41754721  0.38716870  1
  Si  Si122  1  0.18979034  0.41100742  0.11194633  1
  Si  Si123  1  0.86099185  0.08030412  0.61203390  1
  Si  Si124  1  0.80389390  0.40787193  0.89092632  1
  Si  Si125  1  0.46885190  0.91964680  0.88654931  1
  Si  Si126  1  0.63944703  0.16340885  0.87987069  1
  Si  Si127  1  0.18846481  0.91486567  0.61061079  1
  Si  Si128  1  0.97866745  0.33727298  0.38872458  1
  Si  Si129  1  0.35212262  0.67009068  0.61202742  1
  Si  Si130  1  0.85619622  0.42110711  0.11713612  1
  Si  Si131  1  0.52272418  0.41450239  0.60976188  1
  Si  Si132  1  0.36797932  0.66860902  0.11311751  1
  Si  Si133  1  0.36702338  0.83570921  0.11234610  1
  Si  Si134  1  0.69268213  0.17107510  0.11134308  1
  Si  Si135  1  0.14563881  0.91261006  0.88377047  1
  Si  Si136  1  0.30774848  0.83405361  0.88207278  1
  Si  Si137  1  0.69467326  0.83861843  0.61499309  1
  Si  Si138  1  0.30592195  0.33314878  0.38430900  1
  Si  Si139  1  0.02091253  0.17182940  0.61044995  1
  Si  Si140  1  0.64455089  0.66668008  0.89369696  1
  Si  Si141  1  0.02532258  0.82803927  0.61294444  1
  Si  Si142  1  0.64587179  0.33171099  0.38450820  1
  Si  Si143  1  0.81219295  0.92159652  0.88697721  1
  Si  Si144  1  0.36097464  0.16660143  0.61025031  1
  Si  Si145  1  0.35700447  0.83385720  0.61337406  1
  Si  Si146  1  0.47845724  0.58656775  0.88922180  1
  Si  Si147  1  0.63645738  0.32780158  0.88666207  1
  Si  Si148  1  0.69107590  0.82733672  0.11861633  1
  Si  Si149  1  0.01900115  0.66640526  0.11353192  1
  Si  Si150  1  0.47780928  0.09277074  0.38391386  1
  Si  Si151  1  0.19496810  0.08999756  0.10911935  1
  Si  Si152  1  0.02568453  0.66511087  0.61474615  1
  Si  Si153  1  0.13833308  0.91266045  0.38604281  1
  Si  Si154  1  0.19240618  0.41536887  0.61368844  1
  Si  Si155  1  0.69086039  0.66478796  0.11933177  1
  Si  Si156  1  0.36503807  0.16526964  0.11380691  1
  Si  Si157  1  0.52894569  0.58113822  0.11775353  1
  Si  Si158  1  0.01785508  0.83077578  0.11194257  1
  Si  Si159  1  0.97073198  0.15778584  0.88500025  1
  Si  Si160  1  0.47718584  0.40820519  0.38498531  1
  Si  Si161  1  0.86304652  0.91590685  0.61339419  1
  Si  Si162  1  0.69576034  0.67262460  0.61424190  1
  Si  Si163  1  0.52470164  0.41723575  0.11603200  1
  Si  Si164  1  0.14691409  0.07880676  0.38454634  1
  Si  Si165  1  0.35629787  0.33214145  0.61322391  1
  Si  Si166  1  0.14271796  0.42131016  0.38444517  1
  Si  Si167  1  0.15152318  0.59303240  0.88955698  1
  Si  Si168  1  0.35988142  0.33066173  0.11380482  1
  Si  Si169  1  0.47791489  0.92843849  0.38851890  1
  Si  Si170  1  0.97124725  0.66734925  0.38642005  1
  Si  Si171  1  0.85150954  0.90859491  0.11250936  1
  Si  Si172  1  0.97689512  0.83698295  0.88509285  1
  Si  Si173  1  0.46814663  0.57187175  0.38934073  1
  Si  Si174  1  0.53113290  0.08396023  0.11529749  1
  Si  Si175  1  0.30787319  0.16660401  0.38389780  1
  Si  Si176  1  0.85900488  0.42071773  0.61172557  1
  Si  Si177  1  0.53294024  0.91815189  0.11704960  1
  Si  Si178  1  0.64434400  0.16815794  0.38374481  1
  Si  Si179  1  0.47376929  0.08357941  0.88266338  1
  Si  Si180  1  0.85759061  0.58571919  0.61642413  1
  Si  Si181  1  0.69170444  0.33655302  0.11543229  1
  Si  Si182  1  0.69271732  0.15546216  0.60827415  1
  Si  Si183  1  0.97850275  0.67311360  0.88976084  1
  Si  Si184  1  0.52320141  0.91528418  0.61362926  1
  Si  Si185  1  0.64122847  0.83957489  0.39079582  1
  Si  Si186  1  0.80539076  0.08379266  0.38778287  1
  Si  Si187  1  0.85473740  0.58489982  0.11818417  1
  Si  Si188  1  0.02634706  0.33904153  0.61511751  1
  Si  Si189  1  0.80489011  0.08536201  0.88177448  1
  Si  Si190  1  0.97170497  0.83381759  0.38507929  1
  Si  Si191  1  0.31212078  0.16864688  0.88644896  1
  O  O192  1  0.28583451  0.11436433  0.08527417  1
  O  O193  1  0.27974038  0.12360459  0.57067732  1
  O  O194  1  0.28635505  0.62495119  0.07706487  1
  O  O195  1  0.26100412  0.62688649  0.58518663  1
  O  O196  1  0.60588698  0.12345185  0.08454672  1
  O  O197  1  0.60449066  0.10972706  0.57937214  1
  O  O198  1  0.61398513  0.60902406  0.09104179  1
  O  O199  1  0.61107991  0.63417612  0.57749848  1
  O  O200  1  0.94588433  0.10005398  0.06720505  1
  O  O201  1  0.92945276  0.13028893  0.58257793  1
  O  O202  1  0.93633614  0.61329296  0.08882640  1
  O  O203  1  0.93694180  0.62306687  0.58688687  1
  O  O204  1  0.10524755  0.36168714  0.08831715  1
  O  O205  1  0.10415767  0.37372773  0.58100932  1
  O  O206  1  0.09500892  0.85604777  0.07627823  1
  O  O207  1  0.10531784  0.86252489  0.58398981  1
  O  O208  1  0.44021049  0.36960211  0.08749133  1
  O  O209  1  0.42987468  0.37399284  0.58269505  1
  O  O210  1  0.44991484  0.87145322  0.08563279  1
  O  O211  1  0.43799598  0.86831914  0.58411601  1
  O  O212  1  0.77341691  0.37062216  0.08784882  1
  O  O213  1  0.77902637  0.37638029  0.57301015  1
  O  O214  1  0.77572040  0.84702036  0.08921991  1
  O  O215  1  0.76907629  0.88207256  0.58356141  1
  O  O216  1  0.27093491  0.37082070  0.08611752  1
  O  O217  1  0.26702652  0.37399358  0.58191640  1
  O  O218  1  0.28467976  0.87824292  0.07596178  1
  O  O219  1  0.27164274  0.88054087  0.58401690  1
  O  O220  1  0.60739421  0.38588296  0.08816535  1
  O  O221  1  0.59011502  0.37086013  0.57364370  1
  O  O222  1  0.61361392  0.88259566  0.08918973  1
  O  O223  1  0.60438528  0.87915771  0.58525501  1
  O  O224  1  0.94180686  0.39784850  0.09018980  1
  O  O225  1  0.94388770  0.38898515  0.58449451  1
  O  O226  1  0.93391646  0.87914646  0.08213037  1
  O  O227  1  0.93534993  0.86924673  0.58368162  1
  O  O228  1  0.12906298  0.15210120  0.08004542  1
  O  O229  1  0.09036483  0.13898839  0.57015194  1
  O  O230  1  0.09486659  0.64011726  0.07751775  1
  O  O231  1  0.09744758  0.62165755  0.58141930  1
  O  O232  1  0.44547429  0.12946297  0.08597712  1
  O  O233  1  0.44390938  0.13052107  0.58321304  1
  O  O234  1  0.45195802  0.63440103  0.08688200  1
  O  O235  1  0.42128248  0.63339047  0.57431025  1
  O  O236  1  0.76491741  0.14232695  0.07396078  1
  O  O237  1  0.76653305  0.10810473  0.57885581  1
  O  O238  1  0.77457228  0.63795946  0.09055405  1
  O  O239  1  0.77546260  0.63526112  0.58457040  1
  O  O240  1  0.07504571  0.11410057  0.42003562  1
  O  O241  1  0.03926901  0.09711449  0.91739364  1
  O  O242  1  0.04902424  0.61256702  0.41443193  1
  O  O243  1  0.06980065  0.63257815  0.91416763  1
  O  O244  1  0.39834595  0.12723372  0.41341649  1
  O  O245  1  0.39741943  0.11957320  0.91543097  1
  O  O246  1  0.38012996  0.58198726  0.41553666  1
  O  O247  1  0.39356519  0.62252971  0.91436438  1
  O  O248  1  0.71763846  0.11119542  0.41494875  1
  O  O249  1  0.72060679  0.11118807  0.91099035  1
  O  O250  1  0.73217862  0.61045824  0.42657436  1
  O  O251  1  0.71749456  0.61109458  0.92882512  1
  O  O252  1  0.22815526  0.37331183  0.41264692  1
  O  O253  1  0.22486065  0.35075297  0.92022531  1
  O  O254  1  0.21419751  0.86179684  0.42141552  1
  O  O255  1  0.21984141  0.85200798  0.90901421  1
  O  O256  1  0.56025648  0.35716774  0.41168376  1
  O  O257  1  0.56166212  0.35389033  0.92533749  1
  O  O258  1  0.56500220  0.88352937  0.41774986  1
  O  O259  1  0.54471018  0.87007276  0.92417320  1
  O  O260  1  0.89500356  0.37133875  0.41595661  1
  O  O261  1  0.87298341  0.34852536  0.92258543  1
  O  O262  1  0.89070592  0.86716075  0.41473140  1
  O  O263  1  0.89855673  0.87418265  0.91427691  1
  O  O264  1  0.06030790  0.39166476  0.41346940  1
  O  O265  1  0.05389465  0.39255501  0.93474922  1
  O  O266  1  0.05277977  0.88403731  0.41468542  1
  O  O267  1  0.06112145  0.88497881  0.91209011  1
  O  O268  1  0.39587544  0.37395547  0.41340708  1
  O  O269  1  0.38157926  0.38644544  0.92301991  1
  O  O270  1  0.39989027  0.90568848  0.42291779  1
  O  O271  1  0.38006455  0.89372885  0.91108578  1
  O  O272  1  0.72680430  0.38378097  0.41319036  1
  O  O273  1  0.71676625  0.37981770  0.91673404  1
  O  O274  1  0.72825672  0.88606180  0.41783592  1
  O  O275  1  0.73707580  0.89376317  0.92318754  1
  O  O276  1  0.23663668  0.12255911  0.41473916  1
  O  O277  1  0.23618747  0.14065304  0.92228959  1
  O  O278  1  0.20848687  0.64042784  0.42235208  1
  O  O279  1  0.23216435  0.64764021  0.91828950  1
  O  O280  1  0.55782430  0.14613009  0.41132292  1
  O  O281  1  0.56001968  0.12926843  0.91224394  1
  O  O282  1  0.54083847  0.62660542  0.42419987  1
  O  O283  1  0.55507018  0.64340584  0.91830906  1
  O  O284  1  0.88269865  0.13090126  0.42613918  1
  O  O285  1  0.88029766  0.14030741  0.91164656  1
  O  O286  1  0.89050281  0.63480007  0.41621619  1
  O  O287  1  0.90838394  0.63682339  0.92706099  1
  O  O288  1  0.17138310  0.01168874  0.07584506  1
  O  O289  1  0.16841649  -0.00913951  0.57382848  1
  O  O290  1  0.17581822  0.48865640  0.07776591  1
  O  O291  1  0.18467508  0.49896876  0.58368206  1
  O  O292  1  0.52136609  0.00084302  0.08749597  1
  O  O293  1  0.50784859  -0.00359321  0.58118421  1
  O  O294  1  0.50816298  0.49949238  0.08848953  1
  O  O295  1  0.51269733  0.49412967  0.57609125  1
  O  O296  1  0.81720601  -0.01768074  0.07679758  1
  O  O297  1  0.86715298  -0.00272050  0.58315032  1
  O  O298  1  0.83033869  0.50319428  0.09093868  1
  O  O299  1  0.84864890  0.50509857  0.58280289  1
  O  O300  1  -0.01549302  0.26244232  0.07973825  1
  O  O301  1  0.00553020  0.25689921  0.58602706  1
  O  O302  1  -0.01127620  0.74767146  0.08835959  1
  O  O303  1  0.01424802  0.74658533  0.58136866  1
  O  O304  1  0.35504526  0.24803180  0.08503767  1
  O  O305  1  0.35256367  0.25050441  0.58111598  1
  O  O306  1  0.36365177  0.75192395  0.08566781  1
  O  O307  1  0.33670109  0.75379614  0.58218192  1
  O  O308  1  0.66993648  0.25560931  0.08685519  1
  O  O309  1  0.68535499  0.23272211  0.57195185  1
  O  O310  1  0.66295613  0.74559331  0.09158334  1
  O  O311  1  0.69380950  0.75705274  0.58538599  1
  O  O312  1  0.15940708  -0.00450895  0.41330264  1
  O  O313  1  0.17761776  -0.01265443  0.91812383  1
  O  O314  1  0.15784057  0.50300915  0.41398517  1
  O  O315  1  0.17044793  0.51675933  0.92658944  1
  O  O316  1  0.50284662  0.01261016  0.41304674  1
  O  O317  1  0.48677964  0.00230245  0.91545483  1
  O  O318  1  0.50138587  0.48858289  0.41253474  1
  O  O319  1  0.49739725  0.51120587  0.92975632  1
  O  O320  1  0.82152873  -0.00053271  0.41435818  1
  O  O321  1  0.83332047  0.00502081  0.91138353  1
  O  O322  1  0.83031725  0.49917153  0.41588250  1
  O  O323  1  0.82895122  0.48518990  0.92728992  1
  O  O324  1  0.31209620  0.25006737  0.41255557  1
  O  O325  1  0.33955829  0.24996003  0.91306744  1
  O  O326  1  0.35520018  0.74817001  0.43020468  1
  O  O327  1  0.33900742  0.75562191  0.91410739  1
  O  O328  1  0.67014732  0.24993389  0.41141350  1
  O  O329  1  0.65907866  0.24353511  0.91279969  1
  O  O330  1  0.65392849  0.76207060  0.42654551  1
  O  O331  1  0.66796166  0.74520290  0.92878063  1
  O  O332  1  1.00099815  0.26221900  0.42575868  1
  O  O333  1  1.00414609  0.23521250  0.91431888  1
  O  O334  1  0.98751951  0.75032309  0.41474791  1
  O  O335  1  0.99329509  0.75726445  0.91835557  1
  O  O336  1  0.21328948  0.08613802  0.19109914  1
  O  O337  1  0.21361485  0.08311652  0.69740278  1
  O  O338  1  0.21035555  0.58191746  0.19963243  1
  O  O339  1  0.19919524  0.58220039  0.69329753  1
  O  O340  1  0.54658960  0.08470395  0.19585974  1
  O  O341  1  0.54459521  0.07662485  0.69139400  1
  O  O342  1  0.54395252  0.58023421  0.19830757  1
  O  O343  1  0.54782202  0.58301261  0.70284110  1
  O  O344  1  0.87180447  0.08282784  0.19639864  1
  O  O345  1  0.87670435  0.07946430  0.69205549  1
  O  O346  1  0.87396060  0.58445220  0.19912595  1
  O  O347  1  0.86925174  0.58443190  0.69521658  1
  O  O348  1  0.03918602  0.33630859  0.19541650  1
  O  O349  1  0.04925250  0.33951400  0.69372765  1
  O  O350  1  0.03977578  0.83316168  0.19310177  1
  O  O351  1  0.04224199  0.83167830  0.69326592  1
  O  O352  1  0.37822636  0.33144432  0.19475479  1
  O  O353  1  0.37213035  0.33035574  0.69286544  1
  O  O354  1  0.38212006  0.83671367  0.19347583  1
  O  O355  1  0.37675198  0.83572231  0.69360786  1
  O  O356  1  0.71018029  0.33653879  0.19620314  1
  O  O357  1  0.71099824  0.33417157  0.69992207  1
  O  O358  1  0.70738488  0.83019617  0.19916321  1
  O  O359  1  0.71396236  0.83838026  0.69477676  1
  O  O360  1  0.20990522  0.41408880  0.19354686  1
  O  O361  1  0.21168487  0.41495714  0.69321879  1
  O  O362  1  0.21129884  0.91828728  0.19883696  1
  O  O363  1  0.20780300  0.91573400  0.69155370  1
  O  O364  1  0.54359387  0.41607922  0.19683020  1
  O  O365  1  0.54356221  0.41454543  0.69044370  1
  O  O366  1  0.54626817  0.91814961  0.19764033  1
  O  O367  1  0.54138442  0.91713329  0.69367299  1
  O  O368  1  0.87361966  0.41913464  0.19809243  1
  O  O369  1  0.87317032  0.41952773  0.69172422  1
  O  O370  1  0.87517609  0.90950480  0.19274069  1
  O  O371  1  0.87832379  0.91473461  0.69359124  1
  O  O372  1  0.04577546  0.16921345  0.19796061  1
  O  O373  1  0.04555563  0.16093296  0.68920217  1
  O  O374  1  0.04020960  0.66546701  0.19492335  1
  O  O375  1  0.04773349  0.67284591  0.69357891  1
  O  O376  1  0.38115185  0.16793180  0.19462430  1
  O  O377  1  0.37149687  0.16571865  0.68986780  1
  O  O378  1  0.38210288  0.66617230  0.19418976  1
  O  O379  1  0.37522924  0.67390758  0.69065704  1
  O  O380  1  0.70941711  0.16906215  0.19259438  1
  O  O381  1  0.71175143  0.15573813  0.68777770  1
  O  O382  1  0.71017870  0.66515502  0.19984970  1
  O  O383  1  0.71092699  0.67172898  0.69458656  1
  O  O384  1  0.13428612  0.08143355  0.30493489  1
  O  O385  1  0.12110199  0.08149704  0.79777789  1
  O  O386  1  0.11991779  0.58477397  0.30663519  1
  O  O387  1  0.13794694  0.58735918  0.80994397  1
  O  O388  1  0.45797340  0.08847726  0.30334953  1
  O  O389  1  0.45343430  0.07937050  0.80325878  1
  O  O390  1  0.45594382  0.57859762  0.30728420  1
  O  O391  1  0.46548201  0.57858938  0.81069556  1
  O  O392  1  0.78628141  0.08906624  0.30798956  1
  O  O393  1  0.78617496  0.08159679  0.80130885  1
  O  O394  1  0.78922559  0.58336357  0.30962252  1
  O  O395  1  0.78881039  0.58310234  0.80220744  1
  O  O396  1  0.28991572  0.33332586  0.30374920  1
  O  O397  1  0.29144325  0.33246106  0.80644553  1
  O  O398  1  0.29175664  0.83337522  0.29933500  1
  O  O399  1  0.29038589  0.83485360  0.80153349  1
  O  O400  1  0.62552112  0.33302545  0.30375480  1
  O  O401  1  0.61680867  0.33272226  0.80698292  1
  O  O402  1  0.62292800  0.83635696  0.30950051  1
  O  O403  1  0.62287301  0.83494431  0.80035855  1
  O  O404  1  0.95760042  0.33719134  0.30759152  1
  O  O405  1  0.94769998  0.34047555  0.80030016  1
  O  O406  1  0.95446539  0.83107653  0.30485319  1
  O  O407  1  0.95787644  0.83501671  0.80430187  1
  O  O408  1  0.12447188  0.41838165  0.30372253  1
  O  O409  1  0.12091593  0.41789199  0.80217421  1
  O  O410  1  0.12037071  0.91293917  0.30535467  1
  O  O411  1  0.12471230  0.91445328  0.80251344  1
  O  O412  1  0.45640183  0.41090621  0.30410438  1
  O  O413  1  0.45653241  0.41481175  0.79789241  1
  O  O414  1  0.45950571  0.92204284  0.30722778  1
  O  O415  1  0.45622513  0.91777851  0.80557019  1
  O  O416  1  0.79035403  0.41743925  0.30636074  1
  O  O417  1  0.78657821  0.41435274  0.80986507  1
  O  O418  1  0.78731160  0.91304670  0.30577046  1
  O  O419  1  0.79254598  0.91732721  0.80578867  1
  O  O420  1  0.29232996  0.16757081  0.30338795  1
  O  O421  1  0.29352150  0.16512946  0.80572074  1
  O  O422  1  0.28992517  0.66809736  0.29893965  1
  O  O423  1  0.28846211  0.67652735  0.80586481  1
  O  O424  1  0.62502681  0.16836575  0.30299650  1
  O  O425  1  0.62188427  0.16247086  0.80107880  1
  O  O426  1  0.62020943  0.66643116  0.30348103  1
  O  O427  1  0.63431505  0.66850349  0.81330851  1
  O  O428  1  0.95175754  0.17320339  0.30141639  1
  O  O429  1  0.94925419  0.15375145  0.80450244  1
  O  O430  1  0.95454828  0.66732486  0.30580181  1
  O  O431  1  0.95296502  0.67644439  0.80993397  1
  F  F432  1  0.04750471  -0.00495340  0.19887248  1
  F  F433  1  0.04389245  -0.00473906  0.69781390  1
  F  F434  1  0.04293574  0.50100371  0.20369134  1
  F  F435  1  0.04796650  0.49482700  0.69771533  1
  F  F436  1  0.38329510  0.00208984  0.20200468  1
  F  F437  1  0.37907437  -0.00155417  0.69915231  1
  F  F438  1  0.38012625  0.49750849  0.20253533  1
  F  F439  1  0.38054171  0.49049209  0.69363850  1
  F  F440  1  0.70253491  -0.00119357  0.19984987  1
  F  F441  1  0.71210674  -0.00382032  0.70077162  1
  F  F442  1  0.71114688  0.50173664  0.20578235  1
  F  F443  1  0.70998410  0.49803761  0.70385242  1
  F  F444  1  0.21452657  0.25123310  0.20214629  1
  F  F445  1  0.21334786  0.25004076  0.70150145  1
  F  F446  1  0.20957549  0.75033682  0.19764804  1
  F  F447  1  0.21177607  0.75130090  0.69962153  1
  F  F448  1  0.54638493  0.25124146  0.20083887  1
  F  F449  1  0.54042591  0.25277895  0.69362140  1
  F  F450  1  0.54556050  0.75249895  0.20496845  1
  F  F451  1  0.54868598  0.75546317  0.69784010  1
  F  F452  1  0.87469249  0.25579375  0.20100889  1
  F  F453  1  0.86429338  0.24775844  0.69377928  1
  F  F454  1  0.87488550  0.74776053  0.20441473  1
  F  F455  1  0.87900851  0.75138562  0.70202838  1
  F  F456  1  0.29159137  0.00372165  0.29664128  1
  F  F457  1  0.28936918  -0.00241516  0.79548426  1
  F  F458  1  0.28796170  0.49488173  0.29702630  1
  F  F459  1  0.28412467  0.49028800  0.80008416  1
  F  F460  1  0.62210311  0.00283591  0.30000803  1
  F  F461  1  0.62130823  -0.00054034  0.79698549  1
  F  F462  1  0.62154066  0.49699443  0.30081831  1
  F  F463  1  0.62201933  0.49514445  0.80023725  1
  F  F464  1  0.95597528  -0.00682673  0.30178028  1
  F  F465  1  0.95427220  -0.00373356  0.79422062  1
  F  F466  1  0.95453110  0.50130435  0.29970670  1
  F  F467  1  0.94828209  0.49245644  0.80254962  1
  F  F468  1  0.12442244  0.25319256  0.29810149  1
  F  F469  1  0.13427787  0.24717187  0.80060668  1
  F  F470  1  0.11904436  0.74956364  0.29472436  1
  F  F471  1  0.12150308  0.75226913  0.79664451  1
  F  F472  1  0.45619728  0.25005036  0.29742032  1
  F  F473  1  0.45310895  0.25006080  0.79623189  1
  F  F474  1  0.45511364  0.75174627  0.29805880  1
  F  F475  1  0.45295816  0.75587269  0.79923341  1
  F  F476  1  0.78631095  0.25269038  0.29794208  1
  F  F477  1  0.78998648  0.24464154  0.79856842  1
  F  F478  1  0.78803325  0.75002789  0.30215172  1
  F  F479  1  0.78827257  0.75298865  0.79793387  1
