# generated using pymatgen
data_K24Na3Li5Mg64Fe17Si79(O5F)48
_symmetry_space_group_name_H-M   'P 1'
_cell_length_a   16.10064062
_cell_length_b   18.60908785
_cell_length_c   20.58191069
_cell_angle_alpha   90.00410798
_cell_angle_beta   100.04056959
_cell_angle_gamma   90.02365039
_symmetry_Int_Tables_number   1
_chemical_formula_structural   K24Na3Li5Mg64Fe17Si79(O5F)48
_chemical_formula_sum   'K24 Na3 Li5 Mg64 Fe17 Si79 O240 F48'
_cell_volume   6072.26916544
_cell_formula_units_Z   1
loop_
 _symmetry_equiv_pos_site_id
 _symmetry_equiv_pos_as_xyz
  1  'x, y, z'
loop_
 _atom_site_type_symbol
 _atom_site_label
 _atom_site_symmetry_multiplicity
 _atom_site_fract_x
 _atom_site_fract_y
 _atom_site_fract_z
 _atom_site_occupancy
  K  K0  1  -0.00137913  -0.00938440  -0.00293155  1
  K  K1  1  -0.01189873  -0.00000275  0.50340225  1
  K  K2  1  -0.01292267  0.50416830  0.00349531  1
  K  K3  1  -0.00359825  0.50160890  0.49907178  1
  K  K4  1  0.32844280  -0.00967612  -0.00150538  1
  K  K5  1  0.33862018  -0.00291372  0.50180305  1
  K  K6  1  0.33897428  0.50473724  0.00552742  1
  K  K7  1  0.33938468  0.50093959  0.50546401  1
  K  K8  1  0.67400408  -0.00811972  0.00638038  1
  K  K9  1  0.68104863  -0.00055291  0.50406677  1
  K  K10  1  0.66811340  0.49948501  -0.01228529  1
  K  K11  1  0.66893158  0.50660384  0.50337779  1
  K  K12  1  0.16200867  0.25806325  0.00058046  1
  K  K13  1  0.15982061  0.26884741  0.50284886  1
  K  K14  1  0.17394459  0.74584296  -0.00236158  1
  K  K15  1  0.16522974  0.74204001  0.50600761  1
  K  K16  1  0.50755577  0.25585694  -0.00004947  1
  K  K17  1  0.50348561  0.25289160  0.49811095  1
  K  K18  1  0.50421749  0.74530596  -0.00228251  1
  K  K19  1  0.50912156  0.73203813  0.50098823  1
  K  K20  1  0.83869605  0.26509745  0.00221208  1
  K  K21  1  0.83242628  0.24240593  0.50300344  1
  K  K22  1  0.81853182  0.74918669  -0.00459240  1
  K  K23  1  0.83035055  0.74100684  0.49765507  1
  Na  Na24  1  0.50947923  0.49872635  0.75148768  1
  Na  Na25  1  0.66583100  0.07861912  0.24886220  1
  Na  Na26  1  0.66230672  0.57574165  0.75147162  1
  Li  Li27  1  0.83478801  0.00094965  0.74627903  1
  Li  Li28  1  0.33345486  0.74623807  0.75540429  1
  Li  Li29  1  0.50325059  0.66180080  0.23897865  1
  Li  Li30  1  -0.00252917  0.91624155  0.24818056  1
  Li  Li31  1  0.66279696  0.42113343  0.74270600  1
  Mg  Mg32  1  -0.00195763  0.74940058  0.75297719  1
  Mg  Mg33  1  0.16463303  -0.00172578  0.75510732  1
  Mg  Mg34  1  0.00003615  0.24980573  0.74817043  1
  Mg  Mg35  1  -0.00050554  0.25083371  0.25332261  1
  Mg  Mg36  1  0.16510728  -0.00167978  0.25085506  1
  Mg  Mg37  1  0.49841521  0.00039105  0.75020444  1
  Mg  Mg38  1  0.66653892  0.74744196  0.24752060  1
  Mg  Mg39  1  0.66207356  0.74821179  0.74667201  1
  Mg  Mg40  1  0.82875762  0.49925603  0.74775899  1
  Mg  Mg41  1  0.66568349  0.25055317  0.74600375  1
  Mg  Mg42  1  0.83559976  -0.00326432  0.24820821  1
  Mg  Mg43  1  0.34014835  0.74891352  0.24883648  1
  Mg  Mg44  1  0.00237476  0.75414332  0.25286384  1
  Mg  Mg45  1  0.50100282  0.50128760  0.24547771  1
  Mg  Mg46  1  0.16667225  0.50049428  0.25274287  1
  Mg  Mg47  1  0.83295523  0.49902187  0.25254986  1
  Mg  Mg48  1  0.66700008  0.24909645  0.25021570  1
  Mg  Mg49  1  0.33129557  0.25134586  0.24906640  1
  Mg  Mg50  1  0.16876228  0.50297866  0.75184677  1
  Mg  Mg51  1  0.50082900  -0.00033963  0.24839047  1
  Mg  Mg52  1  0.33468829  0.25250855  0.74784382  1
  Mg  Mg53  1  -0.00298883  0.58386883  0.75122724  1
  Mg  Mg54  1  0.16877858  0.66879123  0.75234977  1
  Mg  Mg55  1  0.16433323  0.33656570  0.25154964  1
  Mg  Mg56  1  0.33180720  0.08466572  0.75070354  1
  Mg  Mg57  1  0.82973021  0.33373925  0.74587170  1
  Mg  Mg58  1  0.66873265  0.08289423  0.74722033  1
  Mg  Mg59  1  0.49912080  0.16655672  0.24870179  1
  Mg  Mg60  1  0.83244880  0.16343720  0.74678260  1
  Mg  Mg61  1  0.33422436  0.91551344  0.24988595  1
  Mg  Mg62  1  0.49600090  0.66784267  0.75241359  1
  Mg  Mg63  1  0.83205137  0.66559497  0.24974425  1
  Mg  Mg64  1  0.16822329  0.33623739  0.74884830  1
  Mg  Mg65  1  -0.00310397  0.08231945  0.75088753  1
  Mg  Mg66  1  0.50192252  0.33599833  0.74431659  1
  Mg  Mg67  1  -0.00228851  0.91697202  0.75292309  1
  Mg  Mg68  1  0.33782772  0.58536123  0.24663306  1
  Mg  Mg69  1  0.16590671  0.16608803  0.75077431  1
  Mg  Mg70  1  0.83131166  0.83593150  0.74946543  1
  Mg  Mg71  1  0.00127384  0.58650734  0.25366562  1
  Mg  Mg72  1  0.66678962  0.91396368  0.24654168  1
  Mg  Mg73  1  0.49713639  0.83399175  0.75165499  1
  Mg  Mg74  1  0.82760603  0.66381575  0.74829058  1
  Mg  Mg75  1  0.83601291  0.33557152  0.25298475  1
  Mg  Mg76  1  -0.00147578  0.41667344  0.74846854  1
  Mg  Mg77  1  0.33671895  0.58709857  0.75072358  1
  Mg  Mg78  1  0.33170476  0.91407526  0.75465947  1
  Mg  Mg79  1  0.66728259  0.58498814  0.24933439  1
  Mg  Mg80  1  0.66712438  0.91846701  0.74908942  1
  Mg  Mg81  1  0.83345897  0.83396001  0.24748489  1
  Mg  Mg82  1  0.17085048  0.66722913  0.25198791  1
  Mg  Mg83  1  0.33700407  0.41770968  0.74640587  1
  Mg  Mg84  1  -0.00061738  0.41642162  0.25494750  1
  Mg  Mg85  1  0.00012512  0.08049377  0.25177881  1
  Mg  Mg86  1  0.16569604  0.16565779  0.25115606  1
  Mg  Mg87  1  0.33286651  0.08397514  0.24899082  1
  Mg  Mg88  1  0.16808871  0.83327341  0.75687672  1
  Mg  Mg89  1  0.49917324  0.16622632  0.74825698  1
  Mg  Mg90  1  0.49736653  0.33390068  0.24778504  1
  Mg  Mg91  1  0.16737362  0.83461376  0.25179304  1
  Mg  Mg92  1  0.66773306  0.41518442  0.24889425  1
  Mg  Mg93  1  0.83336091  0.16433584  0.25186098  1
  Mg  Mg94  1  0.50075563  0.83228599  0.24736749  1
  Mg  Mg95  1  0.33237065  0.41591877  0.24842619  1
  Fe  Fe96  1  0.97281853  0.32554379  0.39565811  1
  Fe  Fe97  1  0.85973308  0.08359318  0.60987431  1
  Fe  Fe98  1  0.85892078  0.41945920  0.11116003  1
  Fe  Fe99  1  0.53213704  0.57496625  0.10602181  1
  Fe  Fe100  1  0.13996049  0.42153483  0.39379727  1
  Fe  Fe101  1  0.31003825  0.66422440  0.89040378  1
  Fe  Fe102  1  0.85651774  0.58081012  0.61043357  1
  Fe  Fe103  1  0.35130101  0.33143190  0.10916113  1
  Fe  Fe104  1  0.13958662  0.91598479  0.89390208  1
  Fe  Fe105  1  0.52139881  0.58375605  0.60690552  1
  Fe  Fe106  1  0.36210563  0.66779745  0.10873385  1
  Fe  Fe107  1  0.63760744  0.67040065  0.89007511  1
  Fe  Fe108  1  0.81277258  0.58671058  0.39216199  1
  Fe  Fe109  1  0.80317708  0.41199316  0.39389376  1
  Fe  Fe110  1  0.69682028  0.66398590  0.10759552  1
  Fe  Fe111  1  0.35822483  0.33007123  0.60602841  1
  Fe  Fe112  1  0.68956560  0.83644310  0.10740459  1
  Si  Si113  1  0.96627148  0.83108099  0.88923302  1
  Si  Si114  1  0.85898530  0.91240623  0.61291199  1
  Si  Si115  1  0.80858607  0.08511721  0.88354067  1
  Si  Si116  1  0.64257439  0.33027371  0.88108406  1
  Si  Si117  1  0.30821542  0.17160630  0.88511195  1
  Si  Si118  1  0.02554195  0.16688933  0.11625480  1
  Si  Si119  1  0.98096267  0.15594302  0.38986470  1
  Si  Si120  1  0.14796708  0.59224794  0.38985221  1
  Si  Si121  1  0.64379310  0.16642815  0.88418210  1
  Si  Si122  1  0.97434311  0.33399786  0.88421176  1
  Si  Si123  1  0.14972708  0.91608244  0.38666025  1
  Si  Si124  1  0.19045266  0.91691476  0.11678698  1
  Si  Si125  1  0.52472066  0.40590361  0.11048187  1
  Si  Si126  1  0.19387675  0.58767394  0.61731932  1
  Si  Si127  1  0.69308523  0.32767318  0.11222223  1
  Si  Si128  1  0.18872029  0.91556187  0.61800479  1
  Si  Si129  1  0.52118055  0.08216636  0.61406731  1
  Si  Si130  1  0.30979984  0.33705136  0.88504669  1
  Si  Si131  1  0.18869063  0.42141635  0.11358287  1
  Si  Si132  1  0.31388891  0.83335330  0.38603043  1
  Si  Si133  1  0.34913046  0.16324613  0.11140476  1
  Si  Si134  1  0.85899336  0.08441550  0.11439599  1
  Si  Si135  1  0.47627960  0.08310549  0.38509131  1
  Si  Si136  1  0.47294975  0.57977678  0.38293465  1
  Si  Si137  1  0.13554711  0.58372821  0.88852243  1
  Si  Si138  1  0.98137199  0.67644599  0.38896261  1
  Si  Si139  1  0.96823094  0.66446005  0.88702196  1
  Si  Si140  1  0.63161422  0.33232853  0.38700354  1
  Si  Si141  1  0.69279441  0.67342094  0.60909475  1
  Si  Si142  1  0.46851577  0.41597217  0.38313690  1
  Si  Si143  1  0.69264363  0.32929588  0.61265605  1
  Si  Si144  1  0.80927344  0.08088116  0.38475726  1
  Si  Si145  1  0.64122960  0.16758177  0.38459239  1
  Si  Si146  1  0.35750900  0.67150694  0.61288628  1
  Si  Si147  1  0.97949730  0.84114523  0.38479580  1
  Si  Si148  1  0.02449433  0.83029325  0.61773480  1
  Si  Si149  1  0.47403669  0.92362981  0.88653904  1
  Si  Si150  1  0.68810987  0.83649784  0.61408834  1
  Si  Si151  1  0.02852638  0.33555575  0.61535999  1
  Si  Si152  1  0.47120218  0.57822108  0.88923047  1
  Si  Si153  1  0.47700212  0.91853406  0.38443240  1
  Si  Si154  1  0.80713068  0.57943237  0.88698214  1
  Si  Si155  1  0.19175531  0.07857298  0.61757990  1
  Si  Si156  1  0.02923510  0.33200634  0.11307496  1
  Si  Si157  1  0.31077400  0.16626098  0.38538753  1
  Si  Si158  1  0.97394031  0.16967313  0.88540562  1
  Si  Si159  1  0.51667597  0.08660477  0.11377946  1
  Si  Si160  1  0.47849029  0.41190579  0.88320124  1
  Si  Si161  1  0.19175702  0.58289268  0.11586383  1
  Si  Si162  1  0.86909020  0.59004830  0.11341722  1
  Si  Si163  1  0.52889578  0.40992304  0.60562754  1
  Si  Si164  1  0.52173396  0.91728388  0.61490416  1
  Si  Si165  1  0.85686939  0.40916078  0.61195414  1
  Si  Si166  1  0.51958741  0.92258183  0.11069070  1
  Si  Si167  1  0.14210030  0.08886137  0.88935165  1
  Si  Si168  1  0.14119702  0.41705476  0.88515427  1
  Si  Si169  1  0.47473358  0.08860659  0.88500780  1
  Si  Si170  1  0.03245977  0.16899894  0.61332793  1
  Si  Si171  1  0.19142063  0.42332664  0.61381617  1
  Si  Si172  1  0.35273447  0.16016876  0.61224308  1
  Si  Si173  1  0.02917191  0.83280677  0.11727428  1
  Si  Si174  1  0.14785110  0.07917456  0.38698417  1
  Si  Si175  1  0.02858241  0.66582497  0.61627050  1
  Si  Si176  1  0.18765530  0.07930074  0.11607139  1
  Si  Si177  1  0.03352762  0.66987164  0.11824216  1
  Si  Si178  1  0.31346412  0.83549942  0.89230046  1
  Si  Si179  1  0.80843161  0.91538165  0.38536616  1
  Si  Si180  1  0.35538852  0.83724463  0.61689183  1
  Si  Si181  1  0.80484897  0.92086111  0.88212285  1
  Si  Si182  1  0.35476414  0.83854859  0.11245006  1
  Si  Si183  1  0.64025362  0.83351644  0.38433651  1
  Si  Si184  1  0.31355320  0.66949648  0.38553086  1
  Si  Si185  1  0.68980973  0.16373360  0.11494623  1
  Si  Si186  1  0.30547562  0.33127052  0.38668079  1
  Si  Si187  1  0.80846989  0.41471191  0.88142246  1
  Si  Si188  1  0.64018953  0.84250584  0.88562633  1
  Si  Si189  1  0.68534785  0.16554636  0.60991050  1
  Si  Si190  1  0.86457582  0.91799664  0.11174576  1
  Si  Si191  1  0.63684485  0.66785391  0.38597688  1
  O  O192  1  0.27204544  0.10352692  0.08674745  1
  O  O193  1  0.27740361  0.09957586  0.58898707  1
  O  O194  1  0.27131897  0.60116796  0.08166021  1
  O  O195  1  0.27041844  0.62385855  0.58569854  1
  O  O196  1  0.60221267  0.11715699  0.08789609  1
  O  O197  1  0.59757574  0.11902236  0.58318933  1
  O  O198  1  0.63114295  0.58729651  0.07387884  1
  O  O199  1  0.61332022  0.62561327  0.57401092  1
  O  O200  1  0.93545543  0.12708229  0.08574219  1
  O  O201  1  0.95041621  0.12707763  0.57599122  1
  O  O202  1  0.95963070  0.61334027  0.08901326  1
  O  O203  1  0.95369456  0.61516102  0.58070389  1
  O  O204  1  0.11286801  0.36324927  0.08577640  1
  O  O205  1  0.10331589  0.37832803  0.58744559  1
  O  O206  1  0.11225834  0.86302116  0.08780072  1
  O  O207  1  0.10449757  0.86768797  0.58894100  1
  O  O208  1  0.45427355  0.34489891  0.08177601  1
  O  O209  1  0.45419080  0.35409274  0.57100843  1
  O  O210  1  0.43408963  0.87505399  0.08312006  1
  O  O211  1  0.43418459  0.87344341  0.58453101  1
  O  O212  1  0.77021048  0.35538498  0.07800835  1
  O  O213  1  0.78019852  0.35121498  0.58635070  1
  O  O214  1  0.78382991  0.87602364  0.07244412  1
  O  O215  1  0.76907804  0.86956341  0.58481812  1
  O  O216  1  0.26706896  0.40036649  0.07749247  1
  O  O217  1  0.26483521  0.39145365  0.57802810  1
  O  O218  1  0.27528392  0.89586683  0.08823329  1
  O  O219  1  0.26989883  0.88582145  0.58663129  1
  O  O220  1  0.61037826  0.37668021  0.08355736  1
  O  O221  1  0.61712339  0.38266658  0.57915548  1
  O  O222  1  0.59747964  0.89976357  0.07631997  1
  O  O223  1  0.60306755  0.88569507  0.58548905  1
  O  O224  1  0.94878183  0.37583969  0.07553506  1
  O  O225  1  0.93964056  0.37417022  0.58516874  1
  O  O226  1  0.95075785  0.88604123  0.08673253  1
  O  O227  1  0.93711428  0.87126383  0.58425389  1
  O  O228  1  0.10410065  0.12820819  0.08696988  1
  O  O229  1  0.11612368  0.13400983  0.58775781  1
  O  O230  1  0.11744693  0.64330347  0.08974639  1
  O  O231  1  0.11389743  0.63966788  0.58873777  1
  O  O232  1  0.43448882  0.13677921  0.08250417  1
  O  O233  1  0.43462157  0.12570968  0.58403926  1
  O  O234  1  0.45223394  0.64297414  0.07038535  1
  O  O235  1  0.42609148  0.64266331  0.57051965  1
  O  O236  1  0.76752511  0.12328113  0.08469880  1
  O  O237  1  0.75709357  0.13072678  0.57382384  1
  O  O238  1  0.80444882  0.65299615  0.08434505  1
  O  O239  1  0.77554076  0.65014013  0.57848294  1
  O  O240  1  0.06235812  0.10036352  0.41528150  1
  O  O241  1  0.06351660  0.13073189  0.91664661  1
  O  O242  1  0.07022035  0.63327678  0.41775453  1
  O  O243  1  0.05264097  0.61703811  0.91585047  1
  O  O244  1  0.39622741  0.11861862  0.41445380  1
  O  O245  1  0.39639839  0.12770180  0.91372523  1
  O  O246  1  0.39360586  0.61679096  0.41366803  1
  O  O247  1  0.38807702  0.59291970  0.92212946  1
  O  O248  1  0.73021855  0.12304408  0.41098832  1
  O  O249  1  0.72860565  0.11892588  0.91502303  1
  O  O250  1  0.71978155  0.62815363  0.42471188  1
  O  O251  1  0.73352614  0.61299497  0.92097131  1
  O  O252  1  0.22932181  0.35532436  0.42242294  1
  O  O253  1  0.23026952  0.37438937  0.91407246  1
  O  O254  1  0.23326431  0.86620822  0.41747792  1
  O  O255  1  0.23825435  0.86625071  0.92907077  1
  O  O256  1  0.54268770  0.35774614  0.41092339  1
  O  O257  1  0.56381752  0.36380110  0.91337768  1
  O  O258  1  0.56664435  0.87910311  0.41462075  1
  O  O259  1  0.56130239  0.88139244  0.91493033  1
  O  O260  1  0.87387889  0.33730812  0.42725567  1
  O  O261  1  0.89734142  0.37126640  0.91464411  1
  O  O262  1  0.90066776  0.87831438  0.41592487  1
  O  O263  1  0.88245827  0.86712277  0.91413093  1
  O  O264  1  0.05375603  0.39092135  0.43494961  1
  O  O265  1  0.06511111  0.37359174  0.91375699  1
  O  O266  1  0.06529258  0.88900382  0.41494665  1
  O  O267  1  0.04686894  0.87569691  0.92670934  1
  O  O268  1  0.38628859  0.38498963  0.41178299  1
  O  O269  1  0.39822769  0.37785071  0.91568623  1
  O  O270  1  0.39805154  0.88250164  0.41506759  1
  O  O271  1  0.39519771  0.89157963  0.91682105  1
  O  O272  1  0.70202150  0.38563083  0.42428012  1
  O  O273  1  0.73165290  0.37261884  0.91010011  1
  O  O274  1  0.73250708  0.87230564  0.41426213  1
  O  O275  1  0.72049952  0.89791110  0.91152466  1
  O  O276  1  0.23078914  0.13042299  0.41518722  1
  O  O277  1  0.22879569  0.13739954  0.91494251  1
  O  O278  1  0.23060818  0.64526218  0.41597767  1
  O  O279  1  0.21373616  0.63076026  0.92396658  1
  O  O280  1  0.56461921  0.12529309  0.41498678  1
  O  O281  1  0.56227906  0.13265930  0.91346879  1
  O  O282  1  0.55448084  0.63010923  0.41220782  1
  O  O283  1  0.54820277  0.62900116  0.92417338  1
  O  O284  1  0.89956656  0.11829565  0.41785392  1
  O  O285  1  0.89492140  0.13134157  0.91369662  1
  O  O286  1  0.90625307  0.64827536  0.42395154  1
  O  O287  1  0.89470018  0.62403293  0.91885071  1
  O  O288  1  0.16260164  -0.00211112  0.08868065  1
  O  O289  1  0.16680132  -0.00260080  0.58869123  1
  O  O290  1  0.15301152  0.50267461  0.09061003  1
  O  O291  1  0.17290546  0.50662156  0.58759265  1
  O  O292  1  0.49429212  0.00593849  0.08392039  1
  O  O293  1  0.50699053  -0.00028417  0.58472577  1
  O  O294  1  0.49429086  0.48152647  0.07637133  1
  O  O295  1  0.50605641  0.48890844  0.57354810  1
  O  O296  1  0.85779300  0.00312193  0.08379380  1
  O  O297  1  0.84934464  -0.01077843  0.57541494  1
  O  O298  1  0.84441414  0.51301677  0.07737121  1
  O  O299  1  0.83338206  0.48615236  0.57864445  1
  O  O300  1  0.01970993  0.24758890  0.08474403  1
  O  O301  1  0.02877604  0.25300867  0.58756479  1
  O  O302  1  0.01053948  0.75113232  0.08767125  1
  O  O303  1  0.01525177  0.74905502  0.58752824  1
  O  O304  1  0.31503643  0.23794310  0.07744916  1
  O  O305  1  0.32480989  0.23478103  0.57617841  1
  O  O306  1  0.32641795  0.76277073  0.07923587  1
  O  O307  1  0.33503244  0.75653466  0.58708373  1
  O  O308  1  0.67266258  0.24399878  0.08233975  1
  O  O309  1  0.66579153  0.24793435  0.58245317  1
  O  O310  1  0.65764739  0.75034417  0.06856375  1
  O  O311  1  0.66843375  0.75772759  0.58147317  1
  O  O312  1  0.17415131  -0.00210588  0.41597588  1
  O  O313  1  0.15462270  0.01246338  0.92619598  1
  O  O314  1  0.17001101  0.51600504  0.42534081  1
  O  O315  1  0.14490187  0.49848142  0.91500925  1
  O  O316  1  0.48525183  0.00098320  0.41498457  1
  O  O317  1  0.48619858  0.00719810  0.91501618  1
  O  O318  1  0.48749199  0.49743990  0.41426912  1
  O  O319  1  0.49811422  0.49296010  0.91022932  1
  O  O320  1  0.81000029  -0.00183412  0.41548358  1
  O  O321  1  0.82750781  0.00296790  0.91205558  1
  O  O322  1  0.84260207  0.49905377  0.43034939  1
  O  O323  1  0.82178888  0.49489094  0.91419366  1
  O  O324  1  0.33194416  0.24758458  0.41283234  1
  O  O325  1  0.31982315  0.25385635  0.91402205  1
  O  O326  1  0.33498336  0.75187884  0.41480847  1
  O  O327  1  0.34303600  0.75734348  0.92143093  1
  O  O328  1  0.64820969  0.24836549  0.41693346  1
  O  O329  1  0.65817343  0.24791149  0.91445489  1
  O  O330  1  0.63942790  0.75278954  0.41525241  1
  O  O331  1  0.66082955  0.76650325  0.92087951  1
  O  O332  1  1.00731637  0.23029217  0.42646919  1
  O  O333  1  0.98232743  0.25191022  0.91544457  1
  O  O334  1  1.00066079  0.76083125  0.41596227  1
  O  O335  1  0.97499386  0.74714512  0.91659669  1
  O  O336  1  0.20826980  0.08252734  0.19644552  1
  O  O337  1  0.20885353  0.08156399  0.69823759  1
  O  O338  1  0.21022364  0.58438059  0.19707310  1
  O  O339  1  0.20829764  0.58455657  0.69721345  1
  O  O340  1  0.52985764  0.08463448  0.19318487  1
  O  O341  1  0.54010609  0.08270516  0.69448681  1
  O  O342  1  0.54834931  0.57898247  0.19749277  1
  O  O343  1  0.53389182  0.59419804  0.69328641  1
  O  O344  1  0.87757684  0.08383322  0.19451688  1
  O  O345  1  0.88027920  0.08523858  0.70023995  1
  O  O346  1  0.88431892  0.58625365  0.19477963  1
  O  O347  1  0.87878730  0.58241728  0.70190859  1
  O  O348  1  0.04434467  0.33028175  0.19347816  1
  O  O349  1  0.04514888  0.33382737  0.69620203  1
  O  O350  1  0.04851171  0.83234012  0.19694634  1
  O  O351  1  0.04064707  0.83291570  0.69774513  1
  O  O352  1  0.37441146  0.33153872  0.20095964  1
  O  O353  1  0.37677354  0.33085608  0.69781694  1
  O  O354  1  0.37574119  0.83752787  0.19364415  1
  O  O355  1  0.37678765  0.84241806  0.69599817  1
  O  O356  1  0.71006613  0.32807174  0.19311032  1
  O  O357  1  0.71179054  0.32560177  0.69228706  1
  O  O358  1  0.71228828  0.83306078  0.19982697  1
  O  O359  1  0.70712970  0.83742097  0.69429510  1
  O  O360  1  0.20966405  0.41706324  0.19440034  1
  O  O361  1  0.20895759  0.41812643  0.69475069  1
  O  O362  1  0.21014968  0.91728018  0.19714942  1
  O  O363  1  0.20978623  0.91744909  0.69794071  1
  O  O364  1  0.54344144  0.41072069  0.19223390  1
  O  O365  1  0.54381272  0.40552785  0.68506044  1
  O  O366  1  0.53946807  0.91917131  0.19177515  1
  O  O367  1  0.53983237  0.91952291  0.69498837  1
  O  O368  1  0.88098279  0.41759993  0.20207497  1
  O  O369  1  0.87955370  0.41172085  0.69288764  1
  O  O370  1  0.87595567  0.91674035  0.19166016  1
  O  O371  1  0.87882138  0.91283829  0.69310608  1
  O  O372  1  0.04323341  0.16477352  0.19657339  1
  O  O373  1  0.04579043  0.16676695  0.69456135  1
  O  O374  1  0.04896577  0.67108170  0.19885597  1
  O  O375  1  0.04309080  0.66696570  0.69725577  1
  O  O376  1  0.37092490  0.16477989  0.19258107  1
  O  O377  1  0.37383151  0.16357537  0.69333899  1
  O  O378  1  0.37837532  0.66859584  0.20001657  1
  O  O379  1  0.37704811  0.66850366  0.69245892  1
  O  O380  1  0.71373347  0.16923938  0.19385634  1
  O  O381  1  0.70658492  0.16436392  0.69090462  1
  O  O382  1  0.71271591  0.66786059  0.19984476  1
  O  O383  1  0.71299342  0.67633746  0.68924017  1
  O  O384  1  0.12801020  0.08179866  0.30661701  1
  O  O385  1  0.12370605  0.08650095  0.80829053  1
  O  O386  1  0.12785321  0.58815925  0.30884798  1
  O  O387  1  0.12019764  0.58299519  0.80749677  1
  O  O388  1  0.45608905  0.08345006  0.30495729  1
  O  O389  1  0.45571227  0.08596492  0.80460510  1
  O  O390  1  0.45295168  0.57621665  0.30414863  1
  O  O391  1  0.45105746  0.58878412  0.80947825  1
  O  O392  1  0.79976830  0.08012923  0.30574460  1
  O  O393  1  0.78645604  0.08821609  0.80435111  1
  O  O394  1  0.79183074  0.58307579  0.30026758  1
  O  O395  1  0.79815022  0.58204928  0.80773202  1
  O  O396  1  0.28628745  0.33110641  0.30584341  1
  O  O397  1  0.28825558  0.33392867  0.80495244  1
  O  O398  1  0.29210803  0.83589135  0.30606056  1
  O  O399  1  0.28789208  0.84048363  0.81179466  1
  O  O400  1  0.61991038  0.33049740  0.30600145  1
  O  O401  1  0.61954311  0.32246465  0.80255197  1
  O  O402  1  0.62205860  0.83524041  0.30460775  1
  O  O403  1  0.62078306  0.84119445  0.80482577  1
  O  O404  1  0.95807153  0.32995285  0.30275340  1
  O  O405  1  0.95869787  0.33171834  0.80413479  1
  O  O406  1  0.95803152  0.83725899  0.30547983  1
  O  O407  1  0.95364317  0.83337703  0.80846230  1
  O  O408  1  0.12223864  0.41778700  0.30097872  1
  O  O409  1  0.12357196  0.41593043  0.80483638  1
  O  O410  1  0.13332680  0.91686313  0.30734413  1
  O  O411  1  0.11971437  0.91711752  0.80214635  1
  O  O412  1  0.45452023  0.41682660  0.30296080  1
  O  O413  1  0.45342433  0.40543071  0.80454465  1
  O  O414  1  0.45605057  0.91928823  0.30443280  1
  O  O415  1  0.45562927  0.92212697  0.80601491  1
  O  O416  1  0.78576935  0.41352287  0.30115382  1
  O  O417  1  0.80015007  0.41270725  0.80289137  1
  O  O418  1  0.79229587  0.91661490  0.30569195  1
  O  O419  1  0.78790224  0.91812077  0.80249625  1
  O  O420  1  0.29030679  0.16418227  0.30492688  1
  O  O421  1  0.29010961  0.16822896  0.80464086  1
  O  O422  1  0.29256731  0.66929192  0.30563570  1
  O  O423  1  0.28534867  0.66477130  0.79996412  1
  O  O424  1  0.61809790  0.17064348  0.30555606  1
  O  O425  1  0.62394280  0.16380729  0.80385512  1
  O  O426  1  0.62607910  0.66908254  0.30666918  1
  O  O427  1  0.61543247  0.67697195  0.80032132  1
  O  O428  1  0.96064464  0.16087032  0.30879841  1
  O  O429  1  0.95843678  0.16902766  0.80545998  1
  O  O430  1  0.96263394  0.67213658  0.30812177  1
  O  O431  1  0.95468961  0.66762759  0.80685783  1
  F  F432  1  0.04912621  0.00483094  0.20108798  1
  F  F433  1  0.04577389  0.00212598  0.70216838  1
  F  F434  1  0.04608218  0.50438806  0.20540522  1
  F  F435  1  0.04693790  0.49997372  0.70365159  1
  F  F436  1  0.37650722  0.00043345  0.20278570  1
  F  F437  1  0.37623486  0.00160018  0.70377324  1
  F  F438  1  0.37709668  0.49794036  0.19991654  1
  F  F439  1  0.36557634  0.50221313  0.69891275  1
  F  F440  1  0.71793588  -0.00909390  0.19764671  1
  F  F441  1  0.70257673  0.00079161  0.69744992  1
  F  F442  1  0.71226021  0.49751420  0.20130940  1
  F  F443  1  0.71934335  0.49147920  0.69338642  1
  F  F444  1  0.20914834  0.24774339  0.20313982  1
  F  F445  1  0.21098144  0.24940257  0.70296809  1
  F  F446  1  0.21444524  0.75270421  0.20519693  1
  F  F447  1  0.20155543  0.75515356  0.70248144  1
  F  F448  1  0.54434333  0.24804233  0.20169764  1
  F  F449  1  0.54371277  0.24353560  0.69905785  1
  F  F450  1  0.54605031  0.75522323  0.20113470  1
  F  F451  1  0.54259220  0.76154777  0.69694434  1
  F  F452  1  0.88048496  0.24441751  0.20327633  1
  F  F453  1  0.88040217  0.24847831  0.70120096  1
  F  F454  1  0.88385618  0.75171522  0.20458333  1
  F  F455  1  0.87947324  0.75206054  0.70398654  1
  F  F456  1  0.28942626  0.00078204  0.29873882  1
  F  F457  1  0.28829810  0.00314127  0.80082614  1
  F  F458  1  0.28914766  0.50060388  0.29659997  1
  F  F459  1  0.28673428  0.49621509  0.79929423  1
  F  F460  1  0.61611841  -0.01045003  0.30027004  1
  F  F461  1  0.61946240  0.00315458  0.79756587  1
  F  F462  1  0.62038127  0.49552367  0.29732626  1
  F  F463  1  0.63709208  0.47903761  0.81160968  1
  F  F464  1  0.95496190  0.00060361  0.29791523  1
  F  F465  1  0.96155709  0.00012962  0.80257750  1
  F  F466  1  0.95833531  0.50442935  0.30172024  1
  F  F467  1  0.95763246  0.49575599  0.79930130  1
  F  F468  1  0.12231032  0.24726532  0.29854078  1
  F  F469  1  0.12187253  0.25084584  0.79816618  1
  F  F470  1  0.12583671  0.75262012  0.30174582  1
  F  F471  1  0.11756556  0.75020005  0.80213697  1
  F  F472  1  0.45230469  0.24555977  0.29801078  1
  F  F473  1  0.45370149  0.24371580  0.79827436  1
  F  F474  1  0.45159947  0.76490960  0.30430161  1
  F  F475  1  0.45531478  0.75505487  0.79813354  1
  F  F476  1  0.78757235  0.24619284  0.29833890  1
  F  F477  1  0.78859229  0.24701773  0.79561204  1
  F  F478  1  0.79300971  0.75242013  0.30065467  1
  F  F479  1  0.78578930  0.75240112  0.79604818  1
