# generated using pymatgen
data_K24Na3Li5Mg64Fe17Si79(O5F)48
_symmetry_space_group_name_H-M   'P 1'
_cell_length_a   16.08827888
_cell_length_b   18.59999121
_cell_length_c   20.56952377
_cell_angle_alpha   89.98783106
_cell_angle_beta   100.03227361
_cell_angle_gamma   90.03517018
_symmetry_Int_Tables_number   1
_chemical_formula_structural   K24Na3Li5Mg64Fe17Si79(O5F)48
_chemical_formula_sum   'K24 Na3 Li5 Mg64 Fe17 Si79 O240 F48'
_cell_volume   6061.14579346
_cell_formula_units_Z   1
loop_
 _symmetry_equiv_pos_site_id
 _symmetry_equiv_pos_as_xyz
  1  'x, y, z'
loop_
 _atom_site_type_symbol
 _atom_site_label
 _atom_site_symmetry_multiplicity
 _atom_site_fract_x
 _atom_site_fract_y
 _atom_site_fract_z
 _atom_site_occupancy
  K  K0  1  -0.01203189  -0.00117401  0.00196601  1
  K  K1  1  -0.00791353  0.01521610  0.49226150  1
  K  K2  1  0.00664984  0.48845706  0.00217324  1
  K  K3  1  0.00162931  0.49916101  0.50028587  1
  K  K4  1  0.34795768  -0.00053957  0.00455095  1
  K  K5  1  0.33275198  -0.00145027  0.49714485  1
  K  K6  1  0.33406107  0.49543502  -0.00574933  1
  K  K7  1  0.33704302  0.48366039  0.50879005  1
  K  K8  1  0.65776935  0.01367016  0.00723372  1
  K  K9  1  0.67170641  0.00361657  0.50084499  1
  K  K10  1  0.66305799  0.49527765  0.00028329  1
  K  K11  1  0.65772865  0.49625921  0.49920977  1
  K  K12  1  0.16009537  0.24355100  -0.00058994  1
  K  K13  1  0.16706909  0.24952834  0.50119216  1
  K  K14  1  0.17187655  0.76329067  0.00270824  1
  K  K15  1  0.16423793  0.75051747  0.49608057  1
  K  K16  1  0.50349966  0.24738378  0.00588238  1
  K  K17  1  0.50327108  0.25409361  0.49869871  1
  K  K18  1  0.49885147  0.75976351  0.00351541  1
  K  K19  1  0.50040020  0.75306797  0.49663034  1
  K  K20  1  0.83666672  0.24230273  0.00291484  1
  K  K21  1  0.82156724  0.24157570  0.49486605  1
  K  K22  1  0.84358323  0.75565897  -0.00179962  1
  K  K23  1  0.83513981  0.75549188  0.49842168  1
  Na  Na24  1  0.66316308  0.25134278  0.25285465  1
  Na  Na25  1  0.33444984  0.57518797  0.74803319  1
  Na  Na26  1  0.49762936  0.83169162  0.24219044  1
  Li  Li27  1  -0.00013665  0.74959230  0.74791281  1
  Li  Li28  1  0.66782221  0.74902129  0.75010383  1
  Li  Li29  1  0.33620115  0.41335180  0.74411018  1
  Li  Li30  1  0.50263756  0.32734882  0.25401260  1
  Li  Li31  1  0.16876863  0.16877992  0.75166812  1
  Mg  Mg32  1  0.50182004  0.00030879  0.24856045  1
  Mg  Mg33  1  0.33519790  0.25173992  0.25354756  1
  Mg  Mg34  1  0.16588011  0.00129280  0.75278180  1
  Mg  Mg35  1  0.33227787  0.75062753  0.24716265  1
  Mg  Mg36  1  0.83154759  0.50170841  0.25075313  1
  Mg  Mg37  1  0.83475963  0.50095577  0.74991119  1
  Mg  Mg38  1  0.49898407  0.49582382  0.25126060  1
  Mg  Mg39  1  0.00504909  0.24800925  0.75206189  1
  Mg  Mg40  1  0.17172478  0.49978902  0.74962627  1
  Mg  Mg41  1  0.16524530  0.00009049  0.25147212  1
  Mg  Mg42  1  0.66627866  0.24953662  0.75281543  1
  Mg  Mg43  1  0.66352209  0.75133057  0.24566154  1
  Mg  Mg44  1  0.49804743  0.49714570  0.74663708  1
  Mg  Mg45  1  0.33339195  0.74769823  0.74953590  1
  Mg  Mg46  1  0.83450359  -0.00014072  0.74988977  1
  Mg  Mg47  1  0.49979174  0.00035140  0.75413866  1
  Mg  Mg48  1  0.83404970  0.00154642  0.25072336  1
  Mg  Mg49  1  0.16647818  0.49775405  0.24917523  1
  Mg  Mg50  1  -0.00114463  0.25105977  0.24824904  1
  Mg  Mg51  1  0.33243760  0.24994006  0.75062631  1
  Mg  Mg52  1  -0.00060128  0.75134383  0.25171723  1
  Mg  Mg53  1  0.83621852  0.16405572  0.75193596  1
  Mg  Mg54  1  -0.00007144  0.41660041  0.24936027  1
  Mg  Mg55  1  0.17220920  0.33408921  0.74879890  1
  Mg  Mg56  1  0.83369015  0.16586107  0.25148590  1
  Mg  Mg57  1  0.00341931  0.41603895  0.75139643  1
  Mg  Mg58  1  0.83301962  0.83567656  0.24973130  1
  Mg  Mg59  1  -0.00079777  0.91365808  0.74755419  1
  Mg  Mg60  1  0.66719887  0.08422481  0.75429347  1
  Mg  Mg61  1  0.16566557  0.66673109  0.74897095  1
  Mg  Mg62  1  0.33428923  0.91539692  0.24687410  1
  Mg  Mg63  1  -0.00048869  0.91754941  0.25117335  1
  Mg  Mg64  1  0.33276645  0.08509041  0.75411665  1
  Mg  Mg65  1  0.50007460  0.16526244  0.75247716  1
  Mg  Mg66  1  0.16577363  0.16624334  0.25129482  1
  Mg  Mg67  1  0.16366013  0.83112003  0.74981941  1
  Mg  Mg68  1  -0.00022923  0.58573477  0.25140730  1
  Mg  Mg69  1  0.33383149  0.91509010  0.75197024  1
  Mg  Mg70  1  0.00099975  0.08583832  0.75060233  1
  Mg  Mg71  1  0.83565418  0.33342581  0.75191786  1
  Mg  Mg72  1  0.16575019  0.66512084  0.24982327  1
  Mg  Mg73  1  0.83273589  0.33524641  0.25132979  1
  Mg  Mg74  1  0.66780475  0.08623010  0.24981789  1
  Mg  Mg75  1  0.83441092  0.66901440  0.74859784  1
  Mg  Mg76  1  -0.00273062  0.08627976  0.25112592  1
  Mg  Mg77  1  0.33403105  0.08374749  0.25227028  1
  Mg  Mg78  1  0.66839697  0.91218156  0.75053633  1
  Mg  Mg79  1  0.49638672  0.66561550  0.24570505  1
  Mg  Mg80  1  0.33244324  0.58281064  0.24681643  1
  Mg  Mg81  1  0.83450675  0.82994365  0.74781951  1
  Mg  Mg82  1  0.66344267  0.41553311  0.25308579  1
  Mg  Mg83  1  0.50138420  0.66583156  0.74833040  1
  Mg  Mg84  1  0.16656159  0.33309477  0.25015843  1
  Mg  Mg85  1  0.50061290  0.16936781  0.25147240  1
  Mg  Mg86  1  0.50351189  0.83113045  0.75086465  1
  Mg  Mg87  1  0.33567625  0.41325533  0.25221839  1
  Mg  Mg88  1  0.00138997  0.58590125  0.74918692  1
  Mg  Mg89  1  0.83442726  0.66755311  0.25209277  1
  Mg  Mg90  1  0.49698872  0.33503683  0.74942882  1
  Mg  Mg91  1  0.66446343  0.58494238  0.25121507  1
  Mg  Mg92  1  0.66563296  0.41636646  0.75011423  1
  Mg  Mg93  1  0.16654008  0.83575837  0.24780616  1
  Mg  Mg94  1  0.66562938  0.58591496  0.74757020  1
  Mg  Mg95  1  0.66516767  0.91668505  0.24735031  1
  Fe  Fe96  1  0.02242127  0.33240483  0.10968181  1
  Fe  Fe97  1  0.64113906  0.17035309  0.89322587  1
  Fe  Fe98  1  0.46842020  0.08436574  0.89368349  1
  Fe  Fe99  1  0.86249472  0.08533309  0.61017857  1
  Fe  Fe100  1  0.52478555  0.41857392  0.60913749  1
  Fe  Fe101  1  0.85316881  0.07984404  0.10756525  1
  Fe  Fe102  1  0.35510891  0.32459237  0.60943987  1
  Fe  Fe103  1  0.35593265  0.83366626  0.10462334  1
  Fe  Fe104  1  0.80544536  0.08140182  0.39283973  1
  Fe  Fe105  1  0.97211272  0.16502497  0.89274965  1
  Fe  Fe106  1  0.14328413  0.91838172  0.38997903  1
  Fe  Fe107  1  0.97723337  0.17656060  0.39108434  1
  Fe  Fe108  1  0.53251378  0.92314706  0.10484248  1
  Fe  Fe109  1  0.97698362  0.66567281  0.39163439  1
  Fe  Fe110  1  0.85611047  0.90874194  0.10944762  1
  Fe  Fe111  1  0.31028560  0.33162452  0.39149693  1
  Fe  Fe112  1  0.63079377  0.16616613  0.39392705  1
  Si  Si113  1  0.02459226  0.83004779  0.61425304  1
  Si  Si114  1  0.69328856  0.83022588  0.61485482  1
  Si  Si115  1  0.30805358  0.33382145  0.88555463  1
  Si  Si116  1  0.86234951  0.41364484  0.61633186  1
  Si  Si117  1  0.85535003  0.42434561  0.11168173  1
  Si  Si118  1  0.18959663  0.58728412  0.61309607  1
  Si  Si119  1  0.30872429  0.66499735  0.38244369  1
  Si  Si120  1  0.64019501  0.34006186  0.39005539  1
  Si  Si121  1  0.64332720  0.82873152  0.88429908  1
  Si  Si122  1  0.80126169  0.58704947  0.38851493  1
  Si  Si123  1  0.97529958  0.34634379  0.38762098  1
  Si  Si124  1  0.19539127  0.41390807  0.11132784  1
  Si  Si125  1  0.13738994  0.07869781  0.88787592  1
  Si  Si126  1  0.29893594  0.16836343  0.88848276  1
  Si  Si127  1  0.47803755  0.58208344  0.88457072  1
  Si  Si128  1  0.36024788  0.33348218  0.11716374  1
  Si  Si129  1  0.52129543  0.58956474  0.60973793  1
  Si  Si130  1  0.81210098  0.58753482  0.88466514  1
  Si  Si131  1  0.19445946  0.07784875  0.61890207  1
  Si  Si132  1  0.52423703  0.41513784  0.11633627  1
  Si  Si133  1  0.81042432  0.91064286  0.88381350  1
  Si  Si134  1  0.63538317  0.66908589  0.38358471  1
  Si  Si135  1  0.30848786  0.82912965  0.88439448  1
  Si  Si136  1  0.35408901  0.66174922  0.10866413  1
  Si  Si137  1  0.97520644  0.83463483  0.38930234  1
  Si  Si138  1  0.64249556  0.66351121  0.88458561  1
  Si  Si139  1  0.19187812  0.92166113  0.11111164  1
  Si  Si140  1  0.97763298  0.83267385  0.88235954  1
  Si  Si141  1  0.30917059  0.66583523  0.88368678  1
  Si  Si142  1  0.69317339  0.66516626  0.61386315  1
  Si  Si143  1  0.47368457  0.91515930  0.38381364  1
  Si  Si144  1  0.69359675  0.17471935  0.11335248  1
  Si  Si145  1  0.35740731  0.67316355  0.61380267  1
  Si  Si146  1  0.14518425  0.08696647  0.38888162  1
  Si  Si147  1  0.97782561  0.66759712  0.88358264  1
  Si  Si148  1  0.14473218  0.91511738  0.88498349  1
  Si  Si149  1  0.03616575  0.16980832  0.61562091  1
  Si  Si150  1  0.14197319  0.41886144  0.38584896  1
  Si  Si151  1  0.18967062  0.57831935  0.11277339  1
  Si  Si152  1  0.30874489  0.16431966  0.38603105  1
  Si  Si153  1  0.69029107  0.16980525  0.61592456  1
  Si  Si154  1  0.47599929  0.42363894  0.38828580  1
  Si  Si155  1  0.69286589  0.34169501  0.11617480  1
  Si  Si156  1  0.14448923  0.41996317  0.88469215  1
  Si  Si157  1  0.64746499  0.34015432  0.88987152  1
  Si  Si158  1  0.35705788  0.16944820  0.11734179  1
  Si  Si159  1  0.85757215  0.91314072  0.61116396  1
  Si  Si160  1  0.02636639  0.16226940  0.11207717  1
  Si  Si161  1  0.52172854  0.57820254  0.11411335  1
  Si  Si162  1  0.52749163  0.91419762  0.61530883  1
  Si  Si163  1  0.47579560  0.41676793  0.88632180  1
  Si  Si164  1  0.35714078  0.15549048  0.61361560  1
  Si  Si165  1  0.52442692  0.09337500  0.11308821  1
  Si  Si166  1  0.14353716  0.58468413  0.88506506  1
  Si  Si167  1  0.52836618  0.07980003  0.61598308  1
  Si  Si168  1  0.35698406  0.83710615  0.61502182  1
  Si  Si169  1  0.19324997  0.08597730  0.11642382  1
  Si  Si170  1  0.97798739  0.33767873  0.88794981  1
  Si  Si171  1  0.46564100  0.07786931  0.38799648  1
  Si  Si172  1  0.80200441  0.07584536  0.88901267  1
  Si  Si173  1  0.02392160  0.66466677  0.61374399  1
  Si  Si174  1  0.19069971  0.42172140  0.61190426  1
  Si  Si175  1  0.80754722  0.91022150  0.38655489  1
  Si  Si176  1  0.31029326  0.82918144  0.38690298  1
  Si  Si177  1  0.03014038  0.83100367  0.11103362  1
  Si  Si178  1  0.68550604  0.66328771  0.11508572  1
  Si  Si179  1  0.85469658  0.58916061  0.11414657  1
  Si  Si180  1  0.69594757  0.33541667  0.61630419  1
  Si  Si181  1  0.64147393  0.83300951  0.38314667  1
  Si  Si182  1  0.47784149  0.91072359  0.88733502  1
  Si  Si183  1  0.80557106  0.42167030  0.38752925  1
  Si  Si184  1  0.81167515  0.42302315  0.88553042  1
  Si  Si185  1  0.85761651  0.58058214  0.61367654  1
  Si  Si186  1  0.69382481  0.82538902  0.10988044  1
  Si  Si187  1  0.02976307  0.33633316  0.61528727  1
  Si  Si188  1  0.47310247  0.58581020  0.38238653  1
  Si  Si189  1  0.02663752  0.66493721  0.11354039  1
  Si  Si190  1  0.14682217  0.58054822  0.38666451  1
  Si  Si191  1  0.18774091  0.91497058  0.61596485  1
  O  O192  1  0.27629709  0.11687926  0.08747295  1
  O  O193  1  0.28013382  0.09660897  0.58927149  1
  O  O194  1  0.27027064  0.60993200  0.08265789  1
  O  O195  1  0.26917748  0.62838009  0.58640814  1
  O  O196  1  0.60063487  0.13744890  0.08632222  1
  O  O197  1  0.60419394  0.12182674  0.58797389  1
  O  O198  1  0.60555263  0.60902540  0.08636696  1
  O  O199  1  0.60252318  0.62807924  0.58217643  1
  O  O200  1  0.95752687  0.10266906  0.08139067  1
  O  O201  1  0.95571038  0.12472854  0.57900230  1
  O  O202  1  0.93460134  0.62608720  0.08503715  1
  O  O203  1  0.93679962  0.61823006  0.58464113  1
  O  O204  1  0.11788227  0.36552086  0.07491624  1
  O  O205  1  0.09903819  0.38213560  0.58280157  1
  O  O206  1  0.11187288  0.86689131  0.08454436  1
  O  O207  1  0.10603989  0.86422871  0.58511687  1
  O  O208  1  0.44230533  0.36442177  0.08679953  1
  O  O209  1  0.44271194  0.35702531  0.56903683  1
  O  O210  1  0.44296912  0.86576289  0.06545300  1
  O  O211  1  0.43648008  0.87418467  0.58562255  1
  O  O212  1  0.76649558  0.38166293  0.08217230  1
  O  O213  1  0.78387052  0.35987352  0.58944886  1
  O  O214  1  0.78207386  0.83087005  0.08288415  1
  O  O215  1  0.77027870  0.86615558  0.58295444  1
  O  O216  1  0.28212339  0.38756317  0.08476589  1
  O  O217  1  0.26091456  0.38426299  0.57689714  1
  O  O218  1  0.26473431  0.89622310  0.07130652  1
  O  O219  1  0.27104282  0.88383570  0.58715092  1
  O  O220  1  0.60482542  0.38527621  0.08491145  1
  O  O221  1  0.62707756  0.39197936  0.58158040  1
  O  O222  1  0.62582826  0.88221689  0.07302349  1
  O  O223  1  0.60198324  0.87043806  0.58511531  1
  O  O224  1  0.93061083  0.39443289  0.07661955  1
  O  O225  1  0.94150361  0.37996214  0.58636668  1
  O  O226  1  0.94897249  0.87241296  0.07249611  1
  O  O227  1  0.93619535  0.87120978  0.58375883  1
  O  O228  1  0.11704452  0.14107536  0.08724636  1
  O  O229  1  0.12059793  0.13583869  0.58994887  1
  O  O230  1  0.10100409  0.62121772  0.08335631  1
  O  O231  1  0.10174723  0.63065015  0.58070351  1
  O  O232  1  0.43821091  0.14202391  0.08670814  1
  O  O233  1  0.43862575  0.11828230  0.58602610  1
  O  O234  1  0.43647466  0.62361744  0.08277894  1
  O  O235  1  0.43750021  0.64143249  0.58264373  1
  O  O236  1  0.76427412  0.14445656  0.07328756  1
  O  O237  1  0.76582377  0.14119872  0.58095302  1
  O  O238  1  0.76890421  0.63555715  0.08472915  1
  O  O239  1  0.76981217  0.62390847  0.58315268  1
  O  O240  1  0.06655593  0.11259516  0.42259179  1
  O  O241  1  0.05988741  0.10006146  0.92466406  1
  O  O242  1  0.06885951  0.60329710  0.42225615  1
  O  O243  1  0.06453266  0.62244593  0.91458205  1
  O  O244  1  0.37331419  0.09632697  0.40971033  1
  O  O245  1  0.37305756  0.11769364  0.92700533  1
  O  O246  1  0.38997331  0.61381405  0.41142376  1
  O  O247  1  0.39801642  0.62230633  0.91115048  1
  O  O248  1  0.71645875  0.10667971  0.43361154  1
  O  O249  1  0.71693229  0.09388309  0.91724259  1
  O  O250  1  0.71392081  0.61568829  0.41367672  1
  O  O251  1  0.73155306  0.62054236  0.91449015  1
  O  O252  1  0.20879184  0.35962904  0.41981898  1
  O  O253  1  0.23254816  0.37794533  0.91579428  1
  O  O254  1  0.23553908  0.85583818  0.42432840  1
  O  O255  1  0.22827089  0.86491227  0.91283020  1
  O  O256  1  0.56261801  0.38016880  0.42008709  1
  O  O257  1  0.56641094  0.37788693  0.91842078  1
  O  O258  1  0.55955449  0.86685305  0.41109775  1
  O  O259  1  0.56227155  0.86048420  0.91390199  1
  O  O260  1  0.89289340  0.37887542  0.41730075  1
  O  O261  1  0.89812449  0.37863686  0.91499975  1
  O  O262  1  0.88207038  0.84994128  0.41115867  1
  O  O263  1  0.89682828  0.86414795  0.91299282  1
  O  O264  1  0.04997521  0.40801788  0.41019204  1
  O  O265  1  0.06338970  0.38750807  0.91416572  1
  O  O266  1  0.04257802  0.89586099  0.42094629  1
  O  O267  1  0.06402309  0.87840708  0.91358032  1
  O  O268  1  0.39704815  0.39826764  0.42154689  1
  O  O269  1  0.39805015  0.37632031  0.91587776  1
  O  O270  1  0.39843514  0.87408269  0.41546358  1
  O  O271  1  0.39659211  0.87071493  0.91274068  1
  O  O272  1  0.72732456  0.38846814  0.41902161  1
  O  O273  1  0.72877360  0.39601113  0.91496890  1
  O  O274  1  0.72501624  0.87821034  0.41732105  1
  O  O275  1  0.73206374  0.87178726  0.91302442  1
  O  O276  1  0.22108013  0.14677021  0.41334896  1
  O  O277  1  0.21239109  0.13805960  0.91292594  1
  O  O278  1  0.22742623  0.63534390  0.41277541  1
  O  O279  1  0.23232257  0.62667389  0.91507938  1
  O  O280  1  0.53441252  0.13202299  0.42738860  1
  O  O281  1  0.55073251  0.14689041  0.93257388  1
  O  O282  1  0.55110453  0.64106980  0.41152556  1
  O  O283  1  0.56687064  0.62423731  0.91768816  1
  O  O284  1  0.88982887  0.14403455  0.42986529  1
  O  O285  1  0.87720400  0.12888930  0.92316818  1
  O  O286  1  0.87793279  0.63708269  0.42389073  1
  O  O287  1  0.89758354  0.63428911  0.91511299  1
  O  O288  1  0.16704438  0.00537926  0.08670341  1
  O  O289  1  0.16663738  -0.00331877  0.58839017  1
  O  O290  1  0.17625919  0.49707299  0.08254533  1
  O  O291  1  0.17990450  0.50592127  0.58236511  1
  O  O292  1  0.51149156  0.01841738  0.07319600  1
  O  O293  1  0.52387616  -0.00359740  0.58584979  1
  O  O294  1  0.50464134  0.49655342  0.08359750  1
  O  O295  1  0.50429362  0.51344939  0.57353116  1
  O  O296  1  0.81898157  -0.00725297  0.06720821  1
  O  O297  1  0.84412422  -0.00937130  0.57694198  1
  O  O298  1  0.83765111  0.50833074  0.08347070  1
  O  O299  1  0.84644070  0.49674344  0.58651262  1
  O  O300  1  -0.00213969  0.23969646  0.07816195  1
  O  O301  1  0.02772464  0.25405331  0.58732533  1
  O  O302  1  0.02533030  0.74596025  0.08269930  1
  O  O303  1  0.01099263  0.74723221  0.58518441  1
  O  O304  1  0.33674097  0.25186176  0.08775728  1
  O  O305  1  0.33035718  0.22962935  0.57602388  1
  O  O306  1  0.33402007  0.73713562  0.07168231  1
  O  O307  1  0.34199685  0.75590319  0.58298204  1
  O  O308  1  0.67872651  0.26000672  0.08873506  1
  O  O309  1  0.66981239  0.25340853  0.59041449  1
  O  O310  1  0.65689046  0.74243836  0.08652318  1
  O  O311  1  0.68566039  0.74783984  0.58461094  1
  O  O312  1  0.18098936  0.00980760  0.41970427  1
  O  O313  1  0.16673064  -0.00447050  0.91501055  1
  O  O314  1  0.17804545  0.49940654  0.41195449  1
  O  O315  1  0.15460861  0.50268218  0.91521463  1
  O  O316  1  0.48764310  -0.00502433  0.41814158  1
  O  O317  1  0.49165738  -0.01237145  0.92212014  1
  O  O318  1  0.50014216  0.50768101  0.41418047  1
  O  O319  1  0.48205918  0.50030888  0.91707533  1
  O  O320  1  0.83503677  -0.01455873  0.42168975  1
  O  O321  1  0.82872388  -0.00849997  0.91224882  1
  O  O322  1  0.81721012  0.50443070  0.41688403  1
  O  O323  1  0.82967024  0.50577030  0.91404303  1
  O  O324  1  0.34701582  0.23869501  0.41926622  1
  O  O325  1  0.31180910  0.25260706  0.91790561  1
  O  O326  1  0.33337391  0.74516598  0.41239704  1
  O  O327  1  0.31921575  0.74739886  0.91550949  1
  O  O328  1  0.65439901  0.26234212  0.42484418  1
  O  O329  1  0.67368381  0.26479651  0.92575371  1
  O  O330  1  0.65361507  0.75017159  0.41455546  1
  O  O331  1  0.65572979  0.74584604  0.91369139  1
  O  O332  1  1.00498635  0.27180878  0.42355468  1
  O  O333  1  0.99351956  0.26102174  0.92376031  1
  O  O334  1  1.00767514  0.75777376  0.42333978  1
  O  O335  1  0.99303945  0.75009353  0.91237527  1
  O  O336  1  0.21106195  0.08385864  0.19688574  1
  O  O337  1  0.21328415  0.07646812  0.69863024  1
  O  O338  1  0.20767804  0.58188570  0.19314050  1
  O  O339  1  0.19980983  0.58597042  0.69226306  1
  O  O340  1  0.54020559  0.08603182  0.19324519  1
  O  O341  1  0.54519651  0.07817927  0.69601823  1
  O  O342  1  0.54016188  0.58015319  0.19436230  1
  O  O343  1  0.54291740  0.58670662  0.69055289  1
  O  O344  1  0.87797433  0.08241651  0.19925582  1
  O  O345  1  0.87855069  0.08135135  0.70173755  1
  O  O346  1  0.87366489  0.58599853  0.19429708  1
  O  O347  1  0.87659695  0.58269351  0.69399510  1
  O  O348  1  0.04459008  0.33608742  0.20112576  1
  O  O349  1  0.04505715  0.33655150  0.69568608  1
  O  O350  1  0.04310214  0.82954922  0.19171609  1
  O  O351  1  0.04488561  0.83395500  0.69379507  1
  O  O352  1  0.37410708  0.33476631  0.19619682  1
  O  O353  1  0.37929901  0.32759564  0.70003725  1
  O  O354  1  0.36285366  0.83110018  0.19476457  1
  O  O355  1  0.37658668  0.83424425  0.69526290  1
  O  O356  1  0.71465248  0.34684092  0.19522985  1
  O  O357  1  0.71394776  0.33541422  0.69759574  1
  O  O358  1  0.70847674  0.82993546  0.19145244  1
  O  O359  1  0.71185705  0.83361079  0.69416604  1
  O  O360  1  0.20913084  0.41734863  0.19183443  1
  O  O361  1  0.20463903  0.41999314  0.69196304  1
  O  O362  1  0.21036959  0.91825102  0.19186839  1
  O  O363  1  0.20872578  0.91332992  0.69634955  1
  O  O364  1  0.54465156  0.42080085  0.19532826  1
  O  O365  1  0.54814264  0.41605636  0.70133745  1
  O  O366  1  0.54871848  0.92466608  0.19529290  1
  O  O367  1  0.54404882  0.91353643  0.69534843  1
  O  O368  1  0.87503246  0.42304252  0.19259281  1
  O  O369  1  0.87992578  0.41783326  0.69684060  1
  O  O370  1  0.87931157  0.91541101  0.20196959  1
  O  O371  1  0.87581568  0.91330716  0.69210961  1
  O  O372  1  0.04556241  0.16656285  0.19329161  1
  O  O373  1  0.04592835  0.16833567  0.69548687  1
  O  O374  1  0.04476056  0.66445903  0.19364620  1
  O  O375  1  0.04365222  0.66306710  0.69326826  1
  O  O376  1  0.37326913  0.16722857  0.19736742  1
  O  O377  1  0.37625475  0.16208255  0.69429475  1
  O  O378  1  0.37269208  0.66295509  0.18961090  1
  O  O379  1  0.37988552  0.67441341  0.69302196  1
  O  O380  1  0.71642714  0.16484071  0.19224434  1
  O  O381  1  0.71118034  0.16678811  0.69673119  1
  O  O382  1  0.70877406  0.66278825  0.19538856  1
  O  O383  1  0.71345657  0.66255328  0.69336613  1
  O  O384  1  0.12473450  0.08455890  0.30703881  1
  O  O385  1  0.11823991  0.07627331  0.80775421  1
  O  O386  1  0.12515208  0.58319667  0.30533411  1
  O  O387  1  0.12325876  0.58502478  0.80509628  1
  O  O388  1  0.45455050  0.08027340  0.30720712  1
  O  O389  1  0.45435954  0.08179906  0.80102089  1
  O  O390  1  0.45490558  0.58377678  0.30193985  1
  O  O391  1  0.46853281  0.58246350  0.80553736  1
  O  O392  1  0.78783942  0.08291624  0.30116684  1
  O  O393  1  0.78889120  0.07949363  0.80742227  1
  O  O394  1  0.78767907  0.58606527  0.30740934  1
  O  O395  1  0.79308374  0.58589915  0.80445983  1
  O  O396  1  0.28681463  0.33469157  0.29989162  1
  O  O397  1  0.28885151  0.33162894  0.80653109  1
  O  O398  1  0.28850018  0.83128959  0.30634285  1
  O  O399  1  0.28971716  0.83064461  0.80388714  1
  O  O400  1  0.62201406  0.34427959  0.31101328  1
  O  O401  1  0.62835480  0.33588322  0.80926967  1
  O  O402  1  0.63060572  0.83021849  0.30423412  1
  O  O403  1  0.62367583  0.83240526  0.80460362  1
  O  O404  1  0.95407350  0.34196772  0.30680525  1
  O  O405  1  0.95825197  0.33684844  0.80703348  1
  O  O406  1  0.95968690  0.83159311  0.30769843  1
  O  O407  1  0.95721759  0.83412678  0.80296094  1
  O  O408  1  0.12476882  0.41933900  0.30468786  1
  O  O409  1  0.12424706  0.41893837  0.80474009  1
  O  O410  1  0.12281992  0.91472964  0.29802864  1
  O  O411  1  0.12424758  0.91388803  0.80465439  1
  O  O412  1  0.45439493  0.42298973  0.30819341  1
  O  O413  1  0.46220198  0.41816292  0.80743869  1
  O  O414  1  0.45157739  0.92132329  0.30511300  1
  O  O415  1  0.45832485  0.91205330  0.80604637  1
  O  O416  1  0.78933832  0.42156393  0.30695232  1
  O  O417  1  0.79315752  0.42004932  0.80506641  1
  O  O418  1  0.78679367  0.91305411  0.30583239  1
  O  O419  1  0.79165527  0.91142460  0.80331638  1
  O  O420  1  0.28943173  0.16638343  0.30492736  1
  O  O421  1  0.29232106  0.16752915  0.80854150  1
  O  O422  1  0.28875971  0.66413647  0.30185344  1
  O  O423  1  0.28633861  0.67107950  0.80466778  1
  O  O424  1  0.61585510  0.15798388  0.30394380  1
  O  O425  1  0.62173072  0.16726297  0.80044314  1
  O  O426  1  0.62001223  0.66736857  0.30338844  1
  O  O427  1  0.62310406  0.66256296  0.80497565  1
  O  O428  1  0.95744182  0.17170274  0.29906975  1
  O  O429  1  0.95731314  0.16826895  0.80142250  1
  O  O430  1  0.95589793  0.66621232  0.29968526  1
  O  O431  1  0.95632410  0.66316986  0.80421409  1
  F  F432  1  0.04518379  0.00195033  0.20290479  1
  F  F433  1  0.04558543  -0.00242111  0.70208084  1
  F  F434  1  0.04452221  0.50286238  0.20158436  1
  F  F435  1  0.04472626  0.50092123  0.70315051  1
  F  F436  1  0.37749757  0.00219290  0.20096689  1
  F  F437  1  0.37866759  -0.00551109  0.70312126  1
  F  F438  1  0.37785000  0.49933332  0.20045367  1
  F  F439  1  0.38647603  0.49292148  0.69244797  1
  F  F440  1  0.71206113  -0.00115637  0.20169416  1
  F  F441  1  0.71144119  -0.00235706  0.70351221  1
  F  F442  1  0.71045028  0.50353948  0.20386868  1
  F  F443  1  0.71520249  0.50181729  0.70224856  1
  F  F444  1  0.21144160  0.24875521  0.20167159  1
  F  F445  1  0.21333602  0.25277206  0.70127297  1
  F  F446  1  0.20900928  0.74718919  0.20107865  1
  F  F447  1  0.21167206  0.75029707  0.69935283  1
  F  F448  1  0.52949004  0.25016872  0.19670762  1
  F  F449  1  0.54583971  0.25111020  0.70348472  1
  F  F450  1  0.54777318  0.73622667  0.19413915  1
  F  F451  1  0.54213345  0.74994475  0.70052015  1
  F  F452  1  0.87867999  0.25835147  0.19886492  1
  F  F453  1  0.88089978  0.25363986  0.70311738  1
  F  F454  1  0.87850590  0.74970933  0.20226153  1
  F  F455  1  0.87520211  0.74814182  0.69753141  1
  F  F456  1  0.28744053  -0.00231580  0.29593310  1
  F  F457  1  0.28835488  -0.00455933  0.80050767  1
  F  F458  1  0.28739310  0.50158066  0.29496733  1
  F  F459  1  0.27981436  0.49672490  0.80764089  1
  F  F460  1  0.62240019  -0.00095465  0.29867568  1
  F  F461  1  0.62219561  -0.00519244  0.79800682  1
  F  F462  1  0.62031747  0.50412521  0.29945484  1
  F  F463  1  0.62577445  0.50369962  0.79748664  1
  F  F464  1  0.95789616  0.00057761  0.30097719  1
  F  F465  1  0.95552492  -0.00631296  0.79809797  1
  F  F466  1  0.95277405  0.50275931  0.29616249  1
  F  F467  1  0.95599829  0.50186314  0.79861646  1
  F  F468  1  0.12153110  0.24984443  0.29771546  1
  F  F469  1  0.12114380  0.25922383  0.80080430  1
  F  F470  1  0.12227200  0.74856724  0.29642487  1
  F  F471  1  0.12460235  0.74864421  0.79824755  1
  F  F472  1  0.45189989  0.24684093  0.30222033  1
  F  F473  1  0.45609752  0.24840835  0.80015131  1
  F  F474  1  0.44856599  0.73779718  0.29844052  1
  F  F475  1  0.45491373  0.74899336  0.79909516  1
  F  F476  1  0.80048194  0.25349223  0.30088546  1
  F  F477  1  0.79012926  0.25099103  0.79867704  1
  F  F478  1  0.78512041  0.74876377  0.29561356  1
  F  F479  1  0.79426793  0.74856731  0.79933509  1
