# generated using pymatgen
data_K24Na3Li5Mg64Fe17Si79(O5F)48
_symmetry_space_group_name_H-M   'P 1'
_cell_length_a   16.07812247
_cell_length_b   18.57007440
_cell_length_c   20.53655403
_cell_angle_alpha   90.00128569
_cell_angle_beta   100.01659967
_cell_angle_gamma   90.00180529
_symmetry_Int_Tables_number   1
_chemical_formula_structural   K24Na3Li5Mg64Fe17Si79(O5F)48
_chemical_formula_sum   'K24 Na3 Li5 Mg64 Fe17 Si79 O240 F48'
_cell_volume   6038.17647905
_cell_formula_units_Z   1
loop_
 _symmetry_equiv_pos_site_id
 _symmetry_equiv_pos_as_xyz
  1  'x, y, z'
loop_
 _atom_site_type_symbol
 _atom_site_label
 _atom_site_symmetry_multiplicity
 _atom_site_fract_x
 _atom_site_fract_y
 _atom_site_fract_z
 _atom_site_occupancy
  K  K0  1  -0.00192116  -0.00197467  0.00221808  1
  K  K1  1  -0.00603699  -0.00230091  0.49412137  1
  K  K2  1  0.00568845  0.50962760  -0.00432413  1
  K  K3  1  -0.00218981  0.50707781  0.50337506  1
  K  K4  1  0.33204869  -0.00512262  0.00214156  1
  K  K5  1  0.33801509  -0.00886912  0.49822924  1
  K  K6  1  0.32790645  0.49723213  -0.00053484  1
  K  K7  1  0.33194355  0.50249133  0.50448383  1
  K  K8  1  0.66784323  0.00344031  0.00240209  1
  K  K9  1  0.67409347  -0.00838636  0.49262408  1
  K  K10  1  0.66397637  0.50634091  -0.00301474  1
  K  K11  1  0.68216671  0.50771678  0.50281949  1
  K  K12  1  0.16360842  0.25645737  -0.00445290  1
  K  K13  1  0.16254962  0.24058670  0.50341608  1
  K  K14  1  0.16646446  0.74624758  0.00319477  1
  K  K15  1  0.16739778  0.75019391  0.49874664  1
  K  K16  1  0.50284110  0.25289662  0.00299986  1
  K  K17  1  0.50224366  0.24868072  0.49917977  1
  K  K18  1  0.50100970  0.75510212  -0.00137410  1
  K  K19  1  0.50633838  0.75652557  0.50227756  1
  K  K20  1  0.83385001  0.24348821  -0.00077612  1
  K  K21  1  0.82618760  0.24967106  0.50081083  1
  K  K22  1  0.83420795  0.74376622  0.00519106  1
  K  K23  1  0.82948857  0.75138678  0.49566238  1
  Na  Na24  1  0.49809807  0.50030162  0.74782109  1
  Na  Na25  1  0.83809695  0.67015549  0.24640046  1
  Na  Na26  1  0.33371567  0.91994780  0.25223952  1
  Li  Li27  1  -0.00316806  0.74624295  0.24310328  1
  Li  Li28  1  0.16559937  0.50170216  0.74469095  1
  Li  Li29  1  0.50166903  0.33361281  0.24464057  1
  Li  Li30  1  0.67111526  0.08131321  0.25507393  1
  Li  Li31  1  0.16534279  0.16727994  0.75202535  1
  Mg  Mg32  1  0.83435335  0.49999943  0.24883911  1
  Mg  Mg33  1  0.33155271  0.74992054  0.74817653  1
  Mg  Mg34  1  0.33358404  0.75140191  0.24738475  1
  Mg  Mg35  1  0.83513829  0.50223389  0.75026763  1
  Mg  Mg36  1  0.00082679  0.75041873  0.74824258  1
  Mg  Mg37  1  0.49990013  0.49657489  0.24722027  1
  Mg  Mg38  1  0.16507039  -0.00153214  0.25250822  1
  Mg  Mg39  1  0.82835921  0.00119258  0.25305664  1
  Mg  Mg40  1  0.50444397  0.00095599  0.25366564  1
  Mg  Mg41  1  0.66619164  0.75038669  0.75112498  1
  Mg  Mg42  1  -0.00128388  0.24787512  0.25156734  1
  Mg  Mg43  1  0.83319406  -0.00112606  0.75596439  1
  Mg  Mg44  1  0.66573620  0.25078947  0.75280625  1
  Mg  Mg45  1  0.33595361  0.24911195  0.24847464  1
  Mg  Mg46  1  0.16670210  0.00142638  0.75283635  1
  Mg  Mg47  1  0.49917050  0.00142195  0.75129638  1
  Mg  Mg48  1  0.00263837  0.24959266  0.75229560  1
  Mg  Mg49  1  0.66424597  0.24852146  0.25168483  1
  Mg  Mg50  1  0.32873650  0.25133089  0.74828071  1
  Mg  Mg51  1  0.66877964  0.75050130  0.25535954  1
  Mg  Mg52  1  0.16923601  0.50145369  0.24383312  1
  Mg  Mg53  1  0.33054781  0.08643326  0.75115575  1
  Mg  Mg54  1  0.33573452  0.41310398  0.24401378  1
  Mg  Mg55  1  0.66864408  0.58446940  0.75028455  1
  Mg  Mg56  1  0.32955485  0.58128861  0.74669827  1
  Mg  Mg57  1  0.66819690  0.41811788  0.75233634  1
  Mg  Mg58  1  0.32798407  0.41894585  0.74570182  1
  Mg  Mg59  1  0.33413000  0.08270592  0.25130543  1
  Mg  Mg60  1  0.00243229  0.58310452  0.74496825  1
  Mg  Mg61  1  0.16455731  0.16385217  0.25112399  1
  Mg  Mg62  1  0.00039475  0.58520361  0.24444402  1
  Mg  Mg63  1  0.49870631  0.66586053  0.74859940  1
  Mg  Mg64  1  0.49901934  0.33512675  0.74922688  1
  Mg  Mg65  1  0.49908145  0.83674163  0.75037650  1
  Mg  Mg66  1  0.50346878  0.16726795  0.25313144  1
  Mg  Mg67  1  0.16716845  0.33328164  0.24734856  1
  Mg  Mg68  1  0.66248031  0.41469134  0.24856777  1
  Mg  Mg69  1  0.16342325  0.66632444  0.24371129  1
  Mg  Mg70  1  0.83648256  0.33496066  0.75152813  1
  Mg  Mg71  1  0.33216686  0.58398289  0.24494787  1
  Mg  Mg72  1  0.66699118  0.08592496  0.75426069  1
  Mg  Mg73  1  0.16523870  0.33346218  0.74779903  1
  Mg  Mg74  1  0.00381525  0.08472967  0.75447586  1
  Mg  Mg75  1  -0.00544985  0.08289046  0.25342109  1
  Mg  Mg76  1  0.33234326  0.91585081  0.75043636  1
  Mg  Mg77  1  0.50047285  0.16737893  0.75132842  1
  Mg  Mg78  1  0.50085641  0.66563879  0.24993465  1
  Mg  Mg79  1  0.00258637  0.41614565  0.74818390  1
  Mg  Mg80  1  0.83537956  0.16601896  0.75537556  1
  Mg  Mg81  1  0.16872974  0.83545718  0.75124097  1
  Mg  Mg82  1  0.83550680  0.83302289  0.25370078  1
  Mg  Mg83  1  0.16282644  0.83101333  0.24681457  1
  Mg  Mg84  1  0.83557263  0.66446743  0.74888420  1
  Mg  Mg85  1  0.00346368  0.91661848  0.75515558  1
  Mg  Mg86  1  0.16676296  0.66455875  0.74507446  1
  Mg  Mg87  1  0.83104091  0.16336060  0.25269063  1
  Mg  Mg88  1  0.83368794  0.83420562  0.75339834  1
  Mg  Mg89  1  0.66784329  0.58317609  0.25038273  1
  Mg  Mg90  1  -0.00392257  0.91186383  0.24984587  1
  Mg  Mg91  1  0.83244001  0.33291811  0.25105553  1
  Mg  Mg92  1  0.66993007  0.91682400  0.25646680  1
  Mg  Mg93  1  0.00095190  0.41587702  0.24935851  1
  Mg  Mg94  1  0.50266019  0.83494952  0.25434753  1
  Mg  Mg95  1  0.66564190  0.91699703  0.75209059  1
  Fe  Fe96  1  0.80665772  0.08972101  0.39685464  1
  Fe  Fe97  1  0.85383695  0.08396797  0.11033847  1
  Fe  Fe98  1  0.64329978  0.16926786  0.89267348  1
  Fe  Fe99  1  0.01938738  0.66622512  0.10264837  1
  Fe  Fe100  1  0.97530788  0.33487751  0.88997360  1
  Fe  Fe101  1  0.86267494  0.58358675  0.60718484  1
  Fe  Fe102  1  0.19741493  0.58242971  0.10360533  1
  Fe  Fe103  1  0.98001040  0.17278028  0.39474156  1
  Fe  Fe104  1  0.80866964  0.90929331  0.89266931  1
  Fe  Fe105  1  0.81025987  0.58880944  0.89032326  1
  Fe  Fe106  1  0.52116129  0.42062977  0.10780421  1
  Fe  Fe107  1  0.19061828  0.58171286  0.60669049  1
  Fe  Fe108  1  0.52549456  0.91954319  0.61046577  1
  Fe  Fe109  1  0.14039482  0.91766931  0.89378443  1
  Fe  Fe110  1  0.30733151  0.82964721  0.89115191  1
  Fe  Fe111  1  0.81541305  0.91339727  0.39645529  1
  Fe  Fe112  1  0.63808476  0.82888659  0.39594347  1
  Si  Si113  1  0.02368335  0.33124606  0.11522021  1
  Si  Si114  1  0.18635177  0.41113939  0.60894429  1
  Si  Si115  1  0.69212885  0.16751491  0.61705765  1
  Si  Si116  1  0.68748371  0.17224201  0.11548477  1
  Si  Si117  1  0.69607710  0.83434256  0.61507675  1
  Si  Si118  1  0.46928587  0.92303115  0.88752267  1
  Si  Si119  1  0.02455625  0.32485095  0.61227294  1
  Si  Si120  1  0.02136274  0.83821319  0.11120168  1
  Si  Si121  1  0.64099393  0.33953910  0.88706566  1
  Si  Si122  1  0.30615149  0.33050373  0.38365732  1
  Si  Si123  1  0.85597838  0.08191846  0.61878802  1
  Si  Si124  1  0.14459831  0.08492192  0.88824990  1
  Si  Si125  1  0.98359646  0.66912731  0.88401376  1
  Si  Si126  1  0.47193768  0.57757726  0.38383868  1
  Si  Si127  1  0.69121298  0.33306965  0.61509139  1
  Si  Si128  1  0.31256207  0.66882293  0.38332154  1
  Si  Si129  1  0.97948164  0.16541063  0.88945565  1
  Si  Si130  1  0.18809123  0.91841136  0.11562761  1
  Si  Si131  1  0.35653727  0.83102578  0.61019656  1
  Si  Si132  1  0.02537628  0.84111413  0.61445155  1
  Si  Si133  1  0.14315349  0.91103373  0.38556038  1
  Si  Si134  1  0.85304108  0.91575163  0.11447505  1
  Si  Si135  1  0.52860811  0.08138868  0.11903475  1
  Si  Si136  1  0.30351730  0.16536671  0.38514211  1
  Si  Si137  1  0.30679172  0.83141975  0.38290856  1
  Si  Si138  1  0.47014487  0.41449301  0.38291634  1
  Si  Si139  1  0.30765008  0.33493771  0.88369135  1
  Si  Si140  1  0.35630969  0.32435970  0.11022673  1
  Si  Si141  1  0.14795219  0.58428393  0.38316161  1
  Si  Si142  1  0.69114289  0.33502877  0.11363533  1
  Si  Si143  1  0.47085151  0.41461336  0.88210367  1
  Si  Si144  1  0.64088500  0.33699553  0.38638011  1
  Si  Si145  1  0.52698997  0.41642648  0.61367459  1
  Si  Si146  1  0.98242680  0.34148063  0.38798012  1
  Si  Si147  1  0.19369072  0.91877032  0.61294371  1
  Si  Si148  1  0.98194305  0.66038157  0.38348363  1
  Si  Si149  1  0.35675065  0.17114916  0.61408113  1
  Si  Si150  1  0.85693250  0.41085536  0.11484315  1
  Si  Si151  1  0.14211301  0.07740934  0.38909402  1
  Si  Si152  1  0.35719339  0.33625758  0.61179582  1
  Si  Si153  1  0.02770414  0.67614602  0.60639715  1
  Si  Si154  1  0.19311268  0.08333847  0.11573301  1
  Si  Si155  1  0.46876330  0.08838844  0.88749149  1
  Si  Si156  1  0.85427257  0.57444613  0.11053841  1
  Si  Si157  1  0.63396177  0.17218390  0.39197451  1
  Si  Si158  1  0.47036120  0.08659152  0.38781983  1
  Si  Si159  1  0.30390668  0.17025728  0.88376825  1
  Si  Si160  1  0.85925449  0.41157791  0.61071116  1
  Si  Si161  1  0.80641568  0.41784911  0.88776707  1
  Si  Si162  1  0.69214312  0.82846273  0.11690793  1
  Si  Si163  1  0.52849922  0.91595097  0.11689237  1
  Si  Si164  1  0.14348029  0.41962523  0.88358074  1
  Si  Si165  1  0.81187264  0.58023866  0.38447476  1
  Si  Si166  1  0.36111955  0.15953179  0.11573598  1
  Si  Si167  1  0.19158167  0.40892167  0.10912860  1
  Si  Si168  1  0.97470211  0.82921820  0.88732040  1
  Si  Si169  1  0.98044418  0.82611897  0.38882593  1
  Si  Si170  1  0.02817525  0.16516039  0.11350537  1
  Si  Si171  1  0.36149810  0.66431177  0.60993693  1
  Si  Si172  1  0.53027984  0.58574855  0.61366256  1
  Si  Si173  1  0.31070919  0.66287395  0.88503347  1
  Si  Si174  1  0.63229369  0.66734060  0.88790487  1
  Si  Si175  1  0.69145224  0.66916831  0.61109376  1
  Si  Si176  1  0.80968387  0.41560228  0.38628047  1
  Si  Si177  1  0.46808349  0.58056533  0.88173412  1
  Si  Si178  1  0.19364989  0.08295953  0.61548165  1
  Si  Si179  1  0.69042507  0.66395964  0.11662852  1
  Si  Si180  1  0.14647787  0.42192339  0.38274342  1
  Si  Si181  1  0.35979104  0.83756074  0.11660146  1
  Si  Si182  1  0.63237398  0.83440595  0.88932460  1
  Si  Si183  1  0.47251753  0.91994810  0.38936579  1
  Si  Si184  1  0.52365962  0.58930412  0.11252745  1
  Si  Si185  1  0.64118801  0.65680955  0.38904165  1
  Si  Si186  1  0.52179435  0.08842357  0.61270851  1
  Si  Si187  1  0.02349964  0.16006510  0.61709725  1
  Si  Si188  1  0.36529837  0.67382538  0.11143030  1
  Si  Si189  1  0.86056713  0.91756058  0.61895707  1
  Si  Si190  1  0.14342849  0.58436127  0.87952436  1
  Si  Si191  1  0.81457757  0.08103120  0.89121920  1
  O  O192  1  0.27651617  0.11166727  0.08698055  1
  O  O193  1  0.26857387  0.12709683  0.58477549  1
  O  O194  1  0.29485272  0.61958996  0.07405897  1
  O  O195  1  0.28686012  0.61350572  0.57270036  1
  O  O196  1  0.60278039  0.12214436  0.08784624  1
  O  O197  1  0.60335885  0.12683346  0.58664623  1
  O  O198  1  0.60852109  0.61530708  0.08354487  1
  O  O199  1  0.60710936  0.61978047  0.58034980  1
  O  O200  1  0.95203968  0.11532221  0.07794763  1
  O  O201  1  0.93730217  0.11325531  0.58849534  1
  O  O202  1  0.92499634  0.60478402  0.07124146  1
  O  O203  1  0.94823726  0.62797889  0.57051636  1
  O  O204  1  0.10364832  0.36269909  0.08501457  1
  O  O205  1  0.10456259  0.35694484  0.58101422  1
  O  O206  1  0.10341870  0.87437551  0.08165746  1
  O  O207  1  0.10370717  0.87856185  0.58403293  1
  O  O208  1  0.42878798  0.35927145  0.07476096  1
  O  O209  1  0.43714638  0.37437983  0.58263397  1
  O  O210  1  0.43787319  0.87608863  0.08591737  1
  O  O211  1  0.42844543  0.86569717  0.57370950  1
  O  O212  1  0.78154649  0.35336218  0.08788991  1
  O  O213  1  0.77037525  0.36580442  0.58392829  1
  O  O214  1  0.77333099  0.85965210  0.08749710  1
  O  O215  1  0.78533176  0.86020603  0.59182151  1
  O  O216  1  0.26414369  0.36160463  0.08052598  1
  O  O217  1  0.26987206  0.37765859  0.57939090  1
  O  O218  1  0.27381828  0.88601006  0.09127517  1
  O  O219  1  0.26671139  0.87485093  0.58227721  1
  O  O220  1  0.62163262  0.39206847  0.07801929  1
  O  O221  1  0.60415405  0.37746104  0.58191889  1
  O  O222  1  0.60445094  0.87421611  0.08667022  1
  O  O223  1  0.62306781  0.88829450  0.58046011  1
  O  O224  1  0.94108202  0.38131463  0.08697076  1
  O  O225  1  0.93549139  0.36660168  0.58274197  1
  O  O226  1  0.93830052  0.89034036  0.08556913  1
  O  O227  1  0.94376541  0.89329562  0.58796015  1
  O  O228  1  0.11538118  0.13813954  0.08674371  1
  O  O229  1  0.10283187  0.12296275  0.58726933  1
  O  O230  1  0.10637315  0.63328573  0.06141638  1
  O  O231  1  0.10978760  0.65282923  0.57511046  1
  O  O232  1  0.43876696  0.12160009  0.08611969  1
  O  O233  1  0.43810415  0.13986987  0.58474466  1
  O  O234  1  0.45651688  0.65539079  0.08889306  1
  O  O235  1  0.44704666  0.63399984  0.58283861  1
  O  O236  1  0.76292765  0.14608053  0.07819158  1
  O  O237  1  0.77197223  0.13071052  0.58879141  1
  O  O238  1  0.76911631  0.62553968  0.08864619  1
  O  O239  1  0.76496031  0.63775147  0.57472423  1
  O  O240  1  0.07078128  0.10808461  0.42758012  1
  O  O241  1  0.05794443  0.10934863  0.91584487  1
  O  O242  1  0.06737906  0.61228964  0.41592553  1
  O  O243  1  0.06146456  0.61217260  0.91057869  1
  O  O244  1  0.39050722  0.12326981  0.41679621  1
  O  O245  1  0.38083841  0.11404639  0.91389740  1
  O  O246  1  0.39954719  0.62387528  0.41400527  1
  O  O247  1  0.38385692  0.60148486  0.91276423  1
  O  O248  1  0.71212504  0.12754906  0.43130301  1
  O  O249  1  0.73399661  0.10743094  0.92329045  1
  O  O250  1  0.73317152  0.61598997  0.41531662  1
  O  O251  1  0.71473297  0.62399165  0.92389815  1
  O  O252  1  0.22866852  0.37063254  0.41284518  1
  O  O253  1  0.22834067  0.36945457  0.91354269  1
  O  O254  1  0.22766168  0.86325845  0.41543106  1
  O  O255  1  0.21794963  0.85067546  0.93300409  1
  O  O256  1  0.56376073  0.38105882  0.41376856  1
  O  O257  1  0.55423067  0.36678089  0.91327047  1
  O  O258  1  0.54849728  0.87405468  0.43069933  1
  O  O259  1  0.54909898  0.86928362  0.91484192  1
  O  O260  1  0.89796527  0.37275679  0.41570149  1
  O  O261  1  0.87316178  0.35591071  0.91922381  1
  O  O262  1  0.91079286  0.85516901  0.43003774  1
  O  O263  1  0.88676554  0.83453119  0.91607594  1
  O  O264  1  0.06064601  0.40023496  0.41117470  1
  O  O265  1  0.06848028  0.39509427  0.92243728  1
  O  O266  1  0.06852266  0.87283944  0.41794851  1
  O  O267  1  0.03653324  0.89394215  0.91892606  1
  O  O268  1  0.39772055  0.36803358  0.41406729  1
  O  O269  1  0.39133609  0.38307664  0.91476856  1
  O  O270  1  0.38424898  0.88705020  0.41019249  1
  O  O271  1  0.39180790  0.89883313  0.92264928  1
  O  O272  1  0.73129733  0.37840528  0.41751900  1
  O  O273  1  0.71349742  0.40093281  0.91035132  1
  O  O274  1  0.73375824  0.87317602  0.43918227  1
  O  O275  1  0.71158366  0.88079551  0.92619479  1
  O  O276  1  0.22909372  0.12501496  0.41621483  1
  O  O277  1  0.21868647  0.14705621  0.91250494  1
  O  O278  1  0.23200172  0.63361415  0.41232300  1
  O  O279  1  0.22385518  0.63602584  0.91067395  1
  O  O280  1  0.54938676  0.13868629  0.41884052  1
  O  O281  1  0.54246913  0.14194524  0.92220068  1
  O  O282  1  0.56760013  0.60528578  0.41420339  1
  O  O283  1  0.54877499  0.63152158  0.91376503  1
  O  O284  1  0.89023468  0.15381889  0.43559686  1
  O  O285  1  0.89405151  0.13764204  0.91576867  1
  O  O286  1  0.90045130  0.62390118  0.41263094  1
  O  O287  1  0.90415424  0.64885050  0.91902610  1
  O  O288  1  0.17500577  0.00169374  0.08610047  1
  O  O289  1  0.18971713  0.00149132  0.58223524  1
  O  O290  1  0.18360694  0.48551631  0.07275569  1
  O  O291  1  0.16421544  0.48742237  0.57218843  1
  O  O292  1  0.52228844  -0.00117458  0.08766776  1
  O  O293  1  0.50160111  0.01276441  0.57550649  1
  O  O294  1  0.49043621  0.51503727  0.07601904  1
  O  O295  1  0.51614748  0.50068500  0.58706989  1
  O  O296  1  0.82353516  -0.00868010  0.07829178  1
  O  O297  1  0.83535047  -0.00049040  0.59126616  1
  O  O298  1  0.82911259  0.49044772  0.08395707  1
  O  O299  1  0.84834323  0.48804524  0.57289054  1
  O  O300  1  0.00882653  0.24900285  0.08690270  1
  O  O301  1  0.01176979  0.24135611  0.58459539  1
  O  O302  1  0.00023871  0.76244295  0.07375075  1
  O  O303  1  0.00661151  0.76145381  0.58220560  1
  O  O304  1  0.34504294  0.23980737  0.08347412  1
  O  O305  1  0.34568044  0.25316179  0.58275027  1
  O  O306  1  0.34313713  0.75699654  0.08390301  1
  O  O307  1  0.34232623  0.74762828  0.58252683  1
  O  O308  1  0.66045109  0.25421795  0.08675058  1
  O  O309  1  0.67923447  0.24994485  0.58667628  1
  O  O310  1  0.67666215  0.74627299  0.08571550  1
  O  O311  1  0.67214968  0.75283986  0.58555538  1
  O  O312  1  0.16273950  -0.00670484  0.41462885  1
  O  O313  1  0.17781906  0.01102713  0.92523869  1
  O  O314  1  0.17297363  0.50249987  0.41206400  1
  O  O315  1  0.16945364  0.50302505  0.90761656  1
  O  O316  1  0.47907010  0.00458324  0.41763386  1
  O  O317  1  0.49405688  0.00602112  0.91391045  1
  O  O318  1  0.46576851  0.49592224  0.41425811  1
  O  O319  1  0.49171143  0.49763421  0.90768976  1
  O  O320  1  0.83592487  0.00211218  0.43750324  1
  O  O321  1  0.84650523  0.00241126  0.91962598  1
  O  O322  1  0.82239828  0.49786962  0.41659596  1
  O  O323  1  0.83787338  0.49494730  0.92028073  1
  O  O324  1  0.31085698  0.24847537  0.41444067  1
  O  O325  1  0.32664427  0.25247041  0.91330895  1
  O  O326  1  0.32803197  0.75022584  0.41532785  1
  O  O327  1  0.34571045  0.73681880  0.92097988  1
  O  O328  1  0.64161349  0.25716670  0.42118182  1
  O  O329  1  0.66989528  0.26398634  0.92291139  1
  O  O330  1  0.64094383  0.73180374  0.42747559  1
  O  O331  1  0.63657179  0.75057359  0.91662153  1
  O  O332  1  1.01501858  0.26766172  0.42425664  1
  O  O333  1  1.00728008  0.24214390  0.92325354  1
  O  O334  1  1.00100128  0.74151012  0.41440312  1
  O  O335  1  1.01919660  0.74985512  0.90841124  1
  O  O336  1  0.20964546  0.08332031  0.19628844  1
  O  O337  1  0.21270389  0.08060475  0.69482008  1
  O  O338  1  0.21368818  0.58303618  0.19651913  1
  O  O339  1  0.21188058  0.58518430  0.69669658  1
  O  O340  1  0.54156644  0.08357276  0.19847858  1
  O  O341  1  0.53949746  0.08543234  0.69359334  1
  O  O342  1  0.54211438  0.58359039  0.19389509  1
  O  O343  1  0.54990322  0.59083349  0.69291003  1
  O  O344  1  0.87670874  0.08292097  0.20145371  1
  O  O345  1  0.87543604  0.08368800  0.69916128  1
  O  O346  1  0.88054616  0.57170853  0.19014049  1
  O  O347  1  0.88037608  0.58332940  0.69827051  1
  O  O348  1  0.04337804  0.33208491  0.19611016  1
  O  O349  1  0.04327549  0.32994805  0.69212544  1
  O  O350  1  0.04417104  0.83767436  0.19145222  1
  O  O351  1  0.04418628  0.83662463  0.69461551  1
  O  O352  1  0.37136631  0.32886457  0.19063868  1
  O  O353  1  0.37557271  0.33453719  0.69179061  1
  O  O354  1  0.38386263  0.82984523  0.19561777  1
  O  O355  1  0.37682739  0.83451152  0.69100391  1
  O  O356  1  0.70955851  0.33532131  0.19487210  1
  O  O357  1  0.70932769  0.33386301  0.69538210  1
  O  O358  1  0.70799438  0.83037480  0.19660424  1
  O  O359  1  0.70880894  0.83304187  0.69592580  1
  O  O360  1  0.21084922  0.41268990  0.19060294  1
  O  O361  1  0.20817937  0.41052369  0.68890795  1
  O  O362  1  0.19985981  0.91860132  0.19499322  1
  O  O363  1  0.21144857  0.92000952  0.69286313  1
  O  O364  1  0.54426059  0.41813623  0.19839981  1
  O  O365  1  0.54822272  0.40941337  0.69257732  1
  O  O366  1  0.54373948  0.91641319  0.19677666  1
  O  O367  1  0.54362207  0.91908663  0.70250306  1
  O  O368  1  0.87713722  0.41325958  0.19572344  1
  O  O369  1  0.87539524  0.41534227  0.69121254  1
  O  O370  1  0.87449405  0.91805276  0.19511965  1
  O  O371  1  0.88011086  0.91777724  0.69918721  1
  O  O372  1  0.04560734  0.16562914  0.19458556  1
  O  O373  1  0.03933564  0.16430087  0.69653912  1
  O  O374  1  0.04636375  0.66128714  0.19336164  1
  O  O375  1  0.04194342  0.67094969  0.68781338  1
  O  O376  1  0.37679399  0.16434281  0.19600527  1
  O  O377  1  0.37489417  0.16902989  0.69420438  1
  O  O378  1  0.37816919  0.66851919  0.19275419  1
  O  O379  1  0.37719824  0.66602617  0.69080517  1
  O  O380  1  0.71010589  0.17265818  0.19543147  1
  O  O381  1  0.71112328  0.16767622  0.69727088  1
  O  O382  1  0.69976973  0.66613430  0.19589732  1
  O  O383  1  0.70860299  0.66805601  0.69198548  1
  O  O384  1  0.12221058  0.08258534  0.30818776  1
  O  O385  1  0.12438736  0.08122290  0.80786219  1
  O  O386  1  0.12820505  0.58105186  0.30338701  1
  O  O387  1  0.12086989  0.58744384  0.79994559  1
  O  O388  1  0.45509080  0.08556520  0.30773418  1
  O  O389  1  0.45371863  0.08735911  0.80600443  1
  O  O390  1  0.45475418  0.58056487  0.30332714  1
  O  O391  1  0.44988098  0.58977151  0.80259741  1
  O  O392  1  0.78976991  0.08494675  0.30585735  1
  O  O393  1  0.79181119  0.08415447  0.80913284  1
  O  O394  1  0.78855675  0.57572422  0.30538639  1
  O  O395  1  0.78816177  0.58517848  0.79860658  1
  O  O396  1  0.28935501  0.33186050  0.30337556  1
  O  O397  1  0.28932151  0.33395023  0.80329166  1
  O  O398  1  0.28491783  0.82586342  0.30398532  1
  O  O399  1  0.28981956  0.83318399  0.79811023  1
  O  O400  1  0.62884709  0.33416848  0.30724318  1
  O  O401  1  0.62197687  0.33475977  0.80560480  1
  O  O402  1  0.62189942  0.83201941  0.30389113  1
  O  O403  1  0.62139142  0.83344147  0.80822776  1
  O  O404  1  0.95998364  0.33641411  0.30699932  1
  O  O405  1  0.95648950  0.33379798  0.79796090  1
  O  O406  1  0.95786634  0.83423068  0.30934879  1
  O  O407  1  0.95757664  0.83253957  0.80517311  1
  O  O408  1  0.12821540  0.41715696  0.30229686  1
  O  O409  1  0.12248948  0.41289410  0.80365340  1
  O  O410  1  0.12351419  0.91343129  0.30552049  1
  O  O411  1  0.12490876  0.91732589  0.80064704  1
  O  O412  1  0.45148696  0.41679525  0.30361806  1
  O  O413  1  0.44900449  0.40882101  0.80286070  1
  O  O414  1  0.46686990  0.91896653  0.31007545  1
  O  O415  1  0.45267926  0.91999913  0.80629556  1
  O  O416  1  0.79066855  0.41543017  0.30592790  1
  O  O417  1  0.79156384  0.41699129  0.80547719  1
  O  O418  1  0.79093264  0.91573496  0.30396358  1
  O  O419  1  0.78606489  0.91557616  0.80045493  1
  O  O420  1  0.28765384  0.16699574  0.30489594  1
  O  O421  1  0.29210368  0.16956696  0.80401665  1
  O  O422  1  0.29497904  0.66656543  0.30332229  1
  O  O423  1  0.29171190  0.66728124  0.80402896  1
  O  O424  1  0.61944610  0.17327614  0.31215511  1
  O  O425  1  0.62063427  0.16858770  0.80025613  1
  O  O426  1  0.62252570  0.66185418  0.30827640  1
  O  O427  1  0.62063436  0.66758419  0.80670779  1
  O  O428  1  0.95787708  0.16895020  0.30255548  1
  O  O429  1  0.95915458  0.16672962  0.80798235  1
  O  O430  1  0.96727315  0.65898126  0.30510758  1
  O  O431  1  0.96090291  0.66757167  0.80282711  1
  F  F432  1  0.04458003  0.00093707  0.20568368  1
  F  F433  1  0.04440911  0.00244212  0.70227392  1
  F  F434  1  0.04734325  0.49572539  0.20020024  1
  F  F435  1  0.03953329  0.49792678  0.69659281  1
  F  F436  1  0.38499404  0.00907574  0.20102776  1
  F  F437  1  0.37759737  0.00282338  0.70237987  1
  F  F438  1  0.37830237  0.49903424  0.19866143  1
  F  F439  1  0.36609940  0.49850379  0.69224569  1
  F  F440  1  0.70882359  -0.00445204  0.20181435  1
  F  F441  1  0.71068712  0.00443761  0.70406907  1
  F  F442  1  0.71174236  0.49863942  0.20276323  1
  F  F443  1  0.71167747  0.49767654  0.69842246  1
  F  F444  1  0.21176677  0.24751814  0.20201530  1
  F  F445  1  0.21321797  0.25326092  0.69717976  1
  F  F446  1  0.21401872  0.75045917  0.19673250  1
  F  F447  1  0.21124433  0.75124025  0.69794407  1
  F  F448  1  0.54524120  0.24633845  0.20248335  1
  F  F449  1  0.54353883  0.25171238  0.69978189  1
  F  F450  1  0.54550295  0.74865882  0.20515358  1
  F  F451  1  0.54530397  0.75206175  0.70252059  1
  F  F452  1  0.87913574  0.25281768  0.20320600  1
  F  F453  1  0.87703144  0.24678595  0.70232467  1
  F  F454  1  0.87903538  0.76267623  0.19682086  1
  F  F455  1  0.87824533  0.75167319  0.70217694  1
  F  F456  1  0.28226310  0.01068954  0.30385485  1
  F  F457  1  0.28931971  0.00142127  0.79812655  1
  F  F458  1  0.29037577  0.49589989  0.29471615  1
  F  F459  1  0.29374832  0.49787702  0.79817709  1
  F  F460  1  0.62055044  -0.00229294  0.30370731  1
  F  F461  1  0.62020041  0.00393664  0.80054923  1
  F  F462  1  0.62088234  0.50062292  0.29948148  1
  F  F463  1  0.63146735  0.50130259  0.79939642  1
  F  F464  1  0.95710798  -0.00355590  0.30127039  1
  F  F465  1  0.95612350  0.00152152  0.79973935  1
  F  F466  1  0.95712582  0.49796677  0.29694860  1
  F  F467  1  0.95721016  0.49829346  0.79662914  1
  F  F468  1  0.12342652  0.25064549  0.29782187  1
  F  F469  1  0.12224557  0.25257691  0.79746977  1
  F  F470  1  0.12988879  0.74781656  0.29656381  1
  F  F471  1  0.12240178  0.74928675  0.79300723  1
  F  F472  1  0.44965870  0.24571941  0.30108539  1
  F  F473  1  0.45193794  0.25129206  0.79509323  1
  F  F474  1  0.45429979  0.74749884  0.29996566  1
  F  F475  1  0.45354444  0.75148744  0.79441714  1
  F  F476  1  0.78752330  0.25261977  0.29932392  1
  F  F477  1  0.78767047  0.25134830  0.79805798  1
  F  F478  1  0.78523608  0.75549596  0.30497255  1
  F  F479  1  0.78652579  0.74815364  0.79633395  1
