# generated using pymatgen
data_K24Na3Li5Mg64Fe17Si79(O5F)48
_symmetry_space_group_name_H-M   'P 1'
_cell_length_a   16.09784998
_cell_length_b   18.59418940
_cell_length_c   20.55262157
_cell_angle_alpha   90.01567866
_cell_angle_beta   100.02474797
_cell_angle_gamma   89.98196657
_symmetry_Int_Tables_number   1
_chemical_formula_structural   K24Na3Li5Mg64Fe17Si79(O5F)48
_chemical_formula_sum   'K24 Na3 Li5 Mg64 Fe17 Si79 O240 F48'
_cell_volume   6058.01940940
_cell_formula_units_Z   1
loop_
 _symmetry_equiv_pos_site_id
 _symmetry_equiv_pos_as_xyz
  1  'x, y, z'
loop_
 _atom_site_type_symbol
 _atom_site_label
 _atom_site_symmetry_multiplicity
 _atom_site_fract_x
 _atom_site_fract_y
 _atom_site_fract_z
 _atom_site_occupancy
  K  K0  1  0.00458276  -0.00175262  0.00628117  1
  K  K1  1  -0.00612619  -0.00308976  0.49116178  1
  K  K2  1  0.00464632  0.49610752  0.01409391  1
  K  K3  1  -0.00170368  0.49842672  0.49467138  1
  K  K4  1  0.33084781  -0.00445236  0.00176691  1
  K  K5  1  0.32627185  -0.00233221  0.50014690  1
  K  K6  1  0.32576732  0.49616001  0.00616936  1
  K  K7  1  0.33530045  0.51304475  0.49138134  1
  K  K8  1  0.66972447  0.00806754  0.00911514  1
  K  K9  1  0.67302910  0.00010178  0.49182387  1
  K  K10  1  0.67943386  0.50634849  0.00809277  1
  K  K11  1  0.66963890  0.50538237  0.49357045  1
  K  K12  1  0.16935202  0.25106004  0.01209335  1
  K  K13  1  0.16472156  0.25151106  0.49583435  1
  K  K14  1  0.16325754  0.76407225  0.00693636  1
  K  K15  1  0.16962616  0.75061602  0.49443928  1
  K  K16  1  0.50345647  0.23837095  0.00780125  1
  K  K17  1  0.50667684  0.25160020  0.49458714  1
  K  K18  1  0.50011904  0.74784964  0.00663708  1
  K  K19  1  0.49344373  0.74419320  0.49561276  1
  K  K20  1  0.82986150  0.25018633  0.00745325  1
  K  K21  1  0.83320392  0.24047652  0.49532926  1
  K  K22  1  0.83599173  0.74564702  0.01031912  1
  K  K23  1  0.82803043  0.74520580  0.49037243  1
  Na  Na24  1  -0.00128662  0.24901425  0.74591034  1
  Na  Na25  1  0.00067136  0.91955969  0.25133960  1
  Na  Na26  1  0.16797080  0.17074105  0.25509482  1
  Li  Li27  1  0.16343862  0.49961828  0.24839397  1
  Li  Li28  1  0.67027702  0.74891107  0.24539073  1
  Li  Li29  1  0.49840878  0.66681225  0.74553366  1
  Li  Li30  1  0.33166652  0.08278348  0.75182227  1
  Li  Li31  1  0.83152944  0.66434227  0.74386859  1
  Mg  Mg32  1  0.49871955  0.50272405  0.24778360  1
  Mg  Mg33  1  0.66601691  0.24905637  0.25343381  1
  Mg  Mg34  1  -0.00015934  0.74907833  0.24742427  1
  Mg  Mg35  1  0.50123996  -0.00059008  0.25016738  1
  Mg  Mg36  1  0.33255738  0.25178458  0.25119402  1
  Mg  Mg37  1  -0.00010610  0.25153615  0.25411119  1
  Mg  Mg38  1  0.83379749  -0.00241273  0.75234884  1
  Mg  Mg39  1  0.83160546  0.00020609  0.25330017  1
  Mg  Mg40  1  0.49582625  0.00136938  0.75310740  1
  Mg  Mg41  1  0.66683358  0.24781650  0.75568483  1
  Mg  Mg42  1  0.66403064  0.74778694  0.74836870  1
  Mg  Mg43  1  0.33667930  0.74815484  0.74949348  1
  Mg  Mg44  1  0.33396858  0.24817591  0.75085990  1
  Mg  Mg45  1  0.16805484  0.00165578  0.75257710  1
  Mg  Mg46  1  0.33369159  0.75133911  0.24576143  1
  Mg  Mg47  1  0.50126371  0.50340535  0.74697499  1
  Mg  Mg48  1  0.16656693  0.49974382  0.74761625  1
  Mg  Mg49  1  0.83352074  0.50149633  0.24834418  1
  Mg  Mg50  1  -0.00188072  0.74783071  0.74874761  1
  Mg  Mg51  1  0.16716288  0.00265687  0.25160124  1
  Mg  Mg52  1  0.83328891  0.50408714  0.74750016  1
  Mg  Mg53  1  0.00089581  0.08433233  0.25352425  1
  Mg  Mg54  1  0.33673488  0.58541957  0.74695962  1
  Mg  Mg55  1  0.50160611  0.33439046  0.75258407  1
  Mg  Mg56  1  0.49965624  0.33546440  0.25129045  1
  Mg  Mg57  1  -0.00354290  0.58528182  0.74660770  1
  Mg  Mg58  1  0.16707098  0.66521019  0.74710379  1
  Mg  Mg59  1  0.66785813  0.41660840  0.75162243  1
  Mg  Mg60  1  0.00429414  0.41681521  0.25192715  1
  Mg  Mg61  1  0.83248797  0.16509292  0.25437114  1
  Mg  Mg62  1  0.83478059  0.33449927  0.25331902  1
  Mg  Mg63  1  0.16479974  0.83547790  0.24727762  1
  Mg  Mg64  1  0.66644010  0.58680019  0.74613598  1
  Mg  Mg65  1  0.66644815  0.08348540  0.75670146  1
  Mg  Mg66  1  0.66849985  0.58706060  0.24776845  1
  Mg  Mg67  1  -0.00271050  0.41632390  0.74711249  1
  Mg  Mg68  1  0.50077677  0.83177645  0.24517363  1
  Mg  Mg69  1  0.83212661  0.82860969  0.75177266  1
  Mg  Mg70  1  0.50180163  0.66794826  0.24421487  1
  Mg  Mg71  1  0.83213811  0.66667985  0.24807750  1
  Mg  Mg72  1  0.66805403  0.41739938  0.25321927  1
  Mg  Mg73  1  0.49990639  0.16482865  0.75611150  1
  Mg  Mg74  1  0.16713515  0.83471330  0.75263917  1
  Mg  Mg75  1  0.66723328  0.08589421  0.25239746  1
  Mg  Mg76  1  0.49733623  0.83185103  0.74913925  1
  Mg  Mg77  1  0.16755851  0.33752652  0.25271534  1
  Mg  Mg78  1  0.32817358  0.58465562  0.24523011  1
  Mg  Mg79  1  0.83229508  0.83148080  0.24869412  1
  Mg  Mg80  1  0.33481640  0.08506946  0.25431685  1
  Mg  Mg81  1  0.50076331  0.16580426  0.25387161  1
  Mg  Mg82  1  0.66805851  0.91300911  0.24905448  1
  Mg  Mg83  1  0.33191513  0.91746876  0.75104637  1
  Mg  Mg84  1  0.83409183  0.16416545  0.75212908  1
  Mg  Mg85  1  0.00330833  0.58299979  0.24550787  1
  Mg  Mg86  1  0.33380127  0.41637236  0.74914371  1
  Mg  Mg87  1  0.66457253  0.91514838  0.75165294  1
  Mg  Mg88  1  0.00200027  0.91427909  0.75325456  1
  Mg  Mg89  1  0.32949890  0.41928138  0.25064097  1
  Mg  Mg90  1  0.83303090  0.33327351  0.74994708  1
  Mg  Mg91  1  0.16437404  0.33222139  0.74715266  1
  Mg  Mg92  1  0.16440176  0.66497411  0.24456485  1
  Mg  Mg93  1  0.16745850  0.16541417  0.74958446  1
  Mg  Mg94  1  0.00152634  0.08386398  0.75144427  1
  Mg  Mg95  1  0.33361335  0.91630459  0.24661227  1
  Fe  Fe96  1  0.31077452  0.16556143  0.39363348  1
  Fe  Fe97  1  0.36462387  0.66542847  0.60920633  1
  Fe  Fe98  1  0.69068285  0.66808288  0.10603555  1
  Fe  Fe99  1  0.14218714  0.92046457  0.89281822  1
  Fe  Fe100  1  0.02890365  0.67194773  0.10472627  1
  Fe  Fe101  1  0.97924380  0.33113539  0.39145922  1
  Fe  Fe102  1  0.98011525  0.82793489  0.38791719  1
  Fe  Fe103  1  0.85686624  0.58687153  0.60799555  1
  Fe  Fe104  1  0.02562189  0.16320823  0.60868113  1
  Fe  Fe105  1  0.35674353  0.83276105  0.10671578  1
  Fe  Fe106  1  0.14395215  0.58057794  0.38516792  1
  Fe  Fe107  1  0.18924874  0.41508252  0.11133201  1
  Fe  Fe108  1  0.80851782  0.07949709  0.39402588  1
  Fe  Fe109  1  0.80839404  0.58452123  0.38778015  1
  Fe  Fe110  1  0.69067343  0.16969265  0.11153109  1
  Fe  Fe111  1  0.63709903  0.17021278  0.39501721  1
  Fe  Fe112  1  0.64251776  0.16381086  0.89559652  1
  Si  Si113  1  0.02257575  0.83926142  0.11056461  1
  Si  Si114  1  0.68480969  0.83362544  0.61540536  1
  Si  Si115  1  0.30625392  0.67310734  0.38187224  1
  Si  Si116  1  0.52641995  0.08534260  0.61808269  1
  Si  Si117  1  0.19127153  0.91917785  0.61564254  1
  Si  Si118  1  0.19431764  0.58074236  0.61205475  1
  Si  Si119  1  0.52043517  0.08068042  0.11373595  1
  Si  Si120  1  0.18830843  0.92400815  0.11125213  1
  Si  Si121  1  0.85333355  0.41654619  0.61253577  1
  Si  Si122  1  0.30796078  0.66160796  0.88442451  1
  Si  Si123  1  0.52395365  0.41795356  0.11614879  1
  Si  Si124  1  0.14211970  0.09159292  0.89092043  1
  Si  Si125  1  0.80870153  0.42204166  0.88607259  1
  Si  Si126  1  0.97779480  0.66288788  0.38563302  1
  Si  Si127  1  0.30612519  0.17062830  0.88505441  1
  Si  Si128  1  0.35695731  0.83648524  0.61215328  1
  Si  Si129  1  0.30998599  0.82751430  0.88687730  1
  Si  Si130  1  0.35877774  0.66303794  0.10922406  1
  Si  Si131  1  0.46892453  0.58873705  0.38023846  1
  Si  Si132  1  0.97045242  0.33576829  0.88473538  1
  Si  Si133  1  0.69373120  0.32716597  0.61787305  1
  Si  Si134  1  0.69438963  0.16211577  0.61957931  1
  Si  Si135  1  0.85420200  0.91013892  0.61749241  1
  Si  Si136  1  0.97098152  0.16740378  0.88707982  1
  Si  Si137  1  0.19238941  0.08709948  0.11778750  1
  Si  Si138  1  0.86131761  0.08478352  0.11355520  1
  Si  Si139  1  0.85658368  0.07544153  0.61553528  1
  Si  Si140  1  0.47570258  0.41900302  0.88586645  1
  Si  Si141  1  0.02510409  0.83471757  0.61546884  1
  Si  Si142  1  0.97699499  0.66398196  0.88353405  1
  Si  Si143  1  0.80665190  0.90772963  0.38969512  1
  Si  Si144  1  0.47263757  0.91387438  0.88610236  1
  Si  Si145  1  0.36411805  0.16834382  0.61845309  1
  Si  Si146  1  0.80669859  0.58631536  0.88284926  1
  Si  Si147  1  0.85676422  0.41437560  0.11500532  1
  Si  Si148  1  0.63480362  0.66501125  0.38360638  1
  Si  Si149  1  0.02178890  0.33753674  0.61191134  1
  Si  Si150  1  0.64418452  0.33749490  0.88969608  1
  Si  Si151  1  0.52777516  0.91689431  0.11155864  1
  Si  Si152  1  0.68751854  0.33914289  0.11512578  1
  Si  Si153  1  0.47061323  0.42425929  0.38414377  1
  Si  Si154  1  0.18987672  0.41515997  0.61378828  1
  Si  Si155  1  0.80854002  0.41490364  0.38891658  1
  Si  Si156  1  0.03132178  0.66814283  0.61086100  1
  Si  Si157  1  0.14032508  0.41379213  0.88372399  1
  Si  Si158  1  0.81371848  0.07598143  0.89084006  1
  Si  Si159  1  0.35868804  0.16581321  0.11583163  1
  Si  Si160  1  0.63802641  0.34207045  0.38893369  1
  Si  Si161  1  0.14867602  0.41533898  0.39051046  1
  Si  Si162  1  0.47835936  0.91512865  0.38356138  1
  Si  Si163  1  0.15018892  0.91828809  0.38778672  1
  Si  Si164  1  0.52345397  0.58057736  0.11014859  1
  Si  Si165  1  0.97963990  0.16239181  0.39021455  1
  Si  Si166  1  0.31206096  0.83681715  0.38298834  1
  Si  Si167  1  0.19853970  0.08470429  0.61518578  1
  Si  Si168  1  0.52825964  0.41224906  0.61467480  1
  Si  Si169  1  0.85518324  0.92118412  0.11519047  1
  Si  Si170  1  0.14097980  0.58022314  0.88401614  1
  Si  Si171  1  0.19553372  0.58581764  0.10681874  1
  Si  Si172  1  0.63722502  0.82997361  0.38168086  1
  Si  Si173  1  0.52325036  0.92144505  0.61627781  1
  Si  Si174  1  0.64045614  0.66749846  0.88253786  1
  Si  Si175  1  0.63908744  0.83379277  0.88529586  1
  Si  Si176  1  0.02018998  0.32871495  0.11225715  1
  Si  Si177  1  0.02312153  0.16526536  0.11844572  1
  Si  Si178  1  0.69306442  0.83950480  0.11022244  1
  Si  Si179  1  0.47596537  0.58253016  0.88363238  1
  Si  Si180  1  0.80795783  0.91040920  0.88601844  1
  Si  Si181  1  0.30988764  0.33499324  0.88467644  1
  Si  Si182  1  0.36311886  0.33164043  0.11350812  1
  Si  Si183  1  0.97241180  0.82866602  0.88833421  1
  Si  Si184  1  0.46768208  0.08054963  0.88953889  1
  Si  Si185  1  0.86286940  0.58018774  0.10726914  1
  Si  Si186  1  0.47157843  0.07743367  0.39063892  1
  Si  Si187  1  0.14039082  0.08022451  0.38909606  1
  Si  Si188  1  0.53322550  0.57783169  0.60933322  1
  Si  Si189  1  0.31438750  0.33371507  0.38959655  1
  Si  Si190  1  0.35865366  0.33373450  0.61538301  1
  Si  Si191  1  0.68953998  0.67111007  0.61148089  1
  O  O192  1  0.26933915  0.12497662  0.08546125  1
  O  O193  1  0.28605524  0.11438668  0.59072277  1
  O  O194  1  0.28658895  0.60312476  0.08141035  1
  O  O195  1  0.27301493  0.60384644  0.57833492  1
  O  O196  1  0.59525527  0.11244471  0.07910432  1
  O  O197  1  0.60813714  0.11738543  0.59014262  1
  O  O198  1  0.59946829  0.60410364  0.07306417  1
  O  O199  1  0.61518266  0.61233927  0.58177408  1
  O  O200  1  0.94783257  0.10969153  0.08517826  1
  O  O201  1  0.93179974  0.10168515  0.57957595  1
  O  O202  1  0.94192156  0.60634000  0.07323021  1
  O  O203  1  0.95309782  0.62039023  0.57586715  1
  O  O204  1  0.09248289  0.35959711  0.07392244  1
  O  O205  1  0.10650809  0.36789036  0.58358356  1
  O  O206  1  0.09957662  0.88195510  0.08179812  1
  O  O207  1  0.10133179  0.87774550  0.58744061  1
  O  O208  1  0.44924389  0.36045399  0.08645266  1
  O  O209  1  0.43899046  0.36961482  0.58660823  1
  O  O210  1  0.45435031  0.86371960  0.07517760  1
  O  O211  1  0.43562481  0.87967258  0.58582269  1
  O  O212  1  0.76903207  0.37106631  0.08517865  1
  O  O213  1  0.77423887  0.35888945  0.58843560  1
  O  O214  1  0.77453811  0.87233654  0.07925505  1
  O  O215  1  0.76967386  0.86178293  0.58785327  1
  O  O216  1  0.28317814  0.37663233  0.07589196  1
  O  O217  1  0.27283849  0.38036452  0.58702092  1
  O  O218  1  0.26264281  0.89223269  0.07546970  1
  O  O219  1  0.26876661  0.88158151  0.58524721  1
  O  O220  1  0.60988080  0.39662029  0.08789850  1
  O  O221  1  0.60498312  0.36926157  0.58734353  1
  O  O222  1  0.61572162  0.89777711  0.08419118  1
  O  O223  1  0.60433700  0.88720357  0.58731880  1
  O  O224  1  0.93113249  0.37266598  0.08388667  1
  O  O225  1  0.93962864  0.39053131  0.58588508  1
  O  O226  1  0.93945264  0.89224848  0.08815507  1
  O  O227  1  0.93521987  0.87692236  0.58810848  1
  O  O228  1  0.10942116  0.13825950  0.09178815  1
  O  O229  1  0.12302610  0.13342573  0.57634302  1
  O  O230  1  0.12746467  0.64549259  0.07263242  1
  O  O231  1  0.11632953  0.63656055  0.58579552  1
  O  O232  1  0.43288401  0.12586456  0.08378113  1
  O  O233  1  0.44609750  0.13705497  0.58863304  1
  O  O234  1  0.44329896  0.63342753  0.08181022  1
  O  O235  1  0.45199090  0.62152384  0.57240132  1
  O  O236  1  0.78585614  0.13673665  0.07792230  1
  O  O237  1  0.77086033  0.12416433  0.58996288  1
  O  O238  1  0.78032842  0.62510971  0.07145742  1
  O  O239  1  0.77071262  0.65432112  0.57822612  1
  O  O240  1  0.05110736  0.09859944  0.41459215  1
  O  O241  1  0.06365984  0.13366202  0.91808128  1
  O  O242  1  0.04198233  0.59749771  0.41454568  1
  O  O243  1  0.06238664  0.61653087  0.91368749  1
  O  O244  1  0.38634568  0.08918762  0.42170928  1
  O  O245  1  0.38519177  0.11765038  0.91543903  1
  O  O246  1  0.38868310  0.62115567  0.40998571  1
  O  O247  1  0.39605023  0.61805225  0.91304709  1
  O  O248  1  0.72459168  0.11475711  0.43700929  1
  O  O249  1  0.73712056  0.10458722  0.92493651  1
  O  O250  1  0.71050849  0.61482784  0.42016264  1
  O  O251  1  0.72937148  0.62552069  0.91349034  1
  O  O252  1  0.22841825  0.35810788  0.41632587  1
  O  O253  1  0.22912674  0.37087745  0.91298423  1
  O  O254  1  0.23516464  0.86816278  0.41772805  1
  O  O255  1  0.23885302  0.86397911  0.92240501  1
  O  O256  1  0.55573994  0.37927869  0.41558437  1
  O  O257  1  0.56233477  0.37519239  0.91576091  1
  O  O258  1  0.55590104  0.86046966  0.41355636  1
  O  O259  1  0.56331605  0.87444384  0.91525363  1
  O  O260  1  0.87602968  0.35347651  0.41970668  1
  O  O261  1  0.89628231  0.37812383  0.91691458  1
  O  O262  1  0.88129783  0.85254907  0.42112522  1
  O  O263  1  0.88458550  0.85472125  0.91380750  1
  O  O264  1  0.07013013  0.39148749  0.42671997  1
  O  O265  1  0.06308773  0.37383281  0.91317582  1
  O  O266  1  0.07200988  0.89053937  0.42078364  1
  O  O267  1  0.04843335  0.87915408  0.92377062  1
  O  O268  1  0.39068680  0.39385384  0.41554074  1
  O  O269  1  0.39483198  0.38285458  0.91383522  1
  O  O270  1  0.39502623  0.88671046  0.41278865  1
  O  O271  1  0.40120493  0.86712738  0.91494169  1
  O  O272  1  0.71661282  0.39751022  0.41324773  1
  O  O273  1  0.72823556  0.38838134  0.91552366  1
  O  O274  1  0.71877649  0.87806038  0.41492548  1
  O  O275  1  0.72509055  0.87971028  0.91430356  1
  O  O276  1  0.20955957  0.13913072  0.42187960  1
  O  O277  1  0.22432385  0.14446173  0.91661608  1
  O  O278  1  0.22973313  0.64954539  0.41789695  1
  O  O279  1  0.23046010  0.62152200  0.91369228  1
  O  O280  1  0.54119990  0.13452420  0.42605405  1
  O  O281  1  0.54986062  0.12311324  0.92726032  1
  O  O282  1  0.54882077  0.63912028  0.41258906  1
  O  O283  1  0.56243666  0.62836308  0.91209038  1
  O  O284  1  0.89950185  0.14059092  0.42414071  1
  O  O285  1  0.89965638  0.12319991  0.92008616  1
  O  O286  1  0.89100265  0.65278439  0.41625366  1
  O  O287  1  0.89516349  0.62918418  0.91063375  1
  O  O288  1  0.17209894  0.00783882  0.08357997  1
  O  O289  1  0.18507804  0.00095710  0.58639061  1
  O  O290  1  0.16766331  0.50727041  0.07445937  1
  O  O291  1  0.16955622  0.49727848  0.58700458  1
  O  O292  1  0.49993736  -0.00125619  0.08497503  1
  O  O293  1  0.51028202  0.00392136  0.58746685  1
  O  O294  1  0.49322884  0.49734604  0.08618802  1
  O  O295  1  0.52430726  0.49264862  0.58236648  1
  O  O296  1  0.83982543  0.00282126  0.08361790  1
  O  O297  1  0.83197784  -0.00817692  0.59024814  1
  O  O298  1  0.84589946  0.49448321  0.08182539  1
  O  O299  1  0.82298885  0.49249032  0.57906114  1
  O  O300  1  0.00028012  0.24502307  0.08476685  1
  O  O301  1  -0.00235164  0.25908776  0.58157300  1
  O  O302  1  0.00188136  0.76536412  0.06899155  1
  O  O303  1  0.02052647  0.75313535  0.58524726  1
  O  O304  1  0.35137114  0.24773347  0.08547205  1
  O  O305  1  0.34579479  0.25070100  0.58773678  1
  O  O306  1  0.33265391  0.73926255  0.07324099  1
  O  O307  1  0.34782019  0.76009163  0.57476441  1
  O  O308  1  0.66170051  0.26331946  0.07899589  1
  O  O309  1  0.67975312  0.24427632  0.59074631  1
  O  O310  1  0.66902181  0.76332698  0.07294581  1
  O  O311  1  0.65689605  0.75380226  0.58588438  1
  O  O312  1  0.17372443  -0.00013227  0.41841139  1
  O  O313  1  0.15824001  0.01489340  0.92796791  1
  O  O314  1  0.18550853  0.49211994  0.42114560  1
  O  O315  1  0.15100178  0.49669486  0.91233456  1
  O  O316  1  0.50551202  -0.00552837  0.41428637  1
  O  O317  1  0.47191328  -0.00430596  0.91611142  1
  O  O318  1  0.48621671  0.50730197  0.41153306  1
  O  O319  1  0.48789533  0.50087471  0.91589592  1
  O  O320  1  0.82761851  -0.01515769  0.42623171  1
  O  O321  1  0.83377219  -0.00877119  0.91522907  1
  O  O322  1  0.83897318  0.49228272  0.42119626  1
  O  O323  1  0.81920850  0.50449137  0.91512523  1
  O  O324  1  0.34683075  0.25881188  0.42586612  1
  O  O325  1  0.32718650  0.25341433  0.91474081  1
  O  O326  1  0.33617054  0.75489895  0.40973271  1
  O  O327  1  0.32138603  0.74329678  0.91331269  1
  O  O328  1  0.65452074  0.26651720  0.42725061  1
  O  O329  1  0.66203349  0.26014664  0.92432028  1
  O  O330  1  0.65191432  0.74823172  0.41155439  1
  O  O331  1  0.64825074  0.75045184  0.91258730  1
  O  O332  1  1.01674376  0.23890397  0.42056003  1
  O  O333  1  0.97225607  0.25234925  0.91234020  1
  O  O334  1  1.02224897  0.73746632  0.41698020  1
  O  O335  1  0.98993780  0.74523865  0.91480761  1
  O  O336  1  0.21764737  0.07962124  0.19616784  1
  O  O337  1  0.20978714  0.08272407  0.69553426  1
  O  O338  1  0.21358200  0.58952846  0.18718636  1
  O  O339  1  0.21134445  0.58154329  0.69365906  1
  O  O340  1  0.53923767  0.08278886  0.19444490  1
  O  O341  1  0.54269328  0.08247181  0.69843084  1
  O  O342  1  0.54277340  0.58234998  0.19101737  1
  O  O343  1  0.54705524  0.57761496  0.68970036  1
  O  O344  1  0.87613932  0.08461278  0.19381250  1
  O  O345  1  0.87495675  0.07881511  0.69680216  1
  O  O346  1  0.87776665  0.58203578  0.18812243  1
  O  O347  1  0.87890973  0.58219238  0.69877600  1
  O  O348  1  0.04217263  0.33278393  0.19225886  1
  O  O349  1  0.04616987  0.34259230  0.69205141  1
  O  O350  1  0.04800027  0.82893021  0.18933341  1
  O  O351  1  0.04263025  0.83284888  0.69595746  1
  O  O352  1  0.37907039  0.33462761  0.19414688  1
  O  O353  1  0.37831523  0.33443352  0.69613863  1
  O  O354  1  0.37791033  0.83450531  0.19804768  1
  O  O355  1  0.37506446  0.83482897  0.69321370  1
  O  O356  1  0.70687390  0.33568304  0.19596084  1
  O  O357  1  0.70800473  0.33168072  0.69852581  1
  O  O358  1  0.71127666  0.83751155  0.19023187  1
  O  O359  1  0.70599944  0.83477706  0.69579467  1
  O  O360  1  0.21249483  0.41663813  0.20151486  1
  O  O361  1  0.21101532  0.41546342  0.69478659  1
  O  O362  1  0.20937000  0.91951096  0.19182805  1
  O  O363  1  0.21041090  0.91618120  0.69594159  1
  O  O364  1  0.54214280  0.41740094  0.19659187  1
  O  O365  1  0.54427025  0.41433913  0.69544921  1
  O  O366  1  0.54304785  0.91620706  0.19243946  1
  O  O367  1  0.54201419  0.91877269  0.69673371  1
  O  O368  1  0.87353670  0.41592622  0.19479139  1
  O  O369  1  0.87261854  0.41624246  0.69403444  1
  O  O370  1  0.86370208  0.92000221  0.19403869  1
  O  O371  1  0.87461825  0.91199206  0.69812499  1
  O  O372  1  0.03299345  0.16886449  0.19718197  1
  O  O373  1  0.05025913  0.15675508  0.69907971  1
  O  O374  1  0.04348308  0.66878126  0.19561809  1
  O  O375  1  0.04590214  0.66716098  0.69232926  1
  O  O376  1  0.37953877  0.16647042  0.19569954  1
  O  O377  1  0.38349029  0.17169031  0.69815668  1
  O  O378  1  0.37682945  0.66680262  0.19024348  1
  O  O379  1  0.37747777  0.66719143  0.69986609  1
  O  O380  1  0.71075011  0.16916542  0.20192646  1
  O  O381  1  0.71078649  0.16313852  0.70012098  1
  O  O382  1  0.71030875  0.66561985  0.19551510  1
  O  O383  1  0.70371581  0.66900359  0.69168240  1
  O  O384  1  0.12162082  0.07659044  0.30929380  1
  O  O385  1  0.12495235  0.08433780  0.81042828  1
  O  O386  1  0.12397564  0.58379448  0.29509555  1
  O  O387  1  0.12443164  0.58184414  0.80345383  1
  O  O388  1  0.45870456  0.08046540  0.30888132  1
  O  O389  1  0.45859630  0.08232026  0.80948297  1
  O  O390  1  0.45439369  0.58623623  0.30007792  1
  O  O391  1  0.45630250  0.57826058  0.80416857  1
  O  O392  1  0.78680038  0.08230390  0.30212008  1
  O  O393  1  0.79208959  0.07936912  0.80964969  1
  O  O394  1  0.78865628  0.58182942  0.29636109  1
  O  O395  1  0.78493818  0.58122062  0.80356924  1
  O  O396  1  0.29721413  0.33417429  0.30878560  1
  O  O397  1  0.29228849  0.33542787  0.80429379  1
  O  O398  1  0.29121049  0.83605563  0.30288193  1
  O  O399  1  0.29098673  0.83107675  0.80582685  1
  O  O400  1  0.62061007  0.33639250  0.30771486  1
  O  O401  1  0.62470268  0.33561870  0.80838487  1
  O  O402  1  0.61879594  0.83469484  0.30216839  1
  O  O403  1  0.62108943  0.83432649  0.80495802  1
  O  O404  1  0.95507879  0.33571974  0.29973331  1
  O  O405  1  0.95076334  0.34084544  0.80546358  1
  O  O406  1  0.95138767  0.82530570  0.29819785  1
  O  O407  1  0.95653593  0.83122196  0.80725079  1
  O  O408  1  0.12310978  0.41447310  0.31003528  1
  O  O409  1  0.12352072  0.41554819  0.80354432  1
  O  O410  1  0.13769302  0.91699289  0.30787372  1
  O  O411  1  0.12256284  0.91663481  0.80118514  1
  O  O412  1  0.45577111  0.42002719  0.30386574  1
  O  O413  1  0.45779550  0.41762456  0.80513545  1
  O  O414  1  0.45881874  0.91607387  0.30332868  1
  O  O415  1  0.45623421  0.91537397  0.80558886  1
  O  O416  1  0.78952333  0.41660132  0.30697648  1
  O  O417  1  0.79019325  0.41833281  0.80563027  1
  O  O418  1  0.78809300  0.91334425  0.30839866  1
  O  O419  1  0.78845946  0.91360667  0.80538133  1
  O  O420  1  0.30301428  0.16902230  0.30397146  1
  O  O421  1  0.28922230  0.17096197  0.80542450  1
  O  O422  1  0.29017530  0.67048579  0.30117915  1
  O  O423  1  0.28809851  0.66283072  0.80414396  1
  O  O424  1  0.61915722  0.16733031  0.30268744  1
  O  O425  1  0.62173889  0.16599851  0.80355381  1
  O  O426  1  0.61706401  0.66181752  0.30380857  1
  O  O427  1  0.62433389  0.66644988  0.80294501  1
  O  O428  1  0.95689292  0.16640508  0.30869794  1
  O  O429  1  0.95042052  0.15953016  0.80793616  1
  O  O430  1  0.95679552  0.66370642  0.30364265  1
  O  O431  1  0.96441324  0.66615792  0.80417855  1
  F  F432  1  0.05117921  0.01124497  0.19882501  1
  F  F433  1  0.04385587  -0.00147111  0.70400810  1
  F  F434  1  0.03798975  0.49547918  0.19680151  1
  F  F435  1  0.04607635  0.50078533  0.70207344  1
  F  F436  1  0.38059793  0.00164376  0.20231753  1
  F  F437  1  0.38045246  -0.00391972  0.70233083  1
  F  F438  1  0.37929927  0.50007435  0.19901081  1
  F  F439  1  0.37958862  0.49735051  0.70028231  1
  F  F440  1  0.70838043  -0.00022889  0.20273950  1
  F  F441  1  0.71042318  -0.00027522  0.70598118  1
  F  F442  1  0.70939549  0.49643920  0.20008198  1
  F  F443  1  0.71018806  0.49764152  0.70166481  1
  F  F444  1  0.21734747  0.26192361  0.19856275  1
  F  F445  1  0.21549816  0.25194253  0.69989760  1
  F  F446  1  0.21358163  0.75358873  0.19908201  1
  F  F447  1  0.21263832  0.75104607  0.70304762  1
  F  F448  1  0.54365162  0.25237835  0.20251333  1
  F  F449  1  0.54567224  0.25175623  0.70505786  1
  F  F450  1  0.53915310  0.74968797  0.19566017  1
  F  F451  1  0.54538650  0.75611043  0.69967674  1
  F  F452  1  0.87496080  0.24906526  0.20422813  1
  F  F453  1  0.86205166  0.24817474  0.70020366  1
  F  F454  1  0.87623379  0.74766102  0.19599595  1
  F  F455  1  0.88025097  0.75386330  0.70097984  1
  F  F456  1  0.29154540  -0.00213104  0.29732538  1
  F  F457  1  0.28672756  -0.00451393  0.80119242  1
  F  F458  1  0.29990903  0.50488919  0.30009442  1
  F  F459  1  0.28873511  0.49953707  0.79649169  1
  F  F460  1  0.62051086  -0.00194611  0.29697525  1
  F  F461  1  0.61989028  -0.00206445  0.80108674  1
  F  F462  1  0.61890638  0.50163194  0.29620681  1
  F  F463  1  0.62088320  0.50025759  0.79731111  1
  F  F464  1  0.94805287  0.00904531  0.30164798  1
  F  F465  1  0.95423356  -0.00257420  0.79949366  1
  F  F466  1  0.95365768  0.50055009  0.29423814  1
  F  F467  1  0.95642786  0.49882817  0.79848008  1
  F  F468  1  0.11753053  0.26159466  0.30140854  1
  F  F469  1  0.13465900  0.25235363  0.80078281  1
  F  F470  1  0.12520770  0.75215791  0.29513579  1
  F  F471  1  0.12188454  0.74793306  0.79689203  1
  F  F472  1  0.45645218  0.25286461  0.29796156  1
  F  F473  1  0.45551589  0.25328479  0.80183678  1
  F  F474  1  0.45516657  0.74823973  0.29561127  1
  F  F475  1  0.45315236  0.75674628  0.80179757  1
  F  F476  1  0.78679198  0.25319286  0.30099652  1
  F  F477  1  0.78818015  0.24993664  0.80248583  1
  F  F478  1  0.78863072  0.75004139  0.29536311  1
  F  F479  1  0.78199695  0.75283162  0.79911104  1
