# generated using pymatgen
data_K24Na3Li5Mg64Fe17Si79(O5F)48
_symmetry_space_group_name_H-M   'P 1'
_cell_length_a   16.09570984
_cell_length_b   18.59502210
_cell_length_c   20.55968976
_cell_angle_alpha   89.98207847
_cell_angle_beta   100.01782416
_cell_angle_gamma   90.01553224
_symmetry_Int_Tables_number   1
_chemical_formula_structural   K24Na3Li5Mg64Fe17Si79(O5F)48
_chemical_formula_sum   'K24 Na3 Li5 Mg64 Fe17 Si79 O240 F48'
_cell_volume   6059.69789726
_cell_formula_units_Z   1
loop_
 _symmetry_equiv_pos_site_id
 _symmetry_equiv_pos_as_xyz
  1  'x, y, z'
loop_
 _atom_site_type_symbol
 _atom_site_label
 _atom_site_symmetry_multiplicity
 _atom_site_fract_x
 _atom_site_fract_y
 _atom_site_fract_z
 _atom_site_occupancy
  K  K0  1  -0.01222445  -0.00840667  0.00402205  1
  K  K1  1  -0.00278210  -0.00268382  0.49275976  1
  K  K2  1  -0.00316531  0.50197662  -0.00222927  1
  K  K3  1  0.00881490  0.49245679  0.50244323  1
  K  K4  1  0.32593706  -0.00668060  0.00060898  1
  K  K5  1  0.31958679  -0.00123758  0.50020474  1
  K  K6  1  0.32668888  0.51221950  0.00102711  1
  K  K7  1  0.32093278  0.51064783  0.50633763  1
  K  K8  1  0.67498093  -0.01252989  -0.00064350  1
  K  K9  1  0.67219198  0.00043710  0.50024084  1
  K  K10  1  0.67292718  0.50608269  -0.01057645  1
  K  K11  1  0.67368768  0.50758482  0.50703912  1
  K  K12  1  0.15019981  0.26076710  -0.00355535  1
  K  K13  1  0.15968009  0.25487621  0.50069588  1
  K  K14  1  0.17352401  0.74466558  0.00433395  1
  K  K15  1  0.16881241  0.74314679  0.49294331  1
  K  K16  1  0.50611553  0.25208394  -0.00441593  1
  K  K17  1  0.50657707  0.24667283  0.50961009  1
  K  K18  1  0.49440576  0.75071013  0.00401595  1
  K  K19  1  0.49961964  0.73851446  0.49559598  1
  K  K20  1  0.84507269  0.24092367  -0.00532246  1
  K  K21  1  0.83586376  0.25621711  0.50898945  1
  K  K22  1  0.84095986  0.75048230  0.00369902  1
  K  K23  1  0.82277865  0.74742632  0.49978402  1
  Na  Na24  1  0.00140228  0.74766584  0.25271830  1
  Na  Na25  1  0.00117030  0.57777427  0.25256418  1
  Na  Na26  1  0.49774869  0.66865030  0.25078754  1
  Li  Li27  1  0.66989979  0.25217065  0.74444464  1
  Li  Li28  1  0.49822780  0.49836111  0.74818606  1
  Li  Li29  1  0.16283317  0.33968036  0.74496600  1
  Li  Li30  1  0.16836139  0.66393557  0.74998885  1
  Li  Li31  1  0.00075161  0.42013544  0.24781413  1
  Mg  Mg32  1  0.33358867  0.25017941  0.25025350  1
  Mg  Mg33  1  0.67009096  0.25137215  0.24628526  1
  Mg  Mg34  1  0.83302237  0.50049624  0.75033560  1
  Mg  Mg35  1  0.50009787  0.00201588  0.75037891  1
  Mg  Mg36  1  0.16576242  -0.00179568  0.25335560  1
  Mg  Mg37  1  0.49893538  0.50133377  0.24877780  1
  Mg  Mg38  1  0.33243101  0.75037184  0.25306219  1
  Mg  Mg39  1  0.83079065  -0.00028108  0.75088783  1
  Mg  Mg40  1  0.16359778  0.50084793  0.24834596  1
  Mg  Mg41  1  0.50170878  0.00097986  0.25242632  1
  Mg  Mg42  1  0.00031308  0.25136414  0.24602030  1
  Mg  Mg43  1  0.66557785  0.74785396  0.75318034  1
  Mg  Mg44  1  0.66304892  0.75054580  0.25179594  1
  Mg  Mg45  1  0.16730345  0.49856294  0.74794212  1
  Mg  Mg46  1  0.83702174  -0.00312572  0.24979277  1
  Mg  Mg47  1  0.00311736  0.74846791  0.75331293  1
  Mg  Mg48  1  0.33036730  0.74837148  0.75250559  1
  Mg  Mg49  1  0.32968241  0.25266215  0.74649457  1
  Mg  Mg50  1  0.00195904  0.25309430  0.74874385  1
  Mg  Mg51  1  0.16715104  -0.00164159  0.75187202  1
  Mg  Mg52  1  0.83746758  0.50128878  0.25122102  1
  Mg  Mg53  1  0.50367630  0.16651479  0.25082246  1
  Mg  Mg54  1  0.66768046  0.41730501  0.24790000  1
  Mg  Mg55  1  0.66677103  0.91607458  0.75212936  1
  Mg  Mg56  1  0.49911501  0.83371179  0.75386310  1
  Mg  Mg57  1  -0.00151677  0.08392621  0.74813188  1
  Mg  Mg58  1  0.16798246  0.83313062  0.25359859  1
  Mg  Mg59  1  0.83204802  0.83347516  0.75236285  1
  Mg  Mg60  1  0.66792250  0.91510375  0.25229572  1
  Mg  Mg61  1  0.66694851  0.08802189  0.74824908  1
  Mg  Mg62  1  0.00265528  0.41390792  0.74717178  1
  Mg  Mg63  1  0.33191604  0.58139093  0.74886924  1
  Mg  Mg64  1  0.50002721  0.33410447  0.74655842  1
  Mg  Mg65  1  0.83078813  0.16861485  0.74886585  1
  Mg  Mg66  1  0.83462620  0.83381625  0.25318043  1
  Mg  Mg67  1  0.67221958  0.08445783  0.24963027  1
  Mg  Mg68  1  0.33342675  0.91496748  0.75339851  1
  Mg  Mg69  1  0.33459646  0.08470713  0.25126279  1
  Mg  Mg70  1  0.33076196  0.41608043  0.74680650  1
  Mg  Mg71  1  0.16906197  0.83017667  0.75283450  1
  Mg  Mg72  1  -0.00096519  0.08437020  0.24854767  1
  Mg  Mg73  1  0.00020712  0.91478662  0.75317342  1
  Mg  Mg74  1  0.49895210  0.66195795  0.75097568  1
  Mg  Mg75  1  0.66553234  0.58250868  0.75121934  1
  Mg  Mg76  1  0.00318297  0.58449629  0.74992277  1
  Mg  Mg77  1  0.16185549  0.33574560  0.24639920  1
  Mg  Mg78  1  0.50206798  0.16950512  0.74639317  1
  Mg  Mg79  1  0.16405732  0.16611956  0.24878186  1
  Mg  Mg80  1  0.83221887  0.33421801  0.74786544  1
  Mg  Mg81  1  0.83184072  0.66496103  0.75090308  1
  Mg  Mg82  1  0.83261109  0.66763022  0.25055074  1
  Mg  Mg83  1  0.33314774  0.08538853  0.75028774  1
  Mg  Mg84  1  0.50116307  0.33395257  0.24862939  1
  Mg  Mg85  1  0.16458719  0.16835734  0.74761141  1
  Mg  Mg86  1  0.33469929  0.91595794  0.25325559  1
  Mg  Mg87  1  0.00125482  0.91188107  0.25311604  1
  Mg  Mg88  1  0.83634951  0.16519045  0.24730462  1
  Mg  Mg89  1  0.66471983  0.41631483  0.75015687  1
  Mg  Mg90  1  0.49802181  0.83636480  0.25337823  1
  Mg  Mg91  1  0.33303459  0.58596488  0.24975169  1
  Mg  Mg92  1  0.66535326  0.58345094  0.24955279  1
  Mg  Mg93  1  0.33299099  0.41620614  0.24903988  1
  Mg  Mg94  1  0.16935316  0.66643900  0.25305645  1
  Mg  Mg95  1  0.83757804  0.33723677  0.24711328  1
  Fe  Fe96  1  0.19253832  0.41802748  0.60689485  1
  Fe  Fe97  1  0.68641299  0.66606738  0.61076920  1
  Fe  Fe98  1  0.81021559  0.58801692  0.89175230  1
  Fe  Fe99  1  0.35631432  0.67123278  0.10763076  1
  Fe  Fe100  1  0.85752805  0.90370835  0.11061162  1
  Fe  Fe101  1  0.02234379  0.32759751  0.60596216  1
  Fe  Fe102  1  0.13335657  0.91670017  0.39498977  1
  Fe  Fe103  1  0.31279760  0.66072900  0.39434444  1
  Fe  Fe104  1  0.85706710  0.07879750  0.10700616  1
  Fe  Fe105  1  0.69307142  0.17041005  0.60806308  1
  Fe  Fe106  1  0.30705989  0.83519012  0.39491588  1
  Fe  Fe107  1  0.02815812  0.16888251  0.10706598  1
  Fe  Fe108  1  0.80280103  0.91320668  0.39220245  1
  Fe  Fe109  1  0.30964604  0.83105818  0.89305841  1
  Fe  Fe110  1  0.47433178  0.92290883  0.39256913  1
  Fe  Fe111  1  0.97495072  0.33454140  0.88821525  1
  Fe  Fe112  1  0.80755170  0.91214033  0.89093076  1
  Si  Si113  1  0.47977130  0.41166176  0.38468215  1
  Si  Si114  1  0.19377157  0.91523771  0.61689894  1
  Si  Si115  1  0.69152975  0.33898905  0.11166356  1
  Si  Si116  1  0.97880054  0.83095758  0.88719655  1
  Si  Si117  1  0.53246445  0.08629986  0.11514137  1
  Si  Si118  1  0.80947807  0.41831662  0.38371237  1
  Si  Si119  1  0.02584516  0.83522878  0.61673330  1
  Si  Si120  1  0.63343526  0.82844980  0.39144601  1
  Si  Si121  1  0.47612670  0.08940752  0.88477478  1
  Si  Si122  1  0.03056638  0.66319307  0.11583868  1
  Si  Si123  1  0.52705020  0.57785227  0.11117255  1
  Si  Si124  1  0.19443742  0.92118042  0.11541278  1
  Si  Si125  1  0.63676122  0.33380596  0.88207660  1
  Si  Si126  1  0.36235750  0.33162248  0.61017908  1
  Si  Si127  1  0.80369316  0.41461680  0.88857638  1
  Si  Si128  1  0.30998959  0.33541553  0.38479837  1
  Si  Si129  1  0.03587893  0.83004700  0.11247586  1
  Si  Si130  1  0.80909365  0.58255820  0.38719202  1
  Si  Si131  1  0.69390820  0.17327788  0.11060856  1
  Si  Si132  1  0.19380837  0.08069169  0.61520190  1
  Si  Si133  1  0.52343490  0.41665181  0.61537427  1
  Si  Si134  1  0.52989385  0.92079392  0.11582403  1
  Si  Si135  1  0.35879266  0.66860823  0.61665788  1
  Si  Si136  1  0.02788393  0.67095922  0.61688021  1
  Si  Si137  1  0.63206812  0.83182923  0.88944300  1
  Si  Si138  1  0.85674039  0.42222894  0.61049035  1
  Si  Si139  1  0.86410323  0.58818560  0.61256226  1
  Si  Si140  1  0.97185838  0.66220894  0.38722851  1
  Si  Si141  1  0.31266478  0.66170243  0.88597462  1
  Si  Si142  1  0.30658509  0.33227002  0.88363404  1
  Si  Si143  1  0.80755769  0.08530455  0.88593485  1
  Si  Si144  1  0.14206281  0.08119083  0.88386714  1
  Si  Si145  1  0.85559640  0.42417493  0.11278017  1
  Si  Si146  1  0.47081946  0.41079667  0.88278826  1
  Si  Si147  1  0.14248363  0.08951116  0.38889151  1
  Si  Si148  1  0.51945144  0.57992435  0.61382572  1
  Si  Si149  1  0.85806774  0.91388748  0.61664679  1
  Si  Si150  1  0.97724136  0.16367069  0.88362108  1
  Si  Si151  1  0.02445476  0.15697369  0.61140169  1
  Si  Si152  1  0.98412617  0.66803767  0.88802460  1
  Si  Si153  1  0.64412075  0.66241040  0.38523751  1
  Si  Si154  1  0.36045301  0.84258751  0.11253403  1
  Si  Si155  1  0.19801943  0.08586241  0.11356769  1
  Si  Si156  1  0.48128188  0.09197862  0.38798445  1
  Si  Si157  1  0.97384143  0.33475564  0.38133747  1
  Si  Si158  1  0.97368458  0.17218011  0.38517979  1
  Si  Si159  1  0.14078105  0.57963180  0.38918483  1
  Si  Si160  1  0.35715703  0.16590966  0.61398716  1
  Si  Si161  1  0.02011408  0.33861611  0.11143882  1
  Si  Si162  1  0.64617728  0.33385465  0.38292340  1
  Si  Si163  1  0.85575880  0.58939657  0.11509272  1
  Si  Si164  1  0.36125670  0.83336870  0.61741906  1
  Si  Si165  1  0.30610441  0.16739393  0.88471716  1
  Si  Si166  1  0.14558341  0.58254604  0.88330190  1
  Si  Si167  1  0.63105611  0.66592330  0.88955435  1
  Si  Si168  1  0.14417609  0.42021771  0.88685323  1
  Si  Si169  1  0.68978781  0.34349592  0.61101342  1
  Si  Si170  1  0.81062002  0.08562547  0.38779454  1
  Si  Si171  1  0.86070418  0.07825160  0.61301952  1
  Si  Si172  1  0.47049628  0.57543266  0.88352103  1
  Si  Si173  1  0.18942756  0.57912903  0.11005549  1
  Si  Si174  1  0.31031773  0.17006185  0.38564953  1
  Si  Si175  1  0.52164972  0.08236843  0.61176664  1
  Si  Si176  1  0.19118073  0.58845821  0.61391650  1
  Si  Si177  1  0.64088701  0.16957695  0.88299137  1
  Si  Si178  1  0.35745370  0.32906493  0.11332931  1
  Si  Si179  1  0.47961357  0.57333331  0.38830042  1
  Si  Si180  1  0.13952744  0.91626690  0.88828419  1
  Si  Si181  1  0.14256904  0.41484907  0.38313962  1
  Si  Si182  1  0.36459574  0.16344746  0.11554123  1
  Si  Si183  1  0.96744450  0.82693463  0.39415177  1
  Si  Si184  1  0.68790888  0.66220362  0.11517942  1
  Si  Si185  1  0.52388319  0.91821291  0.61719537  1
  Si  Si186  1  0.64625423  0.17140239  0.38335750  1
  Si  Si187  1  0.68758243  0.83568794  0.61464768  1
  Si  Si188  1  0.19220214  0.41388997  0.11298493  1
  Si  Si189  1  0.52196573  0.41492708  0.11240852  1
  Si  Si190  1  0.68479505  0.82464036  0.11456497  1
  Si  Si191  1  0.47282531  0.92475271  0.88853531  1
  O  O192  1  0.28788441  0.10846156  0.08791529  1
  O  O193  1  0.27182996  0.11851448  0.58552484  1
  O  O194  1  0.25673057  0.61940575  0.07234883  1
  O  O195  1  0.27115683  0.62773376  0.58633298  1
  O  O196  1  0.60551723  0.12825776  0.08384120  1
  O  O197  1  0.59485720  0.11385444  0.57541644  1
  O  O198  1  0.61471321  0.60320890  0.08497315  1
  O  O199  1  0.59440869  0.60587195  0.57544305  1
  O  O200  1  0.94755438  0.10569492  0.06731114  1
  O  O201  1  0.95088499  0.09572688  0.58820671  1
  O  O202  1  0.93532883  0.62798934  0.08834430  1
  O  O203  1  0.94729294  0.62061847  0.58460727  1
  O  O204  1  0.10312750  0.37384418  0.08389444  1
  O  O205  1  0.10503435  0.36247046  0.56226170  1
  O  O206  1  0.11657760  0.86816661  0.08343044  1
  O  O207  1  0.10601894  0.87184287  0.58826866  1
  O  O208  1  0.43768744  0.36512655  0.08447689  1
  O  O209  1  0.45050814  0.35715607  0.58533338  1
  O  O210  1  0.43882778  0.88495349  0.08508654  1
  O  O211  1  0.44176985  0.86759013  0.58853668  1
  O  O212  1  0.76828345  0.37795125  0.08134576  1
  O  O213  1  0.76446786  0.38565959  0.58018793  1
  O  O214  1  0.76326738  0.84379558  0.07916188  1
  O  O215  1  0.77339441  0.86650342  0.58893980  1
  O  O216  1  0.26942654  0.37113771  0.08358927  1
  O  O217  1  0.28808284  0.38169013  0.57277697  1
  O  O218  1  0.27804578  0.89487944  0.08582522  1
  O  O219  1  0.27453446  0.87931206  0.58976798  1
  O  O220  1  0.60274655  0.38177653  0.08305022  1
  O  O221  1  0.60596644  0.39421826  0.58275508  1
  O  O222  1  0.60291141  0.87767350  0.08486198  1
  O  O223  1  0.60903763  0.89301258  0.58969472  1
  O  O224  1  0.93772436  0.39188292  0.08535870  1
  O  O225  1  0.92415940  0.38234595  0.57337280  1
  O  O226  1  0.95086078  0.86865221  0.07480423  1
  O  O227  1  0.94003725  0.88165711  0.58770261  1
  O  O228  1  0.13048273  0.14320732  0.07814364  1
  O  O229  1  0.10834932  0.12411393  0.58403815  1
  O  O230  1  0.09508125  0.61293521  0.08025796  1
  O  O231  1  0.11049932  0.64301017  0.58802164  1
  O  O232  1  0.44587787  0.13183046  0.08609904  1
  O  O233  1  0.43408212  0.12811090  0.58388161  1
  O  O234  1  0.45047025  0.62824775  0.07696793  1
  O  O235  1  0.43495901  0.62998576  0.58628178  1
  O  O236  1  0.76793725  0.14549943  0.07489181  1
  O  O237  1  0.78730040  0.13023973  0.57562221  1
  O  O238  1  0.77159229  0.63769283  0.08412560  1
  O  O239  1  0.78355085  0.63534063  0.57834142  1
  O  O240  1  0.06357977  0.13243969  0.41509118  1
  O  O241  1  0.05848837  0.10956811  0.91102267  1
  O  O242  1  0.05351150  0.60951697  0.41326690  1
  O  O243  1  0.06622105  0.61575716  0.91473665  1
  O  O244  1  0.39767757  0.12631030  0.41498931  1
  O  O245  1  0.39484292  0.12382620  0.91395181  1
  O  O246  1  0.40595179  0.59833207  0.42680579  1
  O  O247  1  0.38860615  0.60330475  0.91453641  1
  O  O248  1  0.72682994  0.12129287  0.41398811  1
  O  O249  1  0.72752810  0.12569607  0.91287311  1
  O  O250  1  0.72883197  0.61535111  0.41756248  1
  O  O251  1  0.71851063  0.62999155  0.92532891  1
  O  O252  1  0.23040329  0.36995031  0.41411537  1
  O  O253  1  0.23007795  0.37062826  0.91391900  1
  O  O254  1  0.21818897  0.85870638  0.43734236  1
  O  O255  1  0.21387707  0.86505460  0.92511781  1
  O  O256  1  0.56119531  0.35853594  0.41141750  1
  O  O257  1  0.55518678  0.36325357  0.91401576  1
  O  O258  1  0.54927009  0.84712525  0.42140924  1
  O  O259  1  0.55573913  0.87577110  0.91680234  1
  O  O260  1  0.89557498  0.37278847  0.41184617  1
  O  O261  1  0.87792778  0.36007986  0.92189378  1
  O  O262  1  0.88308328  0.84377497  0.42595699  1
  O  O263  1  0.89868894  0.85035210  0.92099892  1
  O  O264  1  0.06301666  0.37570575  0.41004956  1
  O  O265  1  0.07047960  0.39084303  0.92468652  1
  O  O266  1  0.04065993  0.88131982  0.43011565  1
  O  O267  1  0.05181031  0.89203025  0.91302391  1
  O  O268  1  0.39753009  0.38002859  0.41349543  1
  O  O269  1  0.39461307  0.37433442  0.91677450  1
  O  O270  1  0.37810509  0.91079320  0.42704313  1
  O  O271  1  0.39514366  0.89934559  0.92289267  1
  O  O272  1  0.72779363  0.38418195  0.41269262  1
  O  O273  1  0.71585456  0.38504657  0.91336823  1
  O  O274  1  0.70832238  0.88150531  0.42686339  1
  O  O275  1  0.71847175  0.86899397  0.92462599  1
  O  O276  1  0.22965103  0.13829370  0.41535894  1
  O  O277  1  0.22771631  0.12867230  0.91358048  1
  O  O278  1  0.21967646  0.62326483  0.43029213  1
  O  O279  1  0.22798938  0.63227561  0.91307363  1
  O  O280  1  0.55941253  0.15082070  0.41069635  1
  O  O281  1  0.55971159  0.13758989  0.91497875  1
  O  O282  1  0.56532512  0.62312323  0.41260824  1
  O  O283  1  0.55356802  0.62267933  0.91671744  1
  O  O284  1  0.89420995  0.13696051  0.41497145  1
  O  O285  1  0.89339076  0.13321692  0.91102945  1
  O  O286  1  0.89282039  0.62800292  0.42101185  1
  O  O287  1  0.90820430  0.64306808  0.92509497  1
  O  O288  1  0.17548433  0.00349064  0.08545555  1
  O  O289  1  0.18468950  -0.00236274  0.58686685  1
  O  O290  1  0.18695640  0.49460032  0.08183370  1
  O  O291  1  0.17265796  0.51382352  0.57400162  1
  O  O292  1  0.52560174  0.00413380  0.08586630  1
  O  O293  1  0.49910804  -0.00132320  0.58797165  1
  O  O294  1  0.50499640  0.49494750  0.08094243  1
  O  O295  1  0.49206099  0.49704559  0.58809971  1
  O  O296  1  0.82208875  -0.00944087  0.07204203  1
  O  O297  1  0.83885485  -0.00518170  0.58692052  1
  O  O298  1  0.84180228  0.50698650  0.08328995  1
  O  O299  1  0.84959397  0.50607720  0.58304624  1
  O  O300  1  0.00005259  0.26306065  0.07344154  1
  O  O301  1  -0.00205513  0.23119599  0.57387757  1
  O  O302  1  0.03233951  0.74524168  0.08468579  1
  O  O303  1  0.01027699  0.75367028  0.58737240  1
  O  O304  1  0.34781072  0.24574523  0.08536198  1
  O  O305  1  0.34558402  0.24703995  0.58305008  1
  O  O306  1  0.34621240  0.76674582  0.07417858  1
  O  O307  1  0.34866144  0.75167054  0.58874209  1
  O  O308  1  0.67270685  0.25708369  0.08393492  1
  O  O309  1  0.67426656  0.26556152  0.57475442  1
  O  O310  1  0.65439657  0.74206325  0.08843693  1
  O  O311  1  0.66261364  0.76042912  0.57779468  1
  O  O312  1  0.15402477  0.01390535  0.42698485  1
  O  O313  1  0.16175255  -0.00006021  0.91376403  1
  O  O314  1  0.15004499  0.49466138  0.41643524  1
  O  O315  1  0.16838393  0.50250697  0.91614870  1
  O  O316  1  0.51173694  0.01759504  0.42319816  1
  O  O317  1  0.49519854  0.00836138  0.91446997  1
  O  O318  1  0.50788637  0.49023122  0.41564711  1
  O  O319  1  0.48779168  0.49274487  0.91238727  1
  O  O320  1  0.82870085  0.00891101  0.42373458  1
  O  O321  1  0.82108808  0.00772472  0.92118587  1
  O  O322  1  0.82203904  0.49915491  0.41518249  1
  O  O323  1  0.82218882  0.49313547  0.92364833  1
  O  O324  1  0.32508804  0.25301949  0.41387451  1
  O  O325  1  0.31681737  0.24919663  0.91508241  1
  O  O326  1  0.34475385  0.74801670  0.43302620  1
  O  O327  1  0.34014390  0.73757653  0.92234657  1
  O  O328  1  0.67094041  0.25301290  0.41102531  1
  O  O329  1  0.65333941  0.25174602  0.91270067  1
  O  O330  1  0.65852150  0.74363692  0.41550570  1
  O  O331  1  0.62448253  0.74914397  0.91609029  1
  O  O332  1  0.98352460  0.25425101  0.41510592  1
  O  O333  1  1.00213543  0.23989183  0.91836293  1
  O  O334  1  0.99519754  0.74254590  0.41860557  1
  O  O335  1  1.01528441  0.75063239  0.91171827  1
  O  O336  1  0.21347525  0.08659615  0.19473320  1
  O  O337  1  0.21130177  0.08112184  0.69563685  1
  O  O338  1  0.21047676  0.57847135  0.19052705  1
  O  O339  1  0.21132479  0.58189801  0.69369989  1
  O  O340  1  0.54750330  0.08690016  0.19560480  1
  O  O341  1  0.54048065  0.08400864  0.69291388  1
  O  O342  1  0.54667197  0.57325167  0.19112499  1
  O  O343  1  0.54394875  0.58620627  0.69361538  1
  O  O344  1  0.87733122  0.08295224  0.20035453  1
  O  O345  1  0.87566277  0.08086172  0.69409410  1
  O  O346  1  0.86488788  0.58425000  0.19383542  1
  O  O347  1  0.87973026  0.58693061  0.69337517  1
  O  O348  1  0.04292273  0.33122913  0.19126107  1
  O  O349  1  0.04446906  0.33178179  0.69663948  1
  O  O350  1  0.05068624  0.83770135  0.19196452  1
  O  O351  1  0.04419385  0.83516483  0.69710424  1
  O  O352  1  0.37745967  0.33117470  0.19382006  1
  O  O353  1  0.37561076  0.33155250  0.69090979  1
  O  O354  1  0.37782499  0.83801548  0.19258659  1
  O  O355  1  0.37929877  0.83524542  0.69772650  1
  O  O356  1  0.70958768  0.33698536  0.19226521  1
  O  O357  1  0.71113410  0.34033689  0.69114375  1
  O  O358  1  0.70413415  0.83122390  0.19494266  1
  O  O359  1  0.70584859  0.83259942  0.69559692  1
  O  O360  1  0.21378482  0.41264846  0.19305368  1
  O  O361  1  0.21215384  0.41818394  0.69779151  1
  O  O362  1  0.21281696  0.92204233  0.19540826  1
  O  O363  1  0.21005706  0.91770319  0.69712770  1
  O  O364  1  0.54192127  0.41381427  0.19294918  1
  O  O365  1  0.54402136  0.41403748  0.69481157  1
  O  O366  1  0.54740006  0.92186279  0.19591385  1
  O  O367  1  0.54144336  0.91710283  0.69809261  1
  O  O368  1  0.86757188  0.41983324  0.19195707  1
  O  O369  1  0.87449517  0.41997337  0.69126079  1
  O  O370  1  0.88177763  0.91367317  0.20214027  1
  O  O371  1  0.87846791  0.91480339  0.69694751  1
  O  O372  1  0.04529665  0.16735250  0.20003775  1
  O  O373  1  0.04407019  0.16180459  0.69227776  1
  O  O374  1  0.05591214  0.66276470  0.19380019  1
  O  O375  1  0.04008084  0.66955199  0.69643366  1
  O  O376  1  0.38126620  0.16802801  0.19601156  1
  O  O377  1  0.37540501  0.16533293  0.69436336  1
  O  O378  1  0.36805539  0.66753262  0.19678526  1
  O  O379  1  0.37717938  0.66757768  0.69687629  1
  O  O380  1  0.71079327  0.16998486  0.19187790  1
  O  O381  1  0.71237406  0.16523283  0.69808723  1
  O  O382  1  0.70642403  0.66359759  0.19540837  1
  O  O383  1  0.70861376  0.66818618  0.70206896  1
  O  O384  1  0.12674903  0.08607011  0.30818615  1
  O  O385  1  0.12539095  0.08199030  0.80333443  1
  O  O386  1  0.13591889  0.58033016  0.30998899  1
  O  O387  1  0.12353741  0.58055231  0.80383331  1
  O  O388  1  0.45984737  0.08906367  0.30664265  1
  O  O389  1  0.45619070  0.08704512  0.80430297  1
  O  O390  1  0.45443579  0.57095915  0.30849305  1
  O  O391  1  0.45383906  0.58215215  0.80427355  1
  O  O392  1  0.79057352  0.08678257  0.30687427  1
  O  O393  1  0.78928266  0.08281706  0.80511079  1
  O  O394  1  0.78855861  0.58136154  0.30695495  1
  O  O395  1  0.79032926  0.58314498  0.80057399  1
  O  O396  1  0.29327640  0.33370056  0.30428819  1
  O  O397  1  0.29377730  0.33047541  0.80441717  1
  O  O398  1  0.28975737  0.83599922  0.30168319  1
  O  O399  1  0.28994782  0.83393474  0.80147672  1
  O  O400  1  0.62566835  0.33406510  0.30219880  1
  O  O401  1  0.61866214  0.33452821  0.80271954  1
  O  O402  1  0.62179501  0.83334670  0.30989135  1
  O  O403  1  0.61977841  0.83388354  0.80817045  1
  O  O404  1  0.95424779  0.33006362  0.30202514  1
  O  O405  1  0.95333056  0.33482795  0.79705453  1
  O  O406  1  0.95205381  0.83621128  0.31410164  1
  O  O407  1  0.95779195  0.83298734  0.80601484  1
  O  O408  1  0.13098877  0.41517340  0.30394954  1
  O  O409  1  0.12150070  0.42129340  0.80725426  1
  O  O410  1  0.12208761  0.91698690  0.30258949  1
  O  O411  1  0.12474248  0.91621889  0.80706668  1
  O  O412  1  0.45871172  0.41217232  0.30389525  1
  O  O413  1  0.45117893  0.40919467  0.80354900  1
  O  O414  1  0.45609005  0.92246918  0.29980876  1
  O  O415  1  0.45586315  0.92114564  0.80738811  1
  O  O416  1  0.78770440  0.41583362  0.30363397  1
  O  O417  1  0.78902211  0.41665082  0.80706323  1
  O  O418  1  0.78540092  0.91762020  0.30060435  1
  O  O419  1  0.78713710  0.91615138  0.79910208  1
  O  O420  1  0.29232058  0.16884983  0.30494255  1
  O  O421  1  0.28968848  0.16606032  0.80454224  1
  O  O422  1  0.29051555  0.66386194  0.30245149  1
  O  O423  1  0.29611026  0.66480649  0.80603665  1
  O  O424  1  0.62749966  0.17004504  0.30253561  1
  O  O425  1  0.61804980  0.16411938  0.80391687  1
  O  O426  1  0.63191888  0.66355925  0.30588623  1
  O  O427  1  0.61847057  0.66568744  0.80878099  1
  O  O428  1  0.95605831  0.17041377  0.30510863  1
  O  O429  1  0.95788390  0.16444239  0.80261090  1
  O  O430  1  0.94365911  0.66328004  0.30940587  1
  O  O431  1  0.95919386  0.66604342  0.80714463  1
  F  F432  1  0.04722845  0.00295743  0.20329286  1
  F  F433  1  0.04630188  -0.00246526  0.70355453  1
  F  F434  1  0.05225552  0.49001951  0.19575098  1
  F  F435  1  0.04473079  0.50118399  0.70012909  1
  F  F436  1  0.38148396  0.00751128  0.20116624  1
  F  F437  1  0.37741883  0.00054362  0.70357016  1
  F  F438  1  0.38002850  0.49519451  0.19940100  1
  F  F439  1  0.37445062  0.49951836  0.70042347  1
  F  F440  1  0.71046040  0.00262954  0.20118933  1
  F  F441  1  0.70837693  0.00072337  0.70117289  1
  F  F442  1  0.71178049  0.49932831  0.20260877  1
  F  F443  1  0.71139197  0.49945683  0.70092694  1
  F  F444  1  0.21482574  0.25097478  0.20213269  1
  F  F445  1  0.21507114  0.24051790  0.69624015  1
  F  F446  1  0.21170945  0.75177837  0.20099993  1
  F  F447  1  0.21348227  0.75374617  0.69958230  1
  F  F448  1  0.54613359  0.25100199  0.20030723  1
  F  F449  1  0.53704902  0.24995111  0.69635535  1
  F  F450  1  0.54762362  0.76177017  0.20096762  1
  F  F451  1  0.54371858  0.75072005  0.70546043  1
  F  F452  1  0.87665360  0.25164250  0.19893271  1
  F  F453  1  0.87845547  0.24787523  0.69850899  1
  F  F454  1  0.86444520  0.75035974  0.19956115  1
  F  F455  1  0.87929595  0.75098223  0.70523289  1
  F  F456  1  0.28912679  0.00499893  0.29809747  1
  F  F457  1  0.28912810  0.00198651  0.79966377  1
  F  F458  1  0.28873192  0.49671787  0.29458334  1
  F  F459  1  0.28926838  0.49965221  0.79979092  1
  F  F460  1  0.62341431  0.00468258  0.29829763  1
  F  F461  1  0.61995813  0.00218858  0.79753122  1
  F  F462  1  0.62074809  0.49641244  0.29748755  1
  F  F463  1  0.62436910  0.49968198  0.79894307  1
  F  F464  1  0.95883876  0.00266558  0.30160003  1
  F  F465  1  0.95476251  0.00036324  0.79741521  1
  F  F466  1  0.94705183  0.48793735  0.30493762  1
  F  F467  1  0.95472438  0.50050685  0.79503798  1
  F  F468  1  0.12425219  0.25285541  0.29804158  1
  F  F469  1  0.12020451  0.24127924  0.79990927  1
  F  F470  1  0.13555592  0.74918258  0.30471749  1
  F  F471  1  0.12093626  0.75366343  0.80072039  1
  F  F472  1  0.45706243  0.25132317  0.29718036  1
  F  F473  1  0.45198830  0.24872949  0.79576110  1
  F  F474  1  0.45030936  0.76057264  0.30215112  1
  F  F475  1  0.45411011  0.74989246  0.79935017  1
  F  F476  1  0.78839015  0.25267535  0.29444873  1
  F  F477  1  0.79268867  0.25198203  0.79742148  1
  F  F478  1  0.78315137  0.74924967  0.29873914  1
  F  F479  1  0.78783976  0.75145452  0.80095269  1
