# generated using pymatgen
data_K24Na3Li5Mg64Fe17Si79(O5F)48
_symmetry_space_group_name_H-M   'P 1'
_cell_length_a   16.08297663
_cell_length_b   18.57656960
_cell_length_c   20.54460175
_cell_angle_alpha   89.99028361
_cell_angle_beta   100.01205371
_cell_angle_gamma   90.01378980
_symmetry_Int_Tables_number   1
_chemical_formula_structural   K24Na3Li5Mg64Fe17Si79(O5F)48
_chemical_formula_sum   'K24 Na3 Li5 Mg64 Fe17 Si79 O240 F48'
_cell_volume   6044.56426514
_cell_formula_units_Z   1
loop_
 _symmetry_equiv_pos_site_id
 _symmetry_equiv_pos_as_xyz
  1  'x, y, z'
loop_
 _atom_site_type_symbol
 _atom_site_label
 _atom_site_symmetry_multiplicity
 _atom_site_fract_x
 _atom_site_fract_y
 _atom_site_fract_z
 _atom_site_occupancy
  K  K0  1  0.00295325  0.00112165  -0.01430830  1
  K  K1  1  -0.00495509  0.00300261  0.50191053  1
  K  K2  1  0.00622005  0.49871532  -0.00880465  1
  K  K3  1  0.00112476  0.50108211  0.50245046  1
  K  K4  1  0.31712160  0.00633651  -0.00783450  1
  K  K5  1  0.33461691  0.00235340  0.50248175  1
  K  K6  1  0.32621609  0.50006945  -0.01173019  1
  K  K7  1  0.33223958  0.50400320  0.50780903  1
  K  K8  1  0.66752094  0.00450662  -0.00396122  1
  K  K9  1  0.67794246  -0.00047079  0.51020847  1
  K  K10  1  0.66571317  0.49884186  -0.01000405  1
  K  K11  1  0.67521160  0.49112981  0.50841772  1
  K  K12  1  0.17113993  0.24441401  -0.00251457  1
  K  K13  1  0.17466159  0.24412529  0.50295300  1
  K  K14  1  0.15711331  0.75590873  -0.01313573  1
  K  K15  1  0.16987849  0.74889844  0.50820212  1
  K  K16  1  0.49392575  0.23686778  -0.00358047  1
  K  K17  1  0.50248960  0.24736065  0.50554781  1
  K  K18  1  0.49404633  0.75127604  -0.00680252  1
  K  K19  1  0.49520241  0.76431737  0.50812576  1
  K  K20  1  0.83639112  0.24449663  0.00505512  1
  K  K21  1  0.83313164  0.24708395  0.50042952  1
  K  K22  1  0.83098462  0.75199250  -0.00740589  1
  K  K23  1  0.83059476  0.75590178  0.50771177  1
  Na  Na24  1  0.83506251  -0.00231004  0.74675526  1
  Na  Na25  1  0.66889471  0.92175241  0.74325461  1
  Na  Na26  1  0.83867996  0.17109659  0.25625995  1
  Li  Li27  1  0.00374051  0.25061406  0.26226462  1
  Li  Li28  1  0.16558939  0.49859655  0.24866889  1
  Li  Li29  1  0.66783385  0.41648817  0.74716025  1
  Li  Li30  1  -0.00008564  0.92259058  0.75462770  1
  Li  Li31  1  0.49987859  0.83793075  0.25577732  1
  Mg  Mg32  1  0.33769334  0.75183752  0.25072582  1
  Mg  Mg33  1  0.83545676  0.49700193  0.24974880  1
  Mg  Mg34  1  0.50231098  0.50088613  0.75158903  1
  Mg  Mg35  1  0.33060595  0.24984814  0.24427585  1
  Mg  Mg36  1  0.00002051  0.75403624  0.75601441  1
  Mg  Mg37  1  0.16362320  0.00110157  0.75260630  1
  Mg  Mg38  1  0.66456267  0.75002066  0.24939422  1
  Mg  Mg39  1  0.33376998  0.74998508  0.75151935  1
  Mg  Mg40  1  0.50168294  0.00170494  0.74882375  1
  Mg  Mg41  1  0.16632784  0.50036234  0.75082531  1
  Mg  Mg42  1  0.49947487  0.49954108  0.24575311  1
  Mg  Mg43  1  0.83069469  0.49780610  0.74871608  1
  Mg  Mg44  1  0.66573202  0.24916218  0.24897126  1
  Mg  Mg45  1  0.16547574  -0.00195109  0.25194373  1
  Mg  Mg46  1  0.49778384  -0.00225228  0.24880830  1
  Mg  Mg47  1  0.00050966  0.25120866  0.74932550  1
  Mg  Mg48  1  0.66866185  0.25284249  0.74738198  1
  Mg  Mg49  1  0.83250898  0.00183345  0.25469748  1
  Mg  Mg50  1  0.33349512  0.25104629  0.74973835  1
  Mg  Mg51  1  0.00113553  0.74898714  0.25103021  1
  Mg  Mg52  1  0.66721974  0.75177779  0.74966317  1
  Mg  Mg53  1  0.16591894  0.33549419  0.75207555  1
  Mg  Mg54  1  0.33665136  0.91485240  0.25074563  1
  Mg  Mg55  1  0.16923335  0.66462488  0.24793265  1
  Mg  Mg56  1  0.16661196  0.66577066  0.75282608  1
  Mg  Mg57  1  0.50034032  0.16710460  0.74946307  1
  Mg  Mg58  1  0.33441085  0.58557099  0.75060331  1
  Mg  Mg59  1  0.66794248  0.08357967  0.25120687  1
  Mg  Mg60  1  0.83371328  0.83346920  0.25227266  1
  Mg  Mg61  1  0.00383479  0.41394447  0.25087206  1
  Mg  Mg62  1  0.49727699  0.16489873  0.24679978  1
  Mg  Mg63  1  0.33142606  0.08480710  0.24650649  1
  Mg  Mg64  1  0.49654930  0.33399754  0.24356740  1
  Mg  Mg65  1  0.66433577  0.58197880  0.74978627  1
  Mg  Mg66  1  0.16415708  0.33606526  0.24862004  1
  Mg  Mg67  1  0.16195723  0.16710626  0.25034879  1
  Mg  Mg68  1  0.16778240  0.16616211  0.75156342  1
  Mg  Mg69  1  0.00143483  0.91557481  0.25267059  1
  Mg  Mg70  1  0.50349619  0.33603824  0.75102026  1
  Mg  Mg71  1  0.00482467  0.58067815  0.24855131  1
  Mg  Mg72  1  -0.00033101  0.58446585  0.75282671  1
  Mg  Mg73  1  0.33320696  0.41728535  0.75197171  1
  Mg  Mg74  1  0.83567870  0.66395963  0.24898443  1
  Mg  Mg75  1  0.32881107  0.41788033  0.24493983  1
  Mg  Mg76  1  0.33148328  0.91728263  0.74951921  1
  Mg  Mg77  1  0.66409149  0.91446982  0.25310484  1
  Mg  Mg78  1  0.83859412  0.33054632  0.24993454  1
  Mg  Mg79  1  0.50113771  0.66771259  0.24677667  1
  Mg  Mg80  1  -0.00007439  0.08227674  0.75326088  1
  Mg  Mg81  1  0.83174803  0.16632046  0.74865479  1
  Mg  Mg82  1  0.33229281  0.58309550  0.24651867  1
  Mg  Mg83  1  0.83463167  0.83481991  0.75166228  1
  Mg  Mg84  1  0.83048827  0.33620755  0.74767593  1
  Mg  Mg85  1  0.66775638  0.41466043  0.24799437  1
  Mg  Mg86  1  0.83109433  0.66567923  0.75126533  1
  Mg  Mg87  1  0.49800880  0.66596003  0.74964507  1
  Mg  Mg88  1  0.00084886  0.08569380  0.25427142  1
  Mg  Mg89  1  0.33116337  0.08546130  0.75049940  1
  Mg  Mg90  1  0.66817897  0.58309624  0.24784678  1
  Mg  Mg91  1  0.66773214  0.08560242  0.74658233  1
  Mg  Mg92  1  -0.00136490  0.41590798  0.75106171  1
  Mg  Mg93  1  0.16920092  0.83347708  0.25319438  1
  Mg  Mg94  1  0.16435138  0.83626977  0.75210280  1
  Mg  Mg95  1  0.50060977  0.83514581  0.74696085  1
  Fe  Fe96  1  0.47780702  0.58395595  0.89129940  1
  Fe  Fe97  1  0.69457886  0.16384889  0.60876775  1
  Fe  Fe98  1  0.35913861  0.66625481  0.60913061  1
  Fe  Fe99  1  0.98098897  0.33660581  0.39205115  1
  Fe  Fe100  1  0.98441621  0.16441077  0.39714505  1
  Fe  Fe101  1  0.80278401  0.07991080  0.39491871  1
  Fe  Fe102  1  0.14269389  0.91138487  0.39169990  1
  Fe  Fe103  1  0.18935260  0.08523221  0.61108451  1
  Fe  Fe104  1  0.13769091  0.91546443  0.89172552  1
  Fe  Fe105  1  0.68920263  0.83408002  0.60835159  1
  Fe  Fe106  1  0.35611583  0.16567402  0.10615546  1
  Fe  Fe107  1  0.02588853  0.33032541  0.61091163  1
  Fe  Fe108  1  0.31207584  0.16641578  0.89091312  1
  Fe  Fe109  1  0.14001246  0.58555185  0.89249691  1
  Fe  Fe110  1  0.47442040  0.92092395  0.39045674  1
  Fe  Fe111  1  0.19455733  0.41417625  0.61186928  1
  Fe  Fe112  1  0.85980396  0.42064506  0.60890378  1
  Si  Si113  1  0.64306361  0.16560288  0.88587351  1
  Si  Si114  1  0.85885780  0.91753024  0.11531758  1
  Si  Si115  1  0.19223088  0.58583747  0.11249829  1
  Si  Si116  1  0.18438446  0.07873517  0.11178069  1
  Si  Si117  1  0.14171794  0.41325920  0.89139401  1
  Si  Si118  1  0.02754972  0.83173567  0.61768788  1
  Si  Si119  1  0.30879456  0.67050378  0.89091840  1
  Si  Si120  1  0.02406552  0.16569997  0.11506927  1
  Si  Si121  1  0.69232244  0.16559044  0.11458685  1
  Si  Si122  1  0.48014880  0.41525458  0.88888193  1
  Si  Si123  1  0.80597788  0.91768886  0.88769770  1
  Si  Si124  1  0.19055944  0.91210967  0.11468229  1
  Si  Si125  1  0.14554277  0.42395108  0.38464710  1
  Si  Si126  1  0.69387541  0.83170891  0.11455380  1
  Si  Si127  1  0.64338841  0.83353859  0.88470628  1
  Si  Si128  1  0.63265888  0.17048774  0.38429163  1
  Si  Si129  1  0.47198290  0.41553661  0.38021138  1
  Si  Si130  1  0.80336338  0.41477202  0.38416103  1
  Si  Si131  1  0.96803409  0.16934045  0.88720850  1
  Si  Si132  1  0.86535910  0.91212165  0.61473469  1
  Si  Si133  1  0.51632643  0.92237937  0.61265740  1
  Si  Si134  1  0.97038133  0.82783219  0.38748918  1
  Si  Si135  1  0.18773159  0.91631741  0.61407795  1
  Si  Si136  1  0.02276930  0.83104542  0.11455967  1
  Si  Si137  1  0.30609417  0.33579341  0.38115010  1
  Si  Si138  1  0.81040896  0.58038155  0.38357473  1
  Si  Si139  1  0.80494509  0.41505151  0.88594419  1
  Si  Si140  1  0.63917027  0.82697244  0.38590512  1
  Si  Si141  1  0.86731473  0.08053812  0.61558210  1
  Si  Si142  1  0.64377254  0.66223111  0.38349438  1
  Si  Si143  1  0.53031822  0.41673341  0.61776952  1
  Si  Si144  1  0.14946744  0.07837748  0.38814123  1
  Si  Si145  1  0.85895903  0.41397290  0.11279592  1
  Si  Si146  1  0.69574825  0.66581179  0.11299183  1
  Si  Si147  1  0.52983796  0.07882635  0.11044911  1
  Si  Si148  1  0.86040337  0.08208889  0.11638685  1
  Si  Si149  1  0.35387456  0.83705296  0.61230141  1
  Si  Si150  1  0.52750386  0.91313522  0.11453153  1
  Si  Si151  1  0.31459079  0.66582680  0.38251081  1
  Si  Si152  1  0.02291408  0.67008694  0.61792311  1
  Si  Si153  1  0.36220715  0.16999205  0.61278449  1
  Si  Si154  1  0.53015041  0.58045868  0.61205998  1
  Si  Si155  1  0.02190001  0.16652916  0.61682946  1
  Si  Si156  1  0.80573466  0.08381645  0.88619052  1
  Si  Si157  1  0.47666934  0.58029243  0.38136541  1
  Si  Si158  1  0.69169362  0.33196554  0.11203484  1
  Si  Si159  1  0.52333249  0.08496182  0.61251877  1
  Si  Si160  1  0.31293279  0.33567692  0.88921802  1
  Si  Si161  1  0.68914757  0.66583555  0.61448364  1
  Si  Si162  1  0.47130343  0.09053943  0.38482262  1
  Si  Si163  1  0.85616730  0.58954556  0.61517086  1
  Si  Si164  1  0.48028248  0.91494455  0.88442601  1
  Si  Si165  1  0.52762392  0.58504214  0.11180173  1
  Si  Si166  1  0.48025779  0.07927814  0.88661817  1
  Si  Si167  1  0.02429031  0.66595394  0.11278425  1
  Si  Si168  1  0.96553386  0.83047482  0.89306586  1
  Si  Si169  1  0.63662819  0.33524514  0.38040175  1
  Si  Si170  1  0.14821807  0.58684509  0.38233133  1
  Si  Si171  1  0.36686765  0.33632951  0.61471234  1
  Si  Si172  1  0.64163499  0.32862141  0.88556909  1
  Si  Si173  1  0.35592939  0.34025853  0.10751948  1
  Si  Si174  1  0.80594757  0.90803723  0.38820287  1
  Si  Si175  1  0.35806105  0.83307941  0.11354076  1
  Si  Si176  1  0.52702037  0.41868565  0.11000128  1
  Si  Si177  1  0.86012115  0.57972956  0.11245240  1
  Si  Si178  1  0.69107269  0.33273056  0.61017057  1
  Si  Si179  1  0.18541880  0.58405684  0.61221413  1
  Si  Si180  1  0.35922019  0.66669142  0.11140818  1
  Si  Si181  1  0.30815519  0.82807800  0.38849651  1
  Si  Si182  1  0.13629418  0.08858430  0.89236675  1
  Si  Si183  1  0.31407951  0.83596389  0.88803973  1
  Si  Si184  1  0.97137272  0.33355845  0.88854996  1
  Si  Si185  1  0.30383421  0.17062387  0.38173694  1
  Si  Si186  1  0.64289195  0.67119441  0.88759742  1
  Si  Si187  1  0.80152125  0.57998821  0.88577603  1
  Si  Si188  1  0.18893796  0.41953954  0.11160211  1
  Si  Si189  1  0.97861006  0.66179883  0.38427009  1
  Si  Si190  1  0.96579623  0.66494284  0.89156994  1
  Si  Si191  1  0.02677700  0.33311642  0.11332831  1
  O  O192  1  0.25674410  0.11334938  0.07609472  1
  O  O193  1  0.28538499  0.11977620  0.57799128  1
  O  O194  1  0.27140737  0.62261089  0.08196003  1
  O  O195  1  0.26217790  0.61190106  0.57592995  1
  O  O196  1  0.60920022  0.11812405  0.08104336  1
  O  O197  1  0.60169126  0.10392526  0.57629367  1
  O  O198  1  0.60491949  0.62686790  0.08382336  1
  O  O199  1  0.62034489  0.60082864  0.58755413  1
  O  O200  1  0.93260464  0.12665151  0.08436641  1
  O  O201  1  0.95644288  0.09994446  0.59015976  1
  O  O202  1  0.93806641  0.61944099  0.08344482  1
  O  O203  1  0.94013075  0.62103704  0.58756410  1
  O  O204  1  0.10161156  0.37486758  0.08029390  1
  O  O205  1  0.12422900  0.34124338  0.57730322  1
  O  O206  1  0.10404324  0.86495542  0.08659133  1
  O  O207  1  0.11320360  0.85560619  0.58913015  1
  O  O208  1  0.43485130  0.38340497  0.08089645  1
  O  O209  1  0.45509309  0.35941014  0.58823648  1
  O  O210  1  0.43651707  0.87297282  0.08498435  1
  O  O211  1  0.43368532  0.87198357  0.58276449  1
  O  O212  1  0.76878797  0.37306249  0.08233826  1
  O  O213  1  0.76751716  0.36126182  0.57449441  1
  O  O214  1  0.76942779  0.87494282  0.08542861  1
  O  O215  1  0.78549332  0.86632073  0.57494879  1
  O  O216  1  0.26942267  0.38787419  0.08022542  1
  O  O217  1  0.29663749  0.39256927  0.58027036  1
  O  O218  1  0.26867892  0.87524394  0.08324243  1
  O  O219  1  0.27244789  0.88948921  0.58559200  1
  O  O220  1  0.60285500  0.37550259  0.08117328  1
  O  O221  1  0.61274855  0.39186377  0.58707738  1
  O  O222  1  0.60168957  0.86722809  0.08437365  1
  O  O223  1  0.59545020  0.89605232  0.57986166  1
  O  O224  1  0.93545057  0.37358395  0.08271170  1
  O  O225  1  0.95358422  0.40167556  0.57258719  1
  O  O226  1  0.93576807  0.87633638  0.08561672  1
  O  O227  1  0.95045385  0.88486089  0.58436595  1
  O  O228  1  0.09488085  0.12104934  0.08184148  1
  O  O229  1  0.10567967  0.15353958  0.58407088  1
  O  O230  1  0.10477069  0.63141029  0.08400747  1
  O  O231  1  0.10466101  0.64062548  0.58834215  1
  O  O232  1  0.44551536  0.11926184  0.07465043  1
  O  O233  1  0.44766720  0.14341902  0.58514355  1
  O  O234  1  0.43825029  0.62655828  0.08333485  1
  O  O235  1  0.45492873  0.63180579  0.57534394  1
  O  O236  1  0.77211108  0.12630996  0.08757591  1
  O  O237  1  0.79018319  0.12943396  0.57707387  1
  O  O238  1  0.77125903  0.62303923  0.08322382  1
  O  O239  1  0.77950570  0.64765796  0.58967221  1
  O  O240  1  0.06972957  0.09394262  0.42371586  1
  O  O241  1  0.05499141  0.12834246  0.91945689  1
  O  O242  1  0.06498519  0.61595033  0.41301425  1
  O  O243  1  0.04983086  0.62495878  0.92906079  1
  O  O244  1  0.38570709  0.12079192  0.41103190  1
  O  O245  1  0.40521460  0.10581167  0.92341490  1
  O  O246  1  0.39460724  0.61155895  0.40993585  1
  O  O247  1  0.38406689  0.61709589  0.92563117  1
  O  O248  1  0.70093792  0.11461313  0.42077755  1
  O  O249  1  0.72838543  0.12023225  0.91926615  1
  O  O250  1  0.73008024  0.61607980  0.41177852  1
  O  O251  1  0.72527963  0.61910486  0.91637692  1
  O  O252  1  0.22917855  0.37216555  0.41191441  1
  O  O253  1  0.22923740  0.36687102  0.91768206  1
  O  O254  1  0.22036251  0.83623749  0.41653113  1
  O  O255  1  0.24081535  0.86601294  0.92539192  1
  O  O256  1  0.55375456  0.36553342  0.40961798  1
  O  O257  1  0.55994871  0.35920717  0.91604243  1
  O  O258  1  0.56148643  0.85359449  0.41934679  1
  O  O259  1  0.56134095  0.86335957  0.91581736  1
  O  O260  1  0.87711919  0.36379941  0.41937517  1
  O  O261  1  0.89584935  0.37665653  0.91910192  1
  O  O262  1  0.88017986  0.84630672  0.41074599  1
  O  O263  1  0.88882307  0.87164410  0.92484921  1
  O  O264  1  0.06658395  0.40694523  0.42018927  1
  O  O265  1  0.06282996  0.37100360  0.91960802  1
  O  O266  1  0.04284441  0.88154152  0.42241827  1
  O  O267  1  0.05281707  0.86698113  0.92941801  1
  O  O268  1  0.39154084  0.38349589  0.40983944  1
  O  O269  1  0.39405188  0.38963747  0.91646764  1
  O  O270  1  0.37858214  0.88499540  0.42231973  1
  O  O271  1  0.40026307  0.88464406  0.91596837  1
  O  O272  1  0.71304278  0.39154507  0.40749547  1
  O  O273  1  0.72787713  0.37516027  0.91675093  1
  O  O274  1  0.72379582  0.87405034  0.41529414  1
  O  O275  1  0.72271078  0.88635296  0.91719918  1
  O  O276  1  0.22300155  0.14155529  0.41174042  1
  O  O277  1  0.21793292  0.13599597  0.92548798  1
  O  O278  1  0.22969665  0.63928826  0.41078947  1
  O  O279  1  0.22659696  0.65130197  0.92413055  1
  O  O280  1  0.54063694  0.15560147  0.40714310  1
  O  O281  1  0.56556762  0.12787107  0.91632833  1
  O  O282  1  0.56337264  0.62505627  0.41097216  1
  O  O283  1  0.56783322  0.64672110  0.92571477  1
  O  O284  1  0.88843020  0.14057615  0.43148140  1
  O  O285  1  0.89186267  0.12887661  0.91836643  1
  O  O286  1  0.89789958  0.62498362  0.41201982  1
  O  O287  1  0.88715020  0.62291772  0.91877778  1
  O  O288  1  0.17145097  -0.00631524  0.08581314  1
  O  O289  1  0.15802936  -0.00815942  0.57886684  1
  O  O290  1  0.17598731  0.50341522  0.08380639  1
  O  O291  1  0.15425786  0.50627928  0.58168258  1
  O  O292  1  0.52820917  -0.00561468  0.08263491  1
  O  O293  1  0.48721778  0.00464395  0.58764853  1
  O  O294  1  0.52542861  0.50248340  0.08255458  1
  O  O295  1  0.50579722  0.49724192  0.58588173  1
  O  O296  1  0.84976514  -0.00063304  0.08365880  1
  O  O297  1  0.84854066  -0.00348039  0.59099254  1
  O  O298  1  0.85045190  0.49748249  0.08221013  1
  O  O299  1  0.82796536  0.51524603  0.57796362  1
  O  O300  1  0.01887708  0.24937483  0.08508107  1
  O  O301  1  -0.02562855  0.24058027  0.59017858  1
  O  O302  1  0.00824686  0.74853755  0.08403038  1
  O  O303  1  0.00265253  0.75070557  0.58587206  1
  O  O304  1  0.34573037  0.26187620  0.07415382  1
  O  O305  1  0.34626321  0.25389889  0.58609890  1
  O  O306  1  0.35210483  0.74977196  0.08273251  1
  O  O307  1  0.33457007  0.75988602  0.57631406  1
  O  O308  1  0.68391007  0.24878792  0.08286608  1
  O  O309  1  0.65848068  0.25595907  0.57652116  1
  O  O310  1  0.69362866  0.74872017  0.08466695  1
  O  O311  1  0.65483735  0.73958813  0.57761582  1
  O  O312  1  0.19140518  0.00147767  0.41491171  1
  O  O313  1  0.14476744  0.00950634  0.92725063  1
  O  O314  1  0.17704913  0.50680812  0.40980260  1
  O  O315  1  0.15384963  0.49065025  0.92866158  1
  O  O316  1  0.50018152  0.01602049  0.42219372  1
  O  O317  1  0.50594368  -0.00383983  0.91273821  1
  O  O318  1  0.49130352  0.49753301  0.40931607  1
  O  O319  1  0.50842674  0.49096018  0.92487867  1
  O  O320  1  0.83070947  -0.01685370  0.42470416  1
  O  O321  1  0.81746307  0.00140899  0.91677366  1
  O  O322  1  0.82095599  0.49875434  0.41206637  1
  O  O323  1  0.80907275  0.49768932  0.91690537  1
  O  O324  1  0.32333702  0.25363623  0.40989060  1
  O  O325  1  0.33849110  0.25946317  0.92461982  1
  O  O326  1  0.34370659  0.74505799  0.41092882  1
  O  O327  1  0.34002134  0.75358999  0.91432302  1
  O  O328  1  0.65756292  0.25447678  0.40930652  1
  O  O329  1  0.65818307  0.24714989  0.91797497  1
  O  O330  1  0.66095912  0.74290950  0.41266064  1
  O  O331  1  0.67046109  0.75327748  0.91618750  1
  O  O332  1  1.02360392  0.25266236  0.43077545  1
  O  O333  1  0.97236273  0.25145986  0.91944089  1
  O  O334  1  0.99220790  0.74356830  0.41323795  1
  O  O335  1  0.96300894  0.74683993  0.92240134  1
  O  O336  1  0.20551679  0.08173955  0.19254207  1
  O  O337  1  0.21086050  0.08230554  0.70276024  1
  O  O338  1  0.21289817  0.58782981  0.19200041  1
  O  O339  1  0.20961303  0.58564802  0.69380239  1
  O  O340  1  0.54360092  0.08107295  0.19137228  1
  O  O341  1  0.54103762  0.08711583  0.69371677  1
  O  O342  1  0.54505669  0.58301121  0.19223542  1
  O  O343  1  0.54394286  0.58371798  0.69296056  1
  O  O344  1  0.88149566  0.07471061  0.19484558  1
  O  O345  1  0.88240127  0.09178034  0.69505700  1
  O  O346  1  0.87703621  0.58227346  0.19279006  1
  O  O347  1  0.87577157  0.58522828  0.69640286  1
  O  O348  1  0.04752175  0.33903323  0.19203646  1
  O  O349  1  0.04546624  0.33501979  0.70422050  1
  O  O350  1  0.04026213  0.82969359  0.19463427  1
  O  O351  1  0.04582265  0.82740014  0.69708828  1
  O  O352  1  0.37489643  0.33824125  0.18871566  1
  O  O353  1  0.38022007  0.33531372  0.69599414  1
  O  O354  1  0.37167095  0.83126246  0.19289323  1
  O  O355  1  0.37357227  0.83434500  0.69362766  1
  O  O356  1  0.70565362  0.33523509  0.19175727  1
  O  O357  1  0.71158061  0.33155656  0.69106135  1
  O  O358  1  0.71164668  0.83062825  0.19476384  1
  O  O359  1  0.71735881  0.82425856  0.69772459  1
  O  O360  1  0.21000620  0.41591308  0.19111399  1
  O  O361  1  0.21287997  0.41760621  0.70476546  1
  O  O362  1  0.21124712  0.91230115  0.19479013  1
  O  O363  1  0.21008425  0.91683510  0.69501145  1
  O  O364  1  0.54394005  0.41822830  0.19066570  1
  O  O365  1  0.54269907  0.41838251  0.69758804  1
  O  O366  1  0.54672513  0.91549126  0.19383302  1
  O  O367  1  0.53085936  0.91878677  0.69264986  1
  O  O368  1  0.87487918  0.41907146  0.19240638  1
  O  O369  1  0.87816036  0.41802681  0.70152271  1
  O  O370  1  0.87635872  0.91397074  0.19555845  1
  O  O371  1  0.88275609  0.90385823  0.69350510  1
  O  O372  1  0.04517264  0.16258223  0.19408155  1
  O  O373  1  0.04465913  0.16704175  0.69881253  1
  O  O374  1  0.04207526  0.66582908  0.19305779  1
  O  O375  1  0.04039912  0.66904661  0.69838381  1
  O  O376  1  0.37680938  0.16732859  0.19774840  1
  O  O377  1  0.37894408  0.16840925  0.69391288  1
  O  O378  1  0.37771856  0.66540926  0.19175391  1
  O  O379  1  0.37651794  0.66873051  0.70063140  1
  O  O380  1  0.69958015  0.16767931  0.19320924  1
  O  O381  1  0.71138131  0.17032232  0.70027489  1
  O  O382  1  0.71332204  0.66412332  0.19331926  1
  O  O383  1  0.70708900  0.66503544  0.69579217  1
  O  O384  1  0.12776528  0.08101267  0.30617664  1
  O  O385  1  0.12282184  0.08746088  0.81169495  1
  O  O386  1  0.12400432  0.58864951  0.30254936  1
  O  O387  1  0.12138151  0.58375684  0.80108118  1
  O  O388  1  0.45469946  0.08431686  0.30349332  1
  O  O389  1  0.45854961  0.08415465  0.80608839  1
  O  O390  1  0.45917610  0.58223585  0.30062849  1
  O  O391  1  0.45727824  0.58341976  0.80021754  1
  O  O392  1  0.78203832  0.07574189  0.30345061  1
  O  O393  1  0.78564528  0.08982116  0.80772785  1
  O  O394  1  0.79157939  0.58247888  0.30259469  1
  O  O395  1  0.78746420  0.58159585  0.80588751  1
  O  O396  1  0.29067671  0.33567518  0.30049186  1
  O  O397  1  0.29416218  0.33422822  0.80859868  1
  O  O398  1  0.29192367  0.83069600  0.30632826  1
  O  O399  1  0.29307188  0.83583349  0.80706558  1
  O  O400  1  0.61695980  0.33590595  0.29960668  1
  O  O401  1  0.62371175  0.32951996  0.80628768  1
  O  O402  1  0.62610458  0.82841924  0.30511254  1
  O  O403  1  0.61928923  0.82910253  0.80591548  1
  O  O404  1  0.95527591  0.33777736  0.29997883  1
  O  O405  1  0.95455638  0.33379182  0.80907228  1
  O  O406  1  0.95613366  0.82880442  0.30570168  1
  O  O407  1  0.95225845  0.82780518  0.81356493  1
  O  O408  1  0.12549262  0.41842698  0.30433922  1
  O  O409  1  0.12211012  0.41791946  0.81128809  1
  O  O410  1  0.12100634  0.91308924  0.29900959  1
  O  O411  1  0.12585831  0.91676602  0.80210225  1
  O  O412  1  0.45523049  0.41736597  0.29943215  1
  O  O413  1  0.46030551  0.41630430  0.80810755  1
  O  O414  1  0.45367902  0.91949966  0.29934637  1
  O  O415  1  0.45859007  0.91586524  0.80438226  1
  O  O416  1  0.78766204  0.41840784  0.30272561  1
  O  O417  1  0.79065947  0.41600679  0.80697358  1
  O  O418  1  0.78871693  0.91167615  0.30643624  1
  O  O419  1  0.79450844  0.91035485  0.81018808  1
  O  O420  1  0.28704429  0.16903364  0.30110714  1
  O  O421  1  0.29231575  0.16901873  0.80007992  1
  O  O422  1  0.29394050  0.66510012  0.30182850  1
  O  O423  1  0.28989285  0.66748660  0.80952644  1
  O  O424  1  0.61850664  0.16865647  0.30275132  1
  O  O425  1  0.62298955  0.16872031  0.80621266  1
  O  O426  1  0.62529177  0.66241557  0.30260305  1
  O  O427  1  0.62313274  0.66775675  0.80703440  1
  O  O428  1  0.97057241  0.16576915  0.30722014  1
  O  O429  1  0.95334818  0.17034283  0.80753558  1
  O  O430  1  0.95821278  0.66299942  0.30328883  1
  O  O431  1  0.95399819  0.66480925  0.81100184  1
  F  F432  1  0.04366389  -0.00132722  0.20176711  1
  F  F433  1  0.04689158  0.00570468  0.70355964  1
  F  F434  1  0.03990449  0.50033721  0.19841850  1
  F  F435  1  0.04292388  0.50058886  0.70488773  1
  F  F436  1  0.37607746  0.00085917  0.19704099  1
  F  F437  1  0.37802228  0.00165447  0.70475628  1
  F  F438  1  0.37989164  0.50149660  0.19580911  1
  F  F439  1  0.37892375  0.49888840  0.70352023  1
  F  F440  1  0.71111776  -0.00600022  0.20047134  1
  F  F441  1  0.70353469  0.01457611  0.68881809  1
  F  F442  1  0.71231374  0.50054409  0.19891813  1
  F  F443  1  0.71212251  0.50297070  0.70243187  1
  F  F444  1  0.21022406  0.25157831  0.19736922  1
  F  F445  1  0.21254930  0.25334662  0.70459057  1
  F  F446  1  0.21302836  0.74962574  0.20172802  1
  F  F447  1  0.21178173  0.75051472  0.70686028  1
  F  F448  1  0.54283455  0.25107874  0.19757670  1
  F  F449  1  0.54501521  0.25149886  0.70286200  1
  F  F450  1  0.55144928  0.74037723  0.19476127  1
  F  F451  1  0.54393365  0.74934905  0.70184671  1
  F  F452  1  0.86375588  0.26129920  0.18533553  1
  F  F453  1  0.87837758  0.25232767  0.70542094  1
  F  F454  1  0.87892592  0.74815603  0.20108429  1
  F  F455  1  0.88113384  0.74589092  0.70725937  1
  F  F456  1  0.28834667  0.00022300  0.29323004  1
  F  F457  1  0.29125639  -0.00122725  0.80160515  1
  F  F458  1  0.29632502  0.50097317  0.29534156  1
  F  F459  1  0.29032145  0.50347910  0.80127749  1
  F  F460  1  0.61848474  -0.00070678  0.29596514  1
  F  F461  1  0.61730693  0.01125872  0.80060743  1
  F  F462  1  0.62078222  0.50003079  0.29435261  1
  F  F463  1  0.62035210  0.50569690  0.80252571  1
  F  F464  1  0.95462787  -0.00412447  0.29899779  1
  F  F465  1  0.96569945  0.00636327  0.80990746  1
  F  F466  1  0.95427400  0.50255869  0.29711747  1
  F  F467  1  0.95314921  0.50231398  0.80219445  1
  F  F468  1  0.13056352  0.25309111  0.29734124  1
  F  F469  1  0.12309397  0.25003929  0.80238829  1
  F  F470  1  0.12149764  0.74649050  0.29580221  1
  F  F471  1  0.12206391  0.74984043  0.80264895  1
  F  F472  1  0.45238247  0.25504825  0.29342100  1
  F  F473  1  0.45646162  0.25104761  0.79825296  1
  F  F474  1  0.45649949  0.74370461  0.29612247  1
  F  F475  1  0.45593961  0.75350520  0.79867865  1
  F  F476  1  0.77794243  0.26324139  0.30024066  1
  F  F477  1  0.78867171  0.25439182  0.80095122  1
  F  F478  1  0.78821104  0.74551513  0.29590645  1
  F  F479  1  0.78713593  0.74394843  0.80291381  1
