# generated using pymatgen
data_K24Na3Li5Mg64Fe17Si79(O5F)48
_symmetry_space_group_name_H-M   'P 1'
_cell_length_a   16.08127808
_cell_length_b   18.57403959
_cell_length_c   20.53817246
_cell_angle_alpha   89.99228328
_cell_angle_beta   100.00852936
_cell_angle_gamma   90.00922688
_symmetry_Int_Tables_number   1
_chemical_formula_structural   K24Na3Li5Mg64Fe17Si79(O5F)48
_chemical_formula_sum   'K24 Na3 Li5 Mg64 Fe17 Si79 O240 F48'
_cell_volume   6041.27730705
_cell_formula_units_Z   1
loop_
 _symmetry_equiv_pos_site_id
 _symmetry_equiv_pos_as_xyz
  1  'x, y, z'
loop_
 _atom_site_type_symbol
 _atom_site_label
 _atom_site_symmetry_multiplicity
 _atom_site_fract_x
 _atom_site_fract_y
 _atom_site_fract_z
 _atom_site_occupancy
  K  K0  1  0.00057210  0.00504666  -0.00085380  1
  K  K1  1  0.00186377  0.00132991  0.50116784  1
  K  K2  1  -0.01110657  0.49922015  -0.00007987  1
  K  K3  1  0.00763628  0.49871412  0.50184933  1
  K  K4  1  0.32884781  0.00146142  0.00775041  1
  K  K5  1  0.33068458  0.00284598  0.48887761  1
  K  K6  1  0.33351187  0.49478912  -0.00333636  1
  K  K7  1  0.32611258  0.50492932  0.50117400  1
  K  K8  1  0.67691482  0.00560588  0.00621232  1
  K  K9  1  0.66773242  0.00537998  0.49567345  1
  K  K10  1  0.67875388  0.49343834  0.00183365  1
  K  K11  1  0.66967094  0.49265068  0.49473750  1
  K  K12  1  0.16506295  0.25636378  -0.00087887  1
  K  K13  1  0.17051715  0.25533611  0.49915873  1
  K  K14  1  0.16749697  0.75232895  0.00636026  1
  K  K15  1  0.16342182  0.74613464  0.49877786  1
  K  K16  1  0.50531991  0.25531722  0.00424376  1
  K  K17  1  0.50954676  0.24947786  0.49348265  1
  K  K18  1  0.50077208  0.74260186  0.00527214  1
  K  K19  1  0.50551366  0.74349639  0.49498542  1
  K  K20  1  0.83705150  0.24766301  -0.00225778  1
  K  K21  1  0.82288886  0.25251404  0.50108753  1
  K  K22  1  0.83479606  0.74424909  0.00028929  1
  K  K23  1  0.82832526  0.75074661  0.49723174  1
  Na  Na24  1  0.16593961  0.50203606  0.24682495  1
  Na  Na25  1  0.83711578  0.16687514  0.75847892  1
  Na  Na26  1  0.66975884  0.58037758  0.25602336  1
  Li  Li27  1  0.33261253  0.75020650  0.24742937  1
  Li  Li28  1  0.66929698  0.24467055  0.25515403  1
  Li  Li29  1  0.66873586  0.08616813  0.25474237  1
  Li  Li30  1  0.33011436  0.58021166  0.74605489  1
  Li  Li31  1  -0.00630075  0.08835138  0.75103558  1
  Mg  Mg32  1  0.33075945  0.25101036  0.74879465  1
  Mg  Mg33  1  0.83307137  0.49960876  0.75366138  1
  Mg  Mg34  1  -0.00239207  0.24991699  0.75121122  1
  Mg  Mg35  1  0.33440905  0.25045503  0.25069887  1
  Mg  Mg36  1  0.16947546  0.49889034  0.74925400  1
  Mg  Mg37  1  0.66658290  0.74678924  0.75242944  1
  Mg  Mg38  1  0.83668819  0.00129528  0.75519171  1
  Mg  Mg39  1  0.16324904  0.00106664  0.74758413  1
  Mg  Mg40  1  0.49582103  0.50184851  0.74563767  1
  Mg  Mg41  1  0.82892868  0.00061429  0.25147064  1
  Mg  Mg42  1  0.50079764  -0.00070492  0.25261951  1
  Mg  Mg43  1  0.50027353  -0.00004669  0.75088015  1
  Mg  Mg44  1  -0.00003758  0.75143440  0.25014596  1
  Mg  Mg45  1  0.00185132  0.75080446  0.74868166  1
  Mg  Mg46  1  0.66512347  0.75081097  0.25356607  1
  Mg  Mg47  1  0.50315569  0.49852191  0.25021735  1
  Mg  Mg48  1  0.83352709  0.49775575  0.25064460  1
  Mg  Mg49  1  0.16671005  -0.00130539  0.24854090  1
  Mg  Mg50  1  -0.00069198  0.25114796  0.24732730  1
  Mg  Mg51  1  0.33323789  0.74896933  0.74703910  1
  Mg  Mg52  1  0.66855405  0.25075297  0.75178839  1
  Mg  Mg53  1  0.49575951  0.66352190  0.74840216  1
  Mg  Mg54  1  0.66949389  0.91555125  0.75517773  1
  Mg  Mg55  1  0.16758096  0.83513177  0.24597308  1
  Mg  Mg56  1  0.67028383  0.41065313  0.25150886  1
  Mg  Mg57  1  0.50047581  0.16624144  0.75114706  1
  Mg  Mg58  1  0.83473273  0.83379897  0.75210065  1
  Mg  Mg59  1  0.66604107  0.41554214  0.75044120  1
  Mg  Mg60  1  0.83400346  0.33334924  0.75324751  1
  Mg  Mg61  1  0.00026077  0.08423961  0.25091509  1
  Mg  Mg62  1  0.82871281  0.16632967  0.25102361  1
  Mg  Mg63  1  0.49853428  0.83182869  0.25000755  1
  Mg  Mg64  1  0.83128877  0.33256630  0.24970416  1
  Mg  Mg65  1  -0.00136972  0.58449086  0.24811619  1
  Mg  Mg66  1  0.33538287  0.41771267  0.25083550  1
  Mg  Mg67  1  0.50035911  0.66683262  0.24938523  1
  Mg  Mg68  1  0.50050956  0.83296060  0.75101413  1
  Mg  Mg69  1  0.66470818  0.58274729  0.75091592  1
  Mg  Mg70  1  0.66709744  0.91863302  0.25236798  1
  Mg  Mg71  1  0.16866249  0.66506265  0.74731584  1
  Mg  Mg72  1  0.33248236  0.91672908  0.74844619  1
  Mg  Mg73  1  0.33429408  0.08455722  0.25060213  1
  Mg  Mg74  1  0.16361211  0.33639454  0.74978883  1
  Mg  Mg75  1  0.16457003  0.83464211  0.74629570  1
  Mg  Mg76  1  0.83363679  0.66445861  0.75325572  1
  Mg  Mg77  1  0.16926998  0.16613159  0.25013373  1
  Mg  Mg78  1  0.32990270  0.41790735  0.74791759  1
  Mg  Mg79  1  0.33041317  0.08464743  0.74938469  1
  Mg  Mg80  1  0.33126118  0.91196934  0.24859533  1
  Mg  Mg81  1  0.15883677  0.16605782  0.74829607  1
  Mg  Mg82  1  0.83246069  0.83588103  0.25347755  1
  Mg  Mg83  1  0.66912959  0.08378430  0.75327376  1
  Mg  Mg84  1  0.16896744  0.66885128  0.24591590  1
  Mg  Mg85  1  -0.00081288  0.91807232  0.74716895  1
  Mg  Mg86  1  -0.00142734  0.41741097  0.24591310  1
  Mg  Mg87  1  0.49776915  0.33509475  0.74657225  1
  Mg  Mg88  1  0.00213846  0.58392797  0.75295436  1
  Mg  Mg89  1  0.33423652  0.58492887  0.24718923  1
  Mg  Mg90  1  0.00127032  0.41379854  0.74993529  1
  Mg  Mg91  1  0.16753519  0.33549378  0.24823070  1
  Mg  Mg92  1  0.83254688  0.66635247  0.25162366  1
  Mg  Mg93  1  0.00056651  0.91627507  0.24888652  1
  Mg  Mg94  1  0.50620277  0.16571739  0.25212584  1
  Mg  Mg95  1  0.50537372  0.33093917  0.24969178  1
  Fe  Fe96  1  0.64073549  0.32957408  0.38873376  1
  Fe  Fe97  1  0.81630060  0.58150757  0.39203567  1
  Fe  Fe98  1  0.02427666  0.83445880  0.60773448  1
  Fe  Fe99  1  0.80869396  0.08003480  0.89646815  1
  Fe  Fe100  1  0.19237613  0.91675931  0.10522648  1
  Fe  Fe101  1  0.14413327  0.42287415  0.89342857  1
  Fe  Fe102  1  0.63870060  0.83320989  0.39177912  1
  Fe  Fe103  1  0.02269812  0.33123805  0.60717784  1
  Fe  Fe104  1  0.31104359  0.17337690  0.39004906  1
  Fe  Fe105  1  0.13957168  0.91722264  0.38818584  1
  Fe  Fe106  1  0.69381101  0.33405540  0.61188641  1
  Fe  Fe107  1  0.80861429  0.58463961  0.89319253  1
  Fe  Fe108  1  0.19780966  0.41558790  0.60595866  1
  Fe  Fe109  1  0.81009502  0.91859082  0.39347047  1
  Fe  Fe110  1  0.52003836  0.58365712  0.60766449  1
  Fe  Fe111  1  0.85496475  0.41633691  0.10903571  1
  Fe  Fe112  1  0.97687203  0.33182956  0.89447717  1
  Si  Si113  1  0.47311179  0.58414368  0.38290978  1
  Si  Si114  1  0.18788529  0.08473625  0.61364748  1
  Si  Si115  1  0.85806828  0.08346796  0.11527601  1
  Si  Si116  1  0.98096028  0.67082300  0.38659393  1
  Si  Si117  1  0.30768774  0.34229058  0.38637021  1
  Si  Si118  1  0.80972970  0.90817365  0.89193190  1
  Si  Si119  1  0.86086345  0.42258488  0.61431188  1
  Si  Si120  1  0.14040431  0.08772581  0.38720701  1
  Si  Si121  1  0.31161066  0.83526076  0.88409784  1
  Si  Si122  1  0.19755002  0.91931846  0.61194124  1
  Si  Si123  1  0.69136900  0.67384270  0.11506512  1
  Si  Si124  1  0.30788756  0.67304519  0.88245234  1
  Si  Si125  1  0.98034986  0.83473097  0.88557207  1
  Si  Si126  1  0.69002394  0.83738137  0.11390003  1
  Si  Si127  1  0.63633451  0.16966030  0.89016827  1
  Si  Si128  1  0.36707013  0.32881911  0.61192844  1
  Si  Si129  1  0.97868500  0.33077293  0.38351465  1
  Si  Si130  1  0.97521657  0.16868618  0.38334891  1
  Si  Si131  1  0.97341281  0.83253909  0.38640644  1
  Si  Si132  1  0.36339935  0.33638232  0.11405199  1
  Si  Si133  1  0.36213436  0.66170353  0.11057823  1
  Si  Si134  1  0.02952610  0.33435272  0.11068518  1
  Si  Si135  1  0.85529610  0.58882835  0.11166395  1
  Si  Si136  1  0.98765244  0.16365990  0.89270860  1
  Si  Si137  1  0.19774196  0.41544827  0.11350804  1
  Si  Si138  1  0.14625070  0.91660341  0.88435913  1
  Si  Si139  1  0.36310361  0.82907190  0.10954426  1
  Si  Si140  1  0.69052271  0.32691384  0.11160450  1
  Si  Si141  1  0.30836034  0.16470977  0.88525541  1
  Si  Si142  1  0.81606673  0.08651791  0.38774127  1
  Si  Si143  1  0.85847783  0.58461324  0.61817760  1
  Si  Si144  1  0.52395752  0.07947940  0.61632545  1
  Si  Si145  1  0.68618396  0.16392958  0.61532512  1
  Si  Si146  1  0.36112282  0.83857979  0.61465305  1
  Si  Si147  1  0.47636332  0.07783473  0.38830421  1
  Si  Si148  1  0.47245047  0.08400275  0.88602521  1
  Si  Si149  1  0.30892079  0.32898747  0.88736191  1
  Si  Si150  1  0.02528902  0.66563833  0.11173511  1
  Si  Si151  1  0.02446591  0.16761377  0.11405356  1
  Si  Si152  1  0.63204550  0.66525594  0.89001873  1
  Si  Si153  1  0.52388732  0.91742173  0.11338124  1
  Si  Si154  1  0.63290275  0.33607540  0.88514459  1
  Si  Si155  1  0.69452218  0.66707947  0.61459828  1
  Si  Si156  1  0.30772345  0.66404871  0.38151897  1
  Si  Si157  1  0.47177373  0.42003859  0.38494215  1
  Si  Si158  1  0.02146011  0.66404693  0.61343871  1
  Si  Si159  1  0.85374352  0.07945467  0.61884515  1
  Si  Si160  1  0.19269403  0.08866350  0.11033214  1
  Si  Si161  1  0.52924038  0.41671999  0.11304977  1
  Si  Si162  1  0.46493623  0.91120453  0.38613053  1
  Si  Si163  1  0.80403024  0.41197519  0.89027800  1
  Si  Si164  1  0.64333617  0.15900294  0.38742896  1
  Si  Si165  1  0.01973116  0.83192205  0.10875119  1
  Si  Si166  1  0.81630732  0.41196815  0.39078161  1
  Si  Si167  1  0.19405811  0.58455374  0.11067608  1
  Si  Si168  1  0.52391305  0.41610686  0.61202357  1
  Si  Si169  1  0.35753945  0.16337095  0.61491461  1
  Si  Si170  1  0.63939906  0.66464431  0.38959015  1
  Si  Si171  1  0.14710999  0.08034908  0.88547673  1
  Si  Si172  1  0.52831130  0.91471046  0.61721298  1
  Si  Si173  1  0.13708926  0.41800615  0.38145201  1
  Si  Si174  1  0.52795744  0.58216354  0.11339121  1
  Si  Si175  1  0.85397742  0.91882518  0.61458928  1
  Si  Si176  1  0.98112242  0.67063616  0.88872558  1
  Si  Si177  1  0.52160474  0.08191574  0.11522445  1
  Si  Si178  1  0.14042285  0.58600065  0.38191658  1
  Si  Si179  1  0.46572444  0.58259428  0.88309688  1
  Si  Si180  1  0.30191510  0.82789809  0.38453458  1
  Si  Si181  1  0.63852420  0.83024184  0.88808909  1
  Si  Si182  1  0.14848353  0.59121762  0.88771716  1
  Si  Si183  1  0.46881164  0.41750806  0.88366402  1
  Si  Si184  1  0.01643478  0.16215951  0.61247459  1
  Si  Si185  1  0.19067514  0.58768753  0.61184404  1
  Si  Si186  1  0.47641746  0.91951706  0.88608680  1
  Si  Si187  1  0.35512112  0.67578322  0.61068643  1
  Si  Si188  1  0.68974098  0.16190379  0.11725225  1
  Si  Si189  1  0.69274121  0.83237732  0.61819100  1
  Si  Si190  1  0.85698841  0.91648177  0.11375912  1
  Si  Si191  1  0.36133531  0.17070995  0.11412521  1
  O  O192  1  0.26796333  0.13673387  0.08379757  1
  O  O193  1  0.26971168  0.11978834  0.58587390  1
  O  O194  1  0.27061822  0.62298161  0.07763216  1
  O  O195  1  0.26724794  0.63168925  0.58411137  1
  O  O196  1  0.60238275  0.11628608  0.08594207  1
  O  O197  1  0.60436231  0.10932712  0.58585758  1
  O  O198  1  0.60410046  0.62737234  0.08585341  1
  O  O199  1  0.61963355  0.61583746  0.57833420  1
  O  O200  1  0.93512092  0.12456188  0.08574960  1
  O  O201  1  0.93649829  0.10588152  0.58729594  1
  O  O202  1  0.93641315  0.62450279  0.08199388  1
  O  O203  1  0.94394885  0.60634144  0.58908791  1
  O  O204  1  0.11433637  0.36685472  0.08470668  1
  O  O205  1  0.11285183  0.35601698  0.56635087  1
  O  O206  1  0.08758153  0.87222433  0.07188910  1
  O  O207  1  0.12442486  0.86555065  0.57802680  1
  O  O208  1  0.43731056  0.37885954  0.08243111  1
  O  O209  1  0.45821232  0.34745205  0.59005663  1
  O  O210  1  0.44323694  0.86744868  0.08004098  1
  O  O211  1  0.44717282  0.86377030  0.58754537  1
  O  O212  1  0.76029808  0.36005675  0.07172595  1
  O  O213  1  0.78928109  0.36603868  0.58033224  1
  O  O214  1  0.76588088  0.87815329  0.08296363  1
  O  O215  1  0.77318685  0.86422745  0.58923017  1
  O  O216  1  0.27601266  0.37905934  0.08186373  1
  O  O217  1  0.29543250  0.38132106  0.57413181  1
  O  O218  1  0.27785938  0.86678689  0.07036927  1
  O  O219  1  0.28819383  0.89823958  0.58806075  1
  O  O220  1  0.59956616  0.36985736  0.08244947  1
  O  O221  1  0.60793511  0.40049577  0.58099668  1
  O  O222  1  0.60490207  0.88431038  0.08347126  1
  O  O223  1  0.61010896  0.88304760  0.58938799  1
  O  O224  1  0.94971540  0.38058281  0.07597116  1
  O  O225  1  0.94615073  0.40820077  0.58420949  1
  O  O226  1  0.92670762  0.87045491  0.08113635  1
  O  O227  1  0.93228723  0.89589731  0.57942039  1
  O  O228  1  0.10142072  0.12963055  0.08340989  1
  O  O229  1  0.10074520  0.12732357  0.58422989  1
  O  O230  1  0.10347145  0.62605657  0.08161105  1
  O  O231  1  0.10455160  0.63550737  0.58440761  1
  O  O232  1  0.43466102  0.12710203  0.08197695  1
  O  O233  1  0.43643844  0.12370140  0.58732845  1
  O  O234  1  0.43697091  0.61941809  0.07812125  1
  O  O235  1  0.43048748  0.64788893  0.57419767  1
  O  O236  1  0.76749669  0.12272425  0.08488184  1
  O  O237  1  0.77093155  0.13062527  0.59053419  1
  O  O238  1  0.77170317  0.64092675  0.08461068  1
  O  O239  1  0.78445392  0.64429426  0.59125775  1
  O  O240  1  0.04993896  0.11083854  0.41126713  1
  O  O241  1  0.06885639  0.10699116  0.91959272  1
  O  O242  1  0.06344953  0.61865745  0.41587373  1
  O  O243  1  0.06589302  0.62267546  0.91667031  1
  O  O244  1  0.40412440  0.11423352  0.42403655  1
  O  O245  1  0.38955969  0.11247526  0.91481813  1
  O  O246  1  0.38886556  0.61246254  0.41111992  1
  O  O247  1  0.38676582  0.61948054  0.91323093  1
  O  O248  1  0.73053152  0.11251983  0.41526142  1
  O  O249  1  0.71700069  0.12657222  0.92844662  1
  O  O250  1  0.71103858  0.60457760  0.41609176  1
  O  O251  1  0.71636017  0.62619072  0.92716803  1
  O  O252  1  0.22212391  0.37219757  0.41253768  1
  O  O253  1  0.23550435  0.35760764  0.92442400  1
  O  O254  1  0.22338911  0.84871623  0.42085515  1
  O  O255  1  0.22941574  0.86588640  0.91342350  1
  O  O256  1  0.54472895  0.36709149  0.42076228  1
  O  O257  1  0.55541297  0.37450014  0.91570198  1
  O  O258  1  0.53734723  0.85770908  0.42173423  1
  O  O259  1  0.56424213  0.87691093  0.91610996  1
  O  O260  1  0.89567173  0.35356497  0.41393908  1
  O  O261  1  0.87332826  0.35314435  0.92157640  1
  O  O262  1  0.88706193  0.84180969  0.41600383  1
  O  O263  1  0.89846470  0.86219236  0.91707376  1
  O  O264  1  0.05752910  0.38526077  0.41295660  1
  O  O265  1  0.05511259  0.39929674  0.93440246  1
  O  O266  1  0.04026674  0.89344681  0.41917712  1
  O  O267  1  0.06348914  0.88599455  0.91311812  1
  O  O268  1  0.38114117  0.40304936  0.40986274  1
  O  O269  1  0.39484141  0.37694788  0.91556639  1
  O  O270  1  0.37832227  0.88540731  0.41305280  1
  O  O271  1  0.39514150  0.88509029  0.91425944  1
  O  O272  1  0.73737281  0.38371474  0.42349543  1
  O  O273  1  0.71466428  0.38466681  0.91411176  1
  O  O274  1  0.71799617  0.89829854  0.43262902  1
  O  O275  1  0.73258556  0.86147676  0.91811075  1
  O  O276  1  0.20985985  0.14779249  0.41821450  1
  O  O277  1  0.23008374  0.13067750  0.91687192  1
  O  O278  1  0.22766301  0.63044640  0.41318817  1
  O  O279  1  0.22401093  0.65171345  0.91312730  1
  O  O280  1  0.56812103  0.11474777  0.41777755  1
  O  O281  1  0.55147516  0.13573703  0.91657663  1
  O  O282  1  0.55040951  0.63701904  0.41445705  1
  O  O283  1  0.55009418  0.62841159  0.91650344  1
  O  O284  1  0.89019811  0.14852139  0.41317231  1
  O  O285  1  0.91012905  0.12907253  0.92515527  1
  O  O286  1  0.90418363  0.64861125  0.42364965  1
  O  O287  1  0.90435229  0.64367490  0.92393605  1
  O  O288  1  0.18939000  0.01246000  0.07201985  1
  O  O289  1  0.17789724  0.00225546  0.58488256  1
  O  O290  1  0.18584667  0.49946991  0.08571834  1
  O  O291  1  0.18029814  0.51147380  0.57366753  1
  O  O292  1  0.50761692  -0.00020627  0.08280561  1
  O  O293  1  0.50714669  -0.00366375  0.58872833  1
  O  O294  1  0.52807260  0.49948337  0.08252184  1
  O  O295  1  0.48110179  0.49095168  0.58115074  1
  O  O296  1  0.85310270  0.00024461  0.08548570  1
  O  O297  1  0.82385042  -0.00045298  0.58719050  1
  O  O298  1  0.83531598  0.51159457  0.07693007  1
  O  O299  1  0.82653759  0.50553833  0.58999030  1
  O  O300  1  0.01671334  0.24966782  0.08464789  1
  O  O301  1  -0.00935731  0.23706914  0.57453066  1
  O  O302  1  0.01372714  0.74760726  0.08073224  1
  O  O303  1  -0.00640517  0.74058418  0.57892112  1
  O  O304  1  0.35959024  0.25359037  0.08417948  1
  O  O305  1  0.34631516  0.24469026  0.58565151  1
  O  O306  1  0.36133097  0.74448986  0.08145256  1
  O  O307  1  0.33224922  0.75999887  0.58411769  1
  O  O308  1  0.67290079  0.24262069  0.08426462  1
  O  O309  1  0.66417143  0.24034572  0.57934649  1
  O  O310  1  0.67573408  0.75568925  0.08147157  1
  O  O311  1  0.67366255  0.75115896  0.58891094  1
  O  O312  1  0.17016811  0.01052546  0.42030183  1
  O  O313  1  0.16978933  -0.00262508  0.91416924  1
  O  O314  1  0.15361457  0.50169468  0.40743575  1
  O  O315  1  0.18084771  0.51707920  0.92378605  1
  O  O316  1  0.48440351  -0.00630943  0.41477625  1
  O  O317  1  0.49052404  0.00170869  0.91517095  1
  O  O318  1  0.49501910  0.50292741  0.41155119  1
  O  O319  1  0.47507589  0.50012278  0.91355496  1
  O  O320  1  0.84969055  0.01168279  0.42323571  1
  O  O321  1  0.81678550  -0.01640297  0.93096066  1
  O  O322  1  0.85045468  0.48863704  0.42315480  1
  O  O323  1  0.82495960  0.49048487  0.92522142  1
  O  O324  1  0.33630973  0.26726413  0.42326231  1
  O  O325  1  0.33258504  0.24530043  0.91475620  1
  O  O326  1  0.33080752  0.74516169  0.41124093  1
  O  O327  1  0.33491073  0.75428876  0.91346071  1
  O  O328  1  0.65459742  0.23601715  0.42495736  1
  O  O329  1  0.64042068  0.25412918  0.91626416  1
  O  O330  1  0.66491234  0.74033278  0.42779618  1
  O  O331  1  0.63144694  0.74952457  0.91784980  1
  O  O332  1  1.00710903  0.24925742  0.41069635  1
  O  O333  1  1.01399779  0.24024436  0.92912333  1
  O  O334  1  1.01489963  0.75246077  0.40912337  1
  O  O335  1  1.00601294  0.75417173  0.91495143  1
  O  O336  1  0.20954569  0.08435476  0.19101420  1
  O  O337  1  0.20917853  0.08399758  0.69436381  1
  O  O338  1  0.21524356  0.59136302  0.18945428  1
  O  O339  1  0.20644830  0.58451532  0.69233870  1
  O  O340  1  0.53404210  0.08141619  0.19417360  1
  O  O341  1  0.54081955  0.08112528  0.69717627  1
  O  O342  1  0.53688847  0.58186928  0.19225590  1
  O  O343  1  0.54387043  0.58533659  0.69990436  1
  O  O344  1  0.87680536  0.08359640  0.19512734  1
  O  O345  1  0.87650593  0.07491191  0.69745868  1
  O  O346  1  0.87669526  0.58791051  0.19190576  1
  O  O347  1  0.87876029  0.58572109  0.69890617  1
  O  O348  1  0.04503508  0.33347838  0.19155215  1
  O  O349  1  0.04558925  0.33090653  0.69917073  1
  O  O350  1  0.03863594  0.83290390  0.18931133  1
  O  O351  1  0.04460171  0.83395649  0.69991990  1
  O  O352  1  0.37890332  0.33451388  0.19412038  1
  O  O353  1  0.37641652  0.33034729  0.69330474  1
  O  O354  1  0.37857657  0.83536828  0.18918958  1
  O  O355  1  0.37918340  0.83662767  0.69570604  1
  O  O356  1  0.71317490  0.33274681  0.19093951  1
  O  O357  1  0.71019327  0.33367395  0.70357956  1
  O  O358  1  0.70956825  0.83486700  0.19338199  1
  O  O359  1  0.70890921  0.83267543  0.69916223  1
  O  O360  1  0.21806608  0.41084292  0.19272028  1
  O  O361  1  0.21269716  0.41509980  0.69824457  1
  O  O362  1  0.21252654  0.91772002  0.19613023  1
  O  O363  1  0.21272898  0.91802385  0.69334859  1
  O  O364  1  0.54291604  0.41640161  0.19255773  1
  O  O365  1  0.54163552  0.41714607  0.69414379  1
  O  O366  1  0.53986914  0.91751604  0.19313050  1
  O  O367  1  0.54402364  0.91537707  0.69801152  1
  O  O368  1  0.87760175  0.41450234  0.20033967  1
  O  O369  1  0.87546664  0.42133261  0.69589077  1
  O  O370  1  0.87695668  0.91619640  0.19360150  1
  O  O371  1  0.87350554  0.91495199  0.69596269  1
  O  O372  1  0.04366850  0.16635501  0.19444854  1
  O  O373  1  0.04171940  0.16699894  0.69250503  1
  O  O374  1  0.04303474  0.66721822  0.19182991  1
  O  O375  1  0.04269643  0.66702431  0.69492739  1
  O  O376  1  0.37838573  0.16743164  0.19396425  1
  O  O377  1  0.37629662  0.16378431  0.69573449  1
  O  O378  1  0.37992269  0.66026209  0.18974783  1
  O  O379  1  0.37872904  0.67506948  0.69095283  1
  O  O380  1  0.71190145  0.16246057  0.19571164  1
  O  O381  1  0.69552427  0.16533611  0.69516813  1
  O  O382  1  0.71137640  0.67639225  0.19402574  1
  O  O383  1  0.70827381  0.66782196  0.69590049  1
  O  O384  1  0.12368946  0.08509478  0.30504790  1
  O  O385  1  0.13305235  0.08132927  0.80599836  1
  O  O386  1  0.11931136  0.59306848  0.30274170  1
  O  O387  1  0.12703645  0.58788603  0.80677353  1
  O  O388  1  0.45604765  0.08223902  0.30719897  1
  O  O389  1  0.45513113  0.08259321  0.80547342  1
  O  O390  1  0.45719765  0.58363706  0.30236901  1
  O  O391  1  0.45384510  0.58383094  0.80388464  1
  O  O392  1  0.79863010  0.08359901  0.30743887  1
  O  O393  1  0.78148953  0.07202319  0.80688267  1
  O  O394  1  0.80416359  0.58221093  0.30178708  1
  O  O395  1  0.78630695  0.58506816  0.80162808  1
  O  O396  1  0.28993623  0.33512345  0.30516729  1
  O  O397  1  0.29212318  0.33033905  0.80665081  1
  O  O398  1  0.28559793  0.83239871  0.30432697  1
  O  O399  1  0.29268467  0.83578359  0.80369606  1
  O  O400  1  0.62198852  0.32996201  0.29806490  1
  O  O401  1  0.61464824  0.33366300  0.80507003  1
  O  O402  1  0.61993492  0.83494879  0.29885773  1
  O  O403  1  0.62155692  0.83251838  0.80755005  1
  O  O404  1  0.96001169  0.33145931  0.30304741  1
  O  O405  1  0.95563908  0.33488319  0.80248178  1
  O  O406  1  0.95715669  0.83463904  0.30425769  1
  O  O407  1  0.95792576  0.83364411  0.80546715  1
  O  O408  1  0.11784714  0.41099398  0.30216280  1
  O  O409  1  0.12331203  0.41951661  0.80184535  1
  O  O410  1  0.11995419  0.91681491  0.29618999  1
  O  O411  1  0.12866570  0.91640075  0.80439587  1
  O  O412  1  0.45686007  0.41570936  0.30378320  1
  O  O413  1  0.45341182  0.41616310  0.80352060  1
  O  O414  1  0.45206559  0.91372473  0.30490475  1
  O  O415  1  0.45722090  0.91742591  0.80560754  1
  O  O416  1  0.79364503  0.41339341  0.30925077  1
  O  O417  1  0.78825972  0.41851434  0.80916765  1
  O  O418  1  0.78858397  0.91778372  0.30056972  1
  O  O419  1  0.78997088  0.91110111  0.81089294  1
  O  O420  1  0.28977533  0.16779921  0.29801463  1
  O  O421  1  0.29088371  0.16478119  0.80492623  1
  O  O422  1  0.28763152  0.66328184  0.30184852  1
  O  O423  1  0.28943746  0.67328467  0.80296471  1
  O  O424  1  0.62083595  0.16295708  0.30799446  1
  O  O425  1  0.61985097  0.16555208  0.80926191  1
  O  O426  1  0.61777126  0.67387053  0.30923215  1
  O  O427  1  0.62024909  0.66756773  0.80926397  1
  O  O428  1  0.95763381  0.16772658  0.30252144  1
  O  O429  1  0.97283482  0.16806650  0.81317810  1
  O  O430  1  0.95961751  0.66826614  0.30516228  1
  O  O431  1  0.95986532  0.66906476  0.80763349  1
  F  F432  1  0.04311397  0.00364106  0.19815402  1
  F  F433  1  0.04851236  -0.00488040  0.69979613  1
  F  F434  1  0.03255469  0.50216297  0.19427104  1
  F  F435  1  0.04586557  0.50432388  0.70421358  1
  F  F436  1  0.37839837  -0.00002086  0.20257128  1
  F  F437  1  0.37948528  0.00072734  0.70226606  1
  F  F438  1  0.38069247  0.49829520  0.19860753  1
  F  F439  1  0.37780200  0.49691567  0.69957974  1
  F  F440  1  0.71178267  -0.00294579  0.19781949  1
  F  F441  1  0.70729528  -0.00497554  0.70424535  1
  F  F442  1  0.71572491  0.48827388  0.19922873  1
  F  F443  1  0.71038306  0.49958635  0.70427684  1
  F  F444  1  0.21251676  0.25162142  0.19913356  1
  F  F445  1  0.21289967  0.24664097  0.70189918  1
  F  F446  1  0.20529936  0.75172175  0.19476227  1
  F  F447  1  0.21263284  0.75265712  0.69982659  1
  F  F448  1  0.53323822  0.24676603  0.19542734  1
  F  F449  1  0.54290197  0.24767900  0.70401763  1
  F  F450  1  0.54461933  0.74841445  0.19770893  1
  F  F451  1  0.54606462  0.75128675  0.70437929  1
  F  F452  1  0.87934166  0.24790300  0.19925248  1
  F  F453  1  0.87893277  0.25603519  0.70134713  1
  F  F454  1  0.87842230  0.75189885  0.20288296  1
  F  F455  1  0.87762278  0.74974336  0.70560518  1
  F  F456  1  0.28808983  0.00170236  0.29693137  1
  F  F457  1  0.28939318  -0.00046879  0.79709029  1
  F  F458  1  0.29976824  0.50193818  0.29806792  1
  F  F459  1  0.28936549  0.49905928  0.79978702  1
  F  F460  1  0.61773723  -0.00266646  0.29874579  1
  F  F461  1  0.61728671  -0.00257624  0.80166093  1
  F  F462  1  0.61702821  0.48696195  0.30093707  1
  F  F463  1  0.61753952  0.49854216  0.79948636  1
  F  F464  1  0.95475201  0.00015154  0.29457091  1
  F  F465  1  0.95515157  -0.00977399  0.80324385  1
  F  F466  1  0.95959349  0.50097884  0.29750140  1
  F  F467  1  0.95529320  0.50253361  0.80016882  1
  F  F468  1  0.12177241  0.25057195  0.29408085  1
  F  F469  1  0.12705270  0.24841300  0.79920998  1
  F  F470  1  0.12102073  0.75161209  0.29308691  1
  F  F471  1  0.12519387  0.75008749  0.79730715  1
  F  F472  1  0.45415745  0.24952767  0.29785799  1
  F  F473  1  0.45233160  0.24893103  0.79769492  1
  F  F474  1  0.45284597  0.74887075  0.29338026  1
  F  F475  1  0.45412471  0.75180955  0.79892267  1
  F  F476  1  0.79467341  0.24979641  0.29872991  1
  F  F477  1  0.78072098  0.25689524  0.80729542  1
  F  F478  1  0.78786183  0.75110291  0.29816361  1
  F  F479  1  0.78746703  0.75008553  0.80083510  1
