# generated using pymatgen
data_K24Na3Li5Mg64Fe17Si79(O5F)48
_symmetry_space_group_name_H-M   'P 1'
_cell_length_a   16.08878200
_cell_length_b   18.58238801
_cell_length_c   20.54131493
_cell_angle_alpha   89.99249744
_cell_angle_beta   100.01232846
_cell_angle_gamma   89.99759879
_symmetry_Int_Tables_number   1
_chemical_formula_structural   K24Na3Li5Mg64Fe17Si79(O5F)48
_chemical_formula_sum   'K24 Na3 Li5 Mg64 Fe17 Si79 O240 F48'
_cell_volume   6047.66740214
_cell_formula_units_Z   1
loop_
 _symmetry_equiv_pos_site_id
 _symmetry_equiv_pos_as_xyz
  1  'x, y, z'
loop_
 _atom_site_type_symbol
 _atom_site_label
 _atom_site_symmetry_multiplicity
 _atom_site_fract_x
 _atom_site_fract_y
 _atom_site_fract_z
 _atom_site_occupancy
  K  K0  1  -0.00103588  -0.00489807  -0.00353763  1
  K  K1  1  -0.00097627  0.00076877  0.50181361  1
  K  K2  1  -0.00146379  0.49273137  -0.00083601  1
  K  K3  1  -0.00698140  0.49222510  0.49776469  1
  K  K4  1  0.33592339  0.00297743  -0.00226706  1
  K  K5  1  0.33161454  0.00330039  0.50491037  1
  K  K6  1  0.34452349  0.49381153  0.00143596  1
  K  K7  1  0.34429838  0.49532542  0.50050434  1
  K  K8  1  0.66222676  0.00965814  -0.00034859  1
  K  K9  1  0.66436081  0.00521015  0.49859207  1
  K  K10  1  0.65618533  0.49717213  0.00147225  1
  K  K11  1  0.65718125  0.50168763  0.49701163  1
  K  K12  1  0.16494609  0.24720079  -0.00409773  1
  K  K13  1  0.16549706  0.25426099  0.50303002  1
  K  K14  1  0.16235361  0.75458180  -0.00019478  1
  K  K15  1  0.16376176  0.75081457  0.49828535  1
  K  K16  1  0.51022687  0.24830313  0.00420836  1
  K  K17  1  0.49889094  0.25130926  0.50367597  1
  K  K18  1  0.50329527  0.74885602  0.00065484  1
  K  K19  1  0.49741880  0.74124013  0.49884337  1
  K  K20  1  0.82355606  0.24839651  -0.00666041  1
  K  K21  1  0.83159190  0.25669284  0.49896016  1
  K  K22  1  0.82888538  0.75476941  -0.00230810  1
  K  K23  1  0.82718094  0.75200979  0.49997218  1
  Na  Na24  1  0.00416397  0.74883139  0.25692344  1
  Na  Na25  1  0.50081818  0.33060581  0.25026950  1
  Na  Na26  1  0.82990343  0.17239446  0.75891911  1
  Li  Li27  1  0.49988497  -0.00153572  0.24100944  1
  Li  Li28  1  0.66080315  0.24672125  0.74919527  1
  Li  Li29  1  0.33718374  0.08843792  0.74827952  1
  Li  Li30  1  0.16886531  0.16694382  0.25133393  1
  Li  Li31  1  0.49973883  0.16905437  0.74581796  1
  Mg  Mg32  1  0.49499037  0.00531937  0.74507942  1
  Mg  Mg33  1  0.83611434  -0.00038906  0.24809352  1
  Mg  Mg34  1  0.33688314  0.24533452  0.74786533  1
  Mg  Mg35  1  -0.00072225  0.25034943  0.75559369  1
  Mg  Mg36  1  0.16881282  0.00137118  0.74821596  1
  Mg  Mg37  1  0.16623697  0.49916191  0.25510807  1
  Mg  Mg38  1  0.66595346  0.75192028  0.24788040  1
  Mg  Mg39  1  0.83474477  0.50225831  0.25597608  1
  Mg  Mg40  1  0.33453047  0.75089609  0.24843684  1
  Mg  Mg41  1  0.83135891  0.00327448  0.75218995  1
  Mg  Mg42  1  0.49859045  0.49833565  0.74846984  1
  Mg  Mg43  1  0.83159111  0.49894369  0.75239009  1
  Mg  Mg44  1  0.16720797  0.50002408  0.75366964  1
  Mg  Mg45  1  0.33254138  0.75038451  0.74779273  1
  Mg  Mg46  1  0.00214189  0.24942811  0.25487306  1
  Mg  Mg47  1  0.17001187  0.00258139  0.24887988  1
  Mg  Mg48  1  0.66634453  0.75133811  0.74904763  1
  Mg  Mg49  1  0.33166185  0.24646339  0.24872215  1
  Mg  Mg50  1  -0.00155343  0.74889359  0.75233102  1
  Mg  Mg51  1  0.49856085  0.49835757  0.25228547  1
  Mg  Mg52  1  0.66801881  0.24864571  0.24646690  1
  Mg  Mg53  1  0.16718672  0.32937211  0.25406213  1
  Mg  Mg54  1  0.66303120  0.08760614  0.74971310  1
  Mg  Mg55  1  0.83369901  0.33479611  0.25249610  1
  Mg  Mg56  1  0.33433536  0.41340413  0.25089223  1
  Mg  Mg57  1  0.33469892  0.41339235  0.74875457  1
  Mg  Mg58  1  0.00477119  0.08523005  0.25121687  1
  Mg  Mg59  1  0.33487701  0.58372404  0.75144945  1
  Mg  Mg60  1  0.00344142  0.58460271  0.25545660  1
  Mg  Mg61  1  0.49714793  0.66571001  0.24768104  1
  Mg  Mg62  1  0.33807416  0.91731396  0.24472717  1
  Mg  Mg63  1  0.33542812  0.08263227  0.24842589  1
  Mg  Mg64  1  0.49957209  0.32728609  0.74634425  1
  Mg  Mg65  1  0.00083462  0.58223735  0.75322605  1
  Mg  Mg66  1  0.66590601  0.41588944  0.25018473  1
  Mg  Mg67  1  0.49805229  0.83677269  0.24448972  1
  Mg  Mg68  1  0.00119535  0.41443366  0.75625859  1
  Mg  Mg69  1  0.33349409  0.58314346  0.25077317  1
  Mg  Mg70  1  0.66557404  0.41199680  0.75010366  1
  Mg  Mg71  1  0.17103578  0.83452568  0.24967697  1
  Mg  Mg72  1  0.66461882  0.58510409  0.74850788  1
  Mg  Mg73  1  0.16582307  0.83501646  0.74739767  1
  Mg  Mg74  1  0.50094947  0.16295175  0.24687207  1
  Mg  Mg75  1  0.83215443  0.83613888  0.75033481  1
  Mg  Mg76  1  0.83457672  0.16512876  0.24952784  1
  Mg  Mg77  1  0.66377729  0.08313867  0.24526252  1
  Mg  Mg78  1  0.00465650  0.91549458  0.25187392  1
  Mg  Mg79  1  0.16783850  0.66548779  0.25605966  1
  Mg  Mg80  1  0.66374647  0.91822118  0.24562273  1
  Mg  Mg81  1  0.16696744  0.66540589  0.75413920  1
  Mg  Mg82  1  0.83025251  0.66554005  0.75008532  1
  Mg  Mg83  1  0.00101102  0.08520308  0.75365240  1
  Mg  Mg84  1  0.66738371  0.91921162  0.74907170  1
  Mg  Mg85  1  0.66466142  0.58485520  0.25054477  1
  Mg  Mg86  1  0.83265289  0.33167924  0.75576505  1
  Mg  Mg87  1  0.16947324  0.16328804  0.75079836  1
  Mg  Mg88  1  0.00183865  0.41457541  0.25632801  1
  Mg  Mg89  1  0.00035160  0.91622560  0.75200953  1
  Mg  Mg90  1  0.16895266  0.33326155  0.75190208  1
  Mg  Mg91  1  0.83678508  0.83310559  0.25063597  1
  Mg  Mg92  1  0.49925185  0.66522508  0.74884289  1
  Mg  Mg93  1  0.49873276  0.83639388  0.74634963  1
  Mg  Mg94  1  0.83646249  0.66759274  0.25395976  1
  Mg  Mg95  1  0.33025002  0.91999111  0.74339259  1
  Fe  Fe96  1  0.35541753  0.33221460  0.60733464  1
  Fe  Fe97  1  0.14571439  0.58470171  0.89290420  1
  Fe  Fe98  1  0.46962971  0.58175704  0.38917756  1
  Fe  Fe99  1  0.52524078  0.91569506  0.10406858  1
  Fe  Fe100  1  0.69564427  0.16634339  0.10866460  1
  Fe  Fe101  1  0.97400647  0.66544681  0.39746790  1
  Fe  Fe102  1  0.35272119  0.83115894  0.10399470  1
  Fe  Fe103  1  0.64081325  0.33081889  0.38943801  1
  Fe  Fe104  1  0.80869910  0.92090426  0.89065463  1
  Fe  Fe105  1  0.14254106  0.07949309  0.89161206  1
  Fe  Fe106  1  0.69280470  0.67024379  0.60862203  1
  Fe  Fe107  1  0.18693958  0.91371298  0.60537122  1
  Fe  Fe108  1  0.97620868  0.33595475  0.89592694  1
  Fe  Fe109  1  0.52187962  0.41919794  0.10925770  1
  Fe  Fe110  1  0.97448016  0.33294795  0.39343859  1
  Fe  Fe111  1  0.14445938  0.57990723  0.39638044  1
  Fe  Fe112  1  0.47252233  0.58229507  0.88922492  1
  Si  Si113  1  0.18804341  0.41334260  0.11703234  1
  Si  Si114  1  0.86900120  0.91256362  0.11569537  1
  Si  Si115  1  0.63603832  0.33057678  0.88274515  1
  Si  Si116  1  0.69930932  0.33918659  0.10903925  1
  Si  Si117  1  0.52249314  0.08405207  0.61111280  1
  Si  Si118  1  0.86773588  0.07910235  0.11236909  1
  Si  Si119  1  0.53014154  0.41402931  0.61218761  1
  Si  Si120  1  0.47721659  0.08060263  0.38256999  1
  Si  Si121  1  0.02473087  0.33185562  0.11820910  1
  Si  Si122  1  0.52389120  0.58102819  0.61146088  1
  Si  Si123  1  0.81050214  0.07859936  0.38459759  1
  Si  Si124  1  0.18947978  0.58832539  0.61654247  1
  Si  Si125  1  0.69624605  0.33083197  0.61681713  1
  Si  Si126  1  0.01711357  0.82771568  0.61278612  1
  Si  Si127  1  0.02244922  0.66443921  0.61786027  1
  Si  Si128  1  0.31335022  0.16280351  0.38417811  1
  Si  Si129  1  0.80930740  0.91517121  0.38451166  1
  Si  Si130  1  0.96969258  0.66080554  0.88817183  1
  Si  Si131  1  0.86035794  0.92167870  0.61457606  1
  Si  Si132  1  0.69219956  0.84072878  0.61023230  1
  Si  Si133  1  0.47669412  0.91644443  0.38320420  1
  Si  Si134  1  0.86482014  0.42222504  0.11713358  1
  Si  Si135  1  0.19002047  0.92339196  0.11079766  1
  Si  Si136  1  0.86189213  0.57913328  0.61469483  1
  Si  Si137  1  0.03422931  0.83251018  0.11617474  1
  Si  Si138  1  0.31233403  0.16637666  0.88580368  1
  Si  Si139  1  0.35246624  0.16338870  0.60939879  1
  Si  Si140  1  0.69553511  0.66786681  0.11538188  1
  Si  Si141  1  0.47034059  0.91953120  0.87991443  1
  Si  Si142  1  0.36300759  0.83098279  0.60869994  1
  Si  Si143  1  0.47546248  0.41270357  0.88541637  1
  Si  Si144  1  0.15232916  0.41623355  0.89163504  1
  Si  Si145  1  0.31150983  0.83363539  0.88079068  1
  Si  Si146  1  0.97598854  0.82752850  0.88808514  1
  Si  Si147  1  0.31170791  0.83748399  0.38418774  1
  Si  Si148  1  0.64512039  0.16151722  0.38665852  1
  Si  Si149  1  0.63614928  0.66972838  0.38455331  1
  Si  Si150  1  0.14942041  0.41260641  0.39153189  1
  Si  Si151  1  0.02568112  0.33621255  0.61845197  1
  Si  Si152  1  0.85930103  0.08602571  0.61645681  1
  Si  Si153  1  0.34953029  0.33066674  0.11217835  1
  Si  Si154  1  0.35280965  0.16650611  0.11243558  1
  Si  Si155  1  0.52391417  0.59046436  0.11142954  1
  Si  Si156  1  0.35084383  0.66350913  0.11151260  1
  Si  Si157  1  0.19004834  0.08602369  0.11616129  1
  Si  Si158  1  0.64298858  0.83407448  0.38318048  1
  Si  Si159  1  0.46775127  0.41302021  0.39038099  1
  Si  Si160  1  0.19164020  0.57753560  0.11601523  1
  Si  Si161  1  0.97908683  0.83953774  0.38936872  1
  Si  Si162  1  0.85808410  0.41454055  0.61830509  1
  Si  Si163  1  0.51905030  0.08706681  0.10735572  1
  Si  Si164  1  0.14433113  0.90824813  0.88668913  1
  Si  Si165  1  0.80124491  0.58882604  0.38835380  1
  Si  Si166  1  0.18752492  0.42277717  0.61366337  1
  Si  Si167  1  0.03183172  0.66549291  0.11646796  1
  Si  Si168  1  0.30654667  0.32657817  0.38575177  1
  Si  Si169  1  0.35760450  0.66432821  0.61301334  1
  Si  Si170  1  0.30466164  0.67291157  0.38911260  1
  Si  Si171  1  0.63868111  0.16629375  0.88248737  1
  Si  Si172  1  0.80532367  0.08664548  0.88903991  1
  Si  Si173  1  0.30733430  0.67261187  0.88784449  1
  Si  Si174  1  0.80384448  0.42278857  0.39100692  1
  Si  Si175  1  0.97624453  0.16523923  0.89238535  1
  Si  Si176  1  0.70039625  0.83441591  0.11168709  1
  Si  Si177  1  0.47550769  0.08353527  0.88021283  1
  Si  Si178  1  0.14671446  0.08262044  0.38527022  1
  Si  Si179  1  0.86336352  0.58652546  0.11666780  1
  Si  Si180  1  0.18404225  0.08433225  0.60946524  1
  Si  Si181  1  0.97841616  0.16065804  0.38978144  1
  Si  Si182  1  0.14606217  0.91944900  0.38556139  1
  Si  Si183  1  0.63804617  0.67266547  0.88651958  1
  Si  Si184  1  0.52603411  0.91941685  0.61175647  1
  Si  Si185  1  0.02750650  0.16836946  0.11794683  1
  Si  Si186  1  0.68869674  0.16495797  0.61469195  1
  Si  Si187  1  0.63554168  0.83796171  0.88418274  1
  Si  Si188  1  0.02319698  0.17134530  0.61560252  1
  Si  Si189  1  0.79969709  0.41887986  0.88984633  1
  Si  Si190  1  0.31128597  0.32924962  0.88459006  1
  Si  Si191  1  0.80025897  0.58520531  0.88657838  1
  O  O192  1  0.27132035  0.11414417  0.08405902  1
  O  O193  1  0.26678194  0.11470330  0.58000347  1
  O  O194  1  0.27618706  0.60191492  0.08672563  1
  O  O195  1  0.26756594  0.62375733  0.58497760  1
  O  O196  1  0.59369888  0.12176234  0.07248011  1
  O  O197  1  0.60037158  0.12246106  0.57936548  1
  O  O198  1  0.60558735  0.62925904  0.08445128  1
  O  O199  1  0.59148787  0.62228876  0.57525440  1
  O  O200  1  0.95077439  0.11383218  0.08590801  1
  O  O201  1  0.93373546  0.12937723  0.58542616  1
  O  O202  1  0.93918990  0.62825441  0.08635866  1
  O  O203  1  0.95046415  0.60443886  0.59031921  1
  O  O204  1  0.10420659  0.36482984  0.08736269  1
  O  O205  1  0.10021845  0.37614756  0.58680995  1
  O  O206  1  0.10742099  0.87142157  0.08210251  1
  O  O207  1  0.09293626  0.85282637  0.57608502  1
  O  O208  1  0.42563716  0.36095808  0.07791652  1
  O  O209  1  0.44940856  0.36990218  0.57501933  1
  O  O210  1  0.44333428  0.85197232  0.06388091  1
  O  O211  1  0.44604246  0.86665427  0.58236389  1
  O  O212  1  0.77911146  0.38163853  0.08277843  1
  O  O213  1  0.77651422  0.36526467  0.58632911  1
  O  O214  1  0.78660365  0.86408434  0.08624934  1
  O  O215  1  0.76945524  0.88478308  0.58381296  1
  O  O216  1  0.26440773  0.37996751  0.08328502  1
  O  O217  1  0.26072294  0.39246521  0.57678272  1
  O  O218  1  0.26578386  0.89941936  0.07397995  1
  O  O219  1  0.28062155  0.87385236  0.57236985  1
  O  O220  1  0.61584085  0.38380017  0.07609944  1
  O  O221  1  0.61385696  0.38016828  0.58579009  1
  O  O222  1  0.62455317  0.88233907  0.07339344  1
  O  O223  1  0.60799778  0.88983703  0.58215177  1
  O  O224  1  0.94361562  0.38311865  0.08931075  1
  O  O225  1  0.93862658  0.38024532  0.58955905  1
  O  O226  1  0.94552669  0.87339798  0.08556204  1
  O  O227  1  0.93302436  0.87744662  0.58386368  1
  O  O228  1  0.11211314  0.14211662  0.08949132  1
  O  O229  1  0.10034899  0.13726696  0.58239469  1
  O  O230  1  0.10795866  0.62647998  0.08420147  1
  O  O231  1  0.10884052  0.64166934  0.59068331  1
  O  O232  1  0.43416566  0.13925170  0.08183880  1
  O  O233  1  0.43303646  0.12392833  0.58074614  1
  O  O234  1  0.43923460  0.64068539  0.08571800  1
  O  O235  1  0.43014090  0.61785116  0.58505507  1
  O  O236  1  0.78432515  0.11924373  0.07542044  1
  O  O237  1  0.76800024  0.12454833  0.58554794  1
  O  O238  1  0.77297811  0.62640079  0.08650336  1
  O  O239  1  0.78634238  0.62947971  0.57818998  1
  O  O240  1  0.06456132  0.11154662  0.41596235  1
  O  O241  1  0.04574384  0.10606839  0.92651624  1
  O  O242  1  0.05349180  0.59990624  0.43787232  1
  O  O243  1  0.04321332  0.60707441  0.92232074  1
  O  O244  1  0.39756573  0.11419541  0.41496522  1
  O  O245  1  0.39682150  0.11640246  0.91261248  1
  O  O246  1  0.37961142  0.62048883  0.42501623  1
  O  O247  1  0.37669868  0.61429755  0.92153193  1
  O  O248  1  0.72913677  0.10979192  0.41366092  1
  O  O249  1  0.72328288  0.12105470  0.91721183  1
  O  O250  1  0.71196981  0.61241849  0.41246621  1
  O  O251  1  0.72325808  0.62487049  0.91518162  1
  O  O252  1  0.22067992  0.34775182  0.41373049  1
  O  O253  1  0.22875859  0.35606349  0.91523389  1
  O  O254  1  0.22985005  0.87011697  0.41392264  1
  O  O255  1  0.22599200  0.85389612  0.90988343  1
  O  O256  1  0.53872413  0.35309047  0.41761823  1
  O  O257  1  0.55304233  0.35676539  0.91369526  1
  O  O258  1  0.56296702  0.86913766  0.41340222  1
  O  O259  1  0.54656752  0.86265991  0.90821776  1
  O  O260  1  0.88265687  0.37288595  0.42616203  1
  O  O261  1  0.88272624  0.37780060  0.92773411  1
  O  O262  1  0.89589623  0.87285511  0.41826769  1
  O  O263  1  0.90199616  0.86019417  0.92338130  1
  O  O264  1  0.06900852  0.39022270  0.42555639  1
  O  O265  1  0.07221060  0.39396140  0.92587252  1
  O  O266  1  0.06225359  0.89315804  0.41498449  1
  O  O267  1  0.06562302  0.86919978  0.91574721  1
  O  O268  1  0.38049031  0.38314753  0.41625110  1
  O  O269  1  0.39086724  0.38270665  0.91263940  1
  O  O270  1  0.39596905  0.88547001  0.41524426  1
  O  O271  1  0.38566437  0.89251222  0.90782734  1
  O  O272  1  0.72183716  0.40098226  0.42307239  1
  O  O273  1  0.71576856  0.38358665  0.91467682  1
  O  O274  1  0.72843235  0.88098026  0.41363262  1
  O  O275  1  0.70970234  0.88994287  0.92014847  1
  O  O276  1  0.23163714  0.13040540  0.41457947  1
  O  O277  1  0.23721264  0.13845736  0.92323257  1
  O  O278  1  0.22006970  0.65702137  0.41934744  1
  O  O279  1  0.21990104  0.66250662  0.91632638  1
  O  O280  1  0.56456691  0.12332927  0.41478504  1
  O  O281  1  0.55961991  0.13045786  0.91345131  1
  O  O282  1  0.55680696  0.64809859  0.41845382  1
  O  O283  1  0.56285054  0.64444043  0.92230590  1
  O  O284  1  0.89862196  0.12000371  0.41687436  1
  O  O285  1  0.88233668  0.14482885  0.91074513  1
  O  O286  1  0.86990465  0.64521057  0.42508877  1
  O  O287  1  0.88352489  0.63416608  0.91559962  1
  O  O288  1  0.16039491  0.00612046  0.08610098  1
  O  O289  1  0.16044795  0.00728628  0.57287866  1
  O  O290  1  0.16818096  0.49550486  0.08813673  1
  O  O291  1  0.16649459  0.50708197  0.58829740  1
  O  O292  1  0.49432807  0.00920932  0.07333205  1
  O  O293  1  0.50990197  0.00074018  0.58010230  1
  O  O294  1  0.50691608  0.51424717  0.07412129  1
  O  O295  1  0.51907967  0.49775795  0.58469108  1
  O  O296  1  0.86269564  -0.00560553  0.08650188  1
  O  O297  1  0.85659994  0.00386067  0.58370166  1
  O  O298  1  0.86033105  0.50457099  0.08614464  1
  O  O299  1  0.84429644  0.49599148  0.58729282  1
  O  O300  1  0.00539780  0.25030877  0.08854772  1
  O  O301  1  0.01229609  0.25459771  0.58745656  1
  O  O302  1  0.02609168  0.74897456  0.08836880  1
  O  O303  1  -0.00937129  0.74399798  0.58888037  1
  O  O304  1  0.32632769  0.24764026  0.08412164  1
  O  O305  1  0.33618429  0.23973928  0.57028182  1
  O  O306  1  0.31479275  0.73721364  0.07620092  1
  O  O307  1  0.35713265  0.74603803  0.58200797  1
  O  O308  1  0.69549603  0.26006591  0.07505540  1
  O  O309  1  0.68288594  0.24860629  0.58569768  1
  O  O310  1  0.69197144  0.74965709  0.08487589  1
  O  O311  1  0.68134650  0.76423276  0.57275241  1
  O  O312  1  0.16795184  0.00078415  0.41540177  1
  O  O313  1  0.16602948  -0.01579021  0.92317083  1
  O  O314  1  0.19064361  0.48789407  0.42125554  1
  O  O315  1  0.18921371  0.49375153  0.92080923  1
  O  O316  1  0.49296333  -0.00171075  0.41354118  1
  O  O317  1  0.49311236  0.00011621  0.91029736  1
  O  O318  1  0.49208368  0.49005932  0.42734210  1
  O  O319  1  0.50058069  0.48917336  0.92109926  1
  O  O320  1  0.82234610  -0.00333963  0.41530628  1
  O  O321  1  0.83280086  0.01210109  0.92871142  1
  O  O322  1  0.82678750  0.50715380  0.41541620  1
  O  O323  1  0.80741872  0.50377553  0.91768806  1
  O  O324  1  0.33197442  0.24470176  0.41380684  1
  O  O325  1  0.33777286  0.24906977  0.91410292  1
  O  O326  1  0.33285947  0.75687839  0.41353016  1
  O  O327  1  0.34479046  0.75462790  0.90934273  1
  O  O328  1  0.66738942  0.23690583  0.42442102  1
  O  O329  1  0.65441123  0.24889187  0.91275323  1
  O  O330  1  0.66361254  0.75245854  0.41189057  1
  O  O331  1  0.65943321  0.75584489  0.91223774  1
  O  O332  1  0.99259074  0.23739676  0.42654769  1
  O  O333  1  1.00084866  0.24280737  0.92828617  1
  O  O334  1  1.00251791  0.76289096  0.42372048  1
  O  O335  1  0.99083314  0.74357850  0.91489457  1
  O  O336  1  0.21234500  0.08209020  0.19557898  1
  O  O337  1  0.20079359  0.08312110  0.68924745  1
  O  O338  1  0.21021625  0.58127499  0.19622159  1
  O  O339  1  0.21179374  0.58598111  0.69688231  1
  O  O340  1  0.54347669  0.08532165  0.18819882  1
  O  O341  1  0.54389862  0.07998073  0.69002415  1
  O  O342  1  0.54469358  0.58775217  0.19212515  1
  O  O343  1  0.54392241  0.58410470  0.69234529  1
  O  O344  1  0.88161122  0.08155865  0.19362171  1
  O  O345  1  0.88038264  0.07987882  0.69561006  1
  O  O346  1  0.87814020  0.58416926  0.19658909  1
  O  O347  1  0.87589630  0.58196921  0.69598880  1
  O  O348  1  0.04455567  0.33269976  0.19823504  1
  O  O349  1  0.04639580  0.33548058  0.69849959  1
  O  O350  1  0.05207784  0.83931651  0.19538278  1
  O  O351  1  0.03826178  0.83163257  0.69382635  1
  O  O352  1  0.36408302  0.33121709  0.19210654  1
  O  O353  1  0.37575344  0.33299599  0.69857124  1
  O  O354  1  0.37633258  0.83254575  0.19667160  1
  O  O355  1  0.37682946  0.83177092  0.68956038  1
  O  O356  1  0.71678927  0.33651479  0.19052070  1
  O  O357  1  0.71480096  0.33610062  0.69604875  1
  O  O358  1  0.71298149  0.83466881  0.19274865  1
  O  O359  1  0.70862230  0.83491254  0.69104761  1
  O  O360  1  0.20697664  0.41426019  0.19740595  1
  O  O361  1  0.20796630  0.41893926  0.69476788  1
  O  O362  1  0.21015452  0.91884925  0.19189528  1
  O  O363  1  0.20756948  0.91509629  0.69677589  1
  O  O364  1  0.54817222  0.42603414  0.19881457  1
  O  O365  1  0.54376622  0.41602979  0.69298477  1
  O  O366  1  0.54719085  0.91366308  0.19543795  1
  O  O367  1  0.54364791  0.91733474  0.69199791  1
  O  O368  1  0.87829250  0.42105110  0.19728138  1
  O  O369  1  0.87542277  0.41792755  0.69843829  1
  O  O370  1  0.88291724  0.91482798  0.19616070  1
  O  O371  1  0.87827133  0.91786097  0.69472280  1
  O  O372  1  0.04026345  0.16780762  0.19761348  1
  O  O373  1  0.04123612  0.16881679  0.69555169  1
  O  O374  1  0.05043593  0.65998615  0.19529756  1
  O  O375  1  0.04045150  0.66648144  0.69836203  1
  O  O376  1  0.37364520  0.16476846  0.19256557  1
  O  O377  1  0.36992461  0.16776457  0.68847292  1
  O  O378  1  0.37125649  0.66635593  0.19257389  1
  O  O379  1  0.37457465  0.66751960  0.69338315  1
  O  O380  1  0.71577623  0.16420233  0.20050500  1
  O  O381  1  0.70246343  0.16304914  0.69279677  1
  O  O382  1  0.71152013  0.66735032  0.19580578  1
  O  O383  1  0.71042154  0.66815194  0.70073620  1
  O  O384  1  0.12490875  0.08031745  0.30575852  1
  O  O385  1  0.12314382  0.08115888  0.79979630  1
  O  O386  1  0.12366857  0.58169118  0.30335100  1
  O  O387  1  0.12179637  0.58304403  0.80073237  1
  O  O388  1  0.45701015  0.08245899  0.30317717  1
  O  O389  1  0.45691911  0.08150138  0.80135909  1
  O  O390  1  0.45393973  0.58412786  0.29724958  1
  O  O391  1  0.45573809  0.58329905  0.79714297  1
  O  O392  1  0.79581182  0.07992098  0.30458066  1
  O  O393  1  0.78261446  0.07484399  0.80976953  1
  O  O394  1  0.78694497  0.58716879  0.30692166  1
  O  O395  1  0.78711095  0.58340739  0.80610722  1
  O  O396  1  0.29031119  0.32924906  0.30531868  1
  O  O397  1  0.28991767  0.33233336  0.80421086  1
  O  O398  1  0.29242506  0.83775816  0.30391529  1
  O  O399  1  0.29164976  0.83308440  0.80015723  1
  O  O400  1  0.63714467  0.32987178  0.30005356  1
  O  O401  1  0.61787602  0.33646701  0.80354084  1
  O  O402  1  0.62530253  0.83437390  0.30312848  1
  O  O403  1  0.62147445  0.83591823  0.80275131  1
  O  O404  1  0.95457437  0.33245325  0.30169833  1
  O  O405  1  0.95643788  0.33502794  0.80438660  1
  O  O406  1  0.95556292  0.84305630  0.30943086  1
  O  O407  1  0.95611608  0.83124213  0.80673029  1
  O  O408  1  0.12595372  0.41371335  0.30962146  1
  O  O409  1  0.12805013  0.41610083  0.80965445  1
  O  O410  1  0.12773284  0.91855705  0.30514192  1
  O  O411  1  0.12158462  0.91255680  0.80576670  1
  O  O412  1  0.44871356  0.42231121  0.31027160  1
  O  O413  1  0.45729014  0.41686610  0.80463754  1
  O  O414  1  0.45659697  0.91371103  0.30413047  1
  O  O415  1  0.45411833  0.91766074  0.79934729  1
  O  O416  1  0.79130804  0.41947920  0.30914150  1
  O  O417  1  0.78761681  0.42044803  0.80903540  1
  O  O418  1  0.79191622  0.91590887  0.30413327  1
  O  O419  1  0.78812660  0.91646927  0.79860132  1
  O  O420  1  0.29453378  0.16241708  0.30484002  1
  O  O421  1  0.28880569  0.16859190  0.80574282  1
  O  O422  1  0.29223107  0.66834873  0.30740806  1
  O  O423  1  0.29135296  0.66836095  0.80577536  1
  O  O424  1  0.62505228  0.16290428  0.30613057  1
  O  O425  1  0.62246476  0.16439791  0.80393431  1
  O  O426  1  0.62126608  0.66974064  0.30349942  1
  O  O427  1  0.62037291  0.66882833  0.80549032  1
  O  O428  1  0.95861714  0.16331629  0.30877897  1
  O  O429  1  0.96984022  0.16692600  0.81212399  1
  O  O430  1  0.95162971  0.65815638  0.30661261  1
  O  O431  1  0.95306827  0.66359762  0.80682885  1
  F  F432  1  0.04697528  0.00031632  0.20283227  1
  F  F433  1  0.04209827  -0.00276931  0.70208790  1
  F  F434  1  0.04427639  0.49617715  0.20491521  1
  F  F435  1  0.04363264  0.49673941  0.70488740  1
  F  F436  1  0.37422323  0.00111222  0.19819003  1
  F  F437  1  0.38038238  -0.00727754  0.69120203  1
  F  F438  1  0.37506734  0.49704156  0.20021282  1
  F  F439  1  0.37639703  0.49895977  0.69923862  1
  F  F440  1  0.71745503  -0.00094000  0.19907282  1
  F  F441  1  0.71103314  0.00144748  0.69884616  1
  F  F442  1  0.71579595  0.50285898  0.20471663  1
  F  F443  1  0.71167370  0.50020114  0.70256303  1
  F  F444  1  0.21017590  0.25056758  0.20290461  1
  F  F445  1  0.20994434  0.25008711  0.70172800  1
  F  F446  1  0.21241683  0.74919880  0.20209542  1
  F  F447  1  0.20990024  0.74817770  0.70146791  1
  F  F448  1  0.55097633  0.23851552  0.19626625  1
  F  F449  1  0.54221999  0.25311455  0.69429446  1
  F  F450  1  0.54608255  0.74964402  0.20001627  1
  F  F451  1  0.54488643  0.75069506  0.70009106  1
  F  F452  1  0.88096884  0.24801223  0.20280672  1
  F  F453  1  0.88370404  0.25827031  0.70059961  1
  F  F454  1  0.86938047  0.75036125  0.20010447  1
  F  F455  1  0.87726547  0.75000804  0.70381762  1
  F  F456  1  0.29024939  -0.00163406  0.29762918  1
  F  F457  1  0.28819205  -0.00220822  0.79520898  1
  F  F458  1  0.28803211  0.49867607  0.29711074  1
  F  F459  1  0.29006137  0.49905963  0.79658197  1
  F  F460  1  0.63189501  0.00103289  0.29749623  1
  F  F461  1  0.61700216  -0.00075002  0.79437365  1
  F  F462  1  0.62199403  0.50451986  0.29969868  1
  F  F463  1  0.62050709  0.50099554  0.79560650  1
  F  F464  1  0.95719773  0.00086898  0.29791370  1
  F  F465  1  0.95413363  -0.00155630  0.79968758  1
  F  F466  1  0.95550681  0.49881287  0.30118261  1
  F  F467  1  0.95292046  0.50042259  0.80075026  1
  F  F468  1  0.12004048  0.25092268  0.30325305  1
  F  F469  1  0.12352908  0.25003900  0.79822693  1
  F  F470  1  0.13786296  0.75407421  0.30304344  1
  F  F471  1  0.11997867  0.75168179  0.79671443  1
  F  F472  1  0.44972901  0.23740253  0.29776385  1
  F  F473  1  0.45366813  0.25053784  0.79865489  1
  F  F474  1  0.45645285  0.75018810  0.29578374  1
  F  F475  1  0.45464212  0.75172279  0.79371754  1
  F  F476  1  0.79254116  0.24906427  0.29852638  1
  F  F477  1  0.78502231  0.26386477  0.80989385  1
  F  F478  1  0.78605375  0.75319631  0.29877446  1
  F  F479  1  0.78776119  0.75248079  0.79884831  1
