# generated using pymatgen
data_K24Na3Li5Mg64Fe17Si79(O5F)48
_symmetry_space_group_name_H-M   'P 1'
_cell_length_a   16.09629161
_cell_length_b   18.59268311
_cell_length_c   20.55311815
_cell_angle_alpha   89.98941386
_cell_angle_beta   100.02053202
_cell_angle_gamma   90.01411071
_symmetry_Int_Tables_number   1
_chemical_formula_structural   K24Na3Li5Mg64Fe17Si79(O5F)48
_chemical_formula_sum   'K24 Na3 Li5 Mg64 Fe17 Si79 O240 F48'
_cell_volume   6057.16756737
_cell_formula_units_Z   1
loop_
 _symmetry_equiv_pos_site_id
 _symmetry_equiv_pos_as_xyz
  1  'x, y, z'
loop_
 _atom_site_type_symbol
 _atom_site_label
 _atom_site_symmetry_multiplicity
 _atom_site_fract_x
 _atom_site_fract_y
 _atom_site_fract_z
 _atom_site_occupancy
  K  K0  1  -0.00293182  -0.00650197  0.01143611  1
  K  K1  1  -0.01231385  -0.00462491  0.49130759  1
  K  K2  1  -0.00625581  0.51198046  0.00671531  1
  K  K3  1  -0.01245982  0.49896633  0.49241604  1
  K  K4  1  0.34200656  0.00004705  0.00670659  1
  K  K5  1  0.33056704  -0.00433387  0.49166507  1
  K  K6  1  0.33580366  0.50281021  0.01175984  1
  K  K7  1  0.33909487  0.50358952  0.49272195  1
  K  K8  1  0.66662152  -0.00808654  0.01038784  1
  K  K9  1  0.67583637  0.00549104  0.49163805  1
  K  K10  1  0.67528301  0.50573112  0.01820722  1
  K  K11  1  0.67496458  0.49918633  0.49426401  1
  K  K12  1  0.16927594  0.24487429  0.01064246  1
  K  K13  1  0.15993377  0.25787551  0.48902051  1
  K  K14  1  0.16423129  0.74477951  0.00137417  1
  K  K15  1  0.16264638  0.74858792  0.49306795  1
  K  K16  1  0.50136452  0.25413441  0.01712776  1
  K  K17  1  0.50379922  0.25089727  0.49043974  1
  K  K18  1  0.50619815  0.75326212  0.01048818  1
  K  K19  1  0.50388619  0.74517677  0.49232650  1
  K  K20  1  0.83792108  0.24710866  0.00732073  1
  K  K21  1  0.83441983  0.25170691  0.49365480  1
  K  K22  1  0.83764077  0.73819359  0.00867211  1
  K  K23  1  0.84008562  0.74653994  0.49425857  1
  Na  Na24  1  -0.00165789  0.24698457  0.74721110  1
  Na  Na25  1  0.66657751  0.08036153  0.25082490  1
  Na  Na26  1  0.49869304  0.66910882  0.24249893  1
  Li  Li27  1  0.16377956  -0.00054461  0.25499476  1
  Li  Li28  1  0.82706015  0.50139525  0.25024478  1
  Li  Li29  1  0.66911161  0.42256060  0.24234708  1
  Li  Li30  1  0.83577339  0.83271583  0.25978381  1
  Li  Li31  1  0.83428662  0.83157139  0.75199084  1
  Mg  Mg32  1  0.33235060  0.24788468  0.24485081  1
  Mg  Mg33  1  0.33151009  0.75108505  0.24866265  1
  Mg  Mg34  1  0.50030826  0.50257889  0.74667311  1
  Mg  Mg35  1  0.66950641  0.75084429  0.24974740  1
  Mg  Mg36  1  0.83204243  -0.00276339  0.25384470  1
  Mg  Mg37  1  0.83284589  -0.00207207  0.74963366  1
  Mg  Mg38  1  0.16624860  0.00163230  0.75214457  1
  Mg  Mg39  1  0.16511855  0.50195055  0.24911778  1
  Mg  Mg40  1  0.83595760  0.50025652  0.74752229  1
  Mg  Mg41  1  0.66799979  0.25068083  0.74661347  1
  Mg  Mg42  1  0.33358496  0.74918861  0.75031651  1
  Mg  Mg43  1  0.50023240  -0.00217158  0.75502978  1
  Mg  Mg44  1  0.66552481  0.25280537  0.24624985  1
  Mg  Mg45  1  0.50303166  0.50156970  0.24351595  1
  Mg  Mg46  1  0.67059652  0.74972121  0.75289580  1
  Mg  Mg47  1  -0.00056010  0.25045159  0.25249611  1
  Mg  Mg48  1  -0.00223666  0.75092053  0.75253123  1
  Mg  Mg49  1  0.49930374  0.00089198  0.24882297  1
  Mg  Mg50  1  -0.00401973  0.75039453  0.25546556  1
  Mg  Mg51  1  0.16674225  0.50017135  0.74874758  1
  Mg  Mg52  1  0.33476412  0.25092149  0.74984988  1
  Mg  Mg53  1  0.16588417  0.66454593  0.74844683  1
  Mg  Mg54  1  0.32891515  0.91788421  0.25065575  1
  Mg  Mg55  1  0.16367469  0.66523252  0.24917811  1
  Mg  Mg56  1  0.16577481  0.83484401  0.75373022  1
  Mg  Mg57  1  0.16633807  0.33276038  0.74881871  1
  Mg  Mg58  1  0.66889824  0.91389087  0.75418263  1
  Mg  Mg59  1  0.33134443  0.58518838  0.24510403  1
  Mg  Mg60  1  0.00316375  0.08167161  0.25628425  1
  Mg  Mg61  1  0.50007444  0.83465819  0.75401134  1
  Mg  Mg62  1  0.83133638  0.33769917  0.24786685  1
  Mg  Mg63  1  0.16831639  0.16229014  0.25122261  1
  Mg  Mg64  1  -0.00256151  0.58285560  0.25301870  1
  Mg  Mg65  1  0.66920958  0.58472531  0.74870811  1
  Mg  Mg66  1  0.66860491  0.58160200  0.24565440  1
  Mg  Mg67  1  0.49847738  0.66739032  0.74860957  1
  Mg  Mg68  1  0.83517454  0.66669364  0.25306483  1
  Mg  Mg69  1  0.33476821  0.91544380  0.75441653  1
  Mg  Mg70  1  0.83738570  0.66758467  0.75113287  1
  Mg  Mg71  1  0.83187917  0.16419453  0.74747824  1
  Mg  Mg72  1  -0.00106215  0.41440885  0.74756158  1
  Mg  Mg73  1  -0.00097252  0.58621819  0.75024499  1
  Mg  Mg74  1  0.49805143  0.16633935  0.24639998  1
  Mg  Mg75  1  0.33025235  0.08372376  0.24854380  1
  Mg  Mg76  1  0.33290679  0.41670523  0.24213906  1
  Mg  Mg77  1  0.50127129  0.33601684  0.74780659  1
  Mg  Mg78  1  0.50056801  0.83411558  0.24923082  1
  Mg  Mg79  1  0.66682832  0.08328920  0.75065792  1
  Mg  Mg80  1  0.50184770  0.16587862  0.75253405  1
  Mg  Mg81  1  0.16419517  0.83617549  0.25288621  1
  Mg  Mg82  1  -0.00382305  0.08328427  0.74842059  1
  Mg  Mg83  1  0.00052745  0.91651828  0.25675930  1
  Mg  Mg84  1  0.83316043  0.16666891  0.25287306  1
  Mg  Mg85  1  -0.00281044  0.41683510  0.24994484  1
  Mg  Mg86  1  0.33249333  0.41699342  0.74704824  1
  Mg  Mg87  1  0.33121342  0.58565070  0.74644081  1
  Mg  Mg88  1  0.66779359  0.41608633  0.74725352  1
  Mg  Mg89  1  0.16588775  0.16689562  0.74970060  1
  Mg  Mg90  1  0.16741373  0.33357738  0.24921029  1
  Mg  Mg91  1  0.83191309  0.33265268  0.74579561  1
  Mg  Mg92  1  0.66992591  0.91547874  0.25189772  1
  Mg  Mg93  1  -0.00471519  0.91519877  0.75199557  1
  Mg  Mg94  1  0.50075660  0.33613582  0.24216316  1
  Mg  Mg95  1  0.33554695  0.08438572  0.75310626  1
  Fe  Fe96  1  0.14607935  0.91835376  0.39245818  1
  Fe  Fe97  1  0.35382654  0.16259857  0.10561877  1
  Fe  Fe98  1  0.85727138  0.57659341  0.11276957  1
  Fe  Fe99  1  0.19311803  0.57884013  0.60793607  1
  Fe  Fe100  1  0.80438138  0.91703958  0.39355668  1
  Fe  Fe101  1  0.36118506  0.66808458  0.60796237  1
  Fe  Fe102  1  0.47784781  0.91383973  0.89537004  1
  Fe  Fe103  1  0.97551324  0.66063341  0.39541611  1
  Fe  Fe104  1  0.85634761  0.08111934  0.60825224  1
  Fe  Fe105  1  0.97512431  0.33828610  0.38961235  1
  Fe  Fe106  1  0.52834246  0.42144231  0.10425736  1
  Fe  Fe107  1  0.18978484  0.58612970  0.10705246  1
  Fe  Fe108  1  0.97596754  0.67067034  0.89405042  1
  Fe  Fe109  1  0.31192021  0.16619335  0.38965115  1
  Fe  Fe110  1  0.15006730  0.58269634  0.39127248  1
  Fe  Fe111  1  0.68859558  0.33259267  0.60782468  1
  Fe  Fe112  1  0.86387805  0.58442419  0.60901419  1
  Si  Si113  1  0.03026039  0.16217749  0.61294860  1
  Si  Si114  1  0.02917972  0.32894944  0.61551614  1
  Si  Si115  1  0.15136879  0.41521398  0.38534296  1
  Si  Si116  1  0.02284035  0.67207287  0.11275099  1
  Si  Si117  1  0.14163448  0.08824543  0.39120631  1
  Si  Si118  1  0.36013110  0.33310195  0.61354036  1
  Si  Si119  1  0.14247253  0.57776725  0.88823364  1
  Si  Si120  1  0.63779165  0.17123242  0.38260620  1
  Si  Si121  1  0.97240121  0.16402590  0.88662235  1
  Si  Si122  1  0.30259477  0.83067548  0.89070717  1
  Si  Si123  1  0.02430561  0.83788890  0.61839077  1
  Si  Si124  1  0.97851829  0.83344769  0.39572642  1
  Si  Si125  1  0.36376546  0.16628130  0.61657992  1
  Si  Si126  1  0.30928406  0.33462006  0.88390190  1
  Si  Si127  1  0.80958652  0.41546577  0.88479893  1
  Si  Si128  1  0.47492501  0.91544035  0.38239218  1
  Si  Si129  1  0.18910936  0.40949451  0.61172032  1
  Si  Si130  1  0.97216426  0.33191877  0.88430395  1
  Si  Si131  1  0.68453057  0.16466969  0.61163281  1
  Si  Si132  1  0.64114305  0.66241115  0.88502684  1
  Si  Si133  1  0.97721870  0.84184872  0.89087341  1
  Si  Si134  1  0.63296667  0.33326944  0.38059537  1
  Si  Si135  1  0.52611100  0.91604536  0.11482884  1
  Si  Si136  1  0.47159300  0.42036311  0.37886078  1
  Si  Si137  1  0.18796589  0.91201343  0.11515054  1
  Si  Si138  1  0.80747669  0.92009765  0.88791817  1
  Si  Si139  1  0.47982773  0.07864099  0.38671648  1
  Si  Si140  1  0.31354897  0.83309271  0.38673588  1
  Si  Si141  1  0.68730128  0.83008344  0.61858806  1
  Si  Si142  1  0.52581240  0.08150148  0.11052306  1
  Si  Si143  1  0.69657914  0.32763403  0.10834199  1
  Si  Si144  1  0.52634663  0.59005427  0.10749979  1
  Si  Si145  1  0.79803342  0.58233216  0.38619051  1
  Si  Si146  1  0.47448116  0.41907663  0.88354955  1
  Si  Si147  1  0.19094964  0.92205902  0.61869413  1
  Si  Si148  1  0.64179260  0.17160558  0.88624581  1
  Si  Si149  1  0.03419671  0.67334424  0.61363103  1
  Si  Si150  1  0.35657382  0.67153096  0.10843389  1
  Si  Si151  1  0.85232594  0.91156026  0.61662606  1
  Si  Si152  1  0.86286920  0.41124122  0.60891425  1
  Si  Si153  1  0.47337212  0.58503900  0.88444271  1
  Si  Si154  1  0.30906695  0.16945918  0.88556383  1
  Si  Si155  1  0.18600776  0.07659730  0.11164872  1
  Si  Si156  1  0.63602349  0.82981105  0.38752053  1
  Si  Si157  1  0.35361140  0.83726030  0.61480843  1
  Si  Si158  1  0.80459165  0.58019987  0.88713875  1
  Si  Si159  1  0.02410700  0.16169833  0.11677152  1
  Si  Si160  1  0.01995576  0.83467908  0.11765359  1
  Si  Si161  1  0.30565760  0.66405429  0.88611355  1
  Si  Si162  1  0.19635262  0.08717253  0.61663700  1
  Si  Si163  1  0.86240792  0.40707804  0.10897035  1
  Si  Si164  1  0.47739582  0.08742841  0.89029050  1
  Si  Si165  1  0.35610077  0.83699229  0.11270456  1
  Si  Si166  1  0.14258247  0.08701419  0.88680457  1
  Si  Si167  1  0.97598030  0.16644421  0.38912450  1
  Si  Si168  1  0.14140529  0.92166603  0.88819900  1
  Si  Si169  1  0.69341665  0.83576432  0.11735914  1
  Si  Si170  1  0.14078234  0.41203388  0.88461087  1
  Si  Si171  1  0.79864852  0.41526396  0.38324100  1
  Si  Si172  1  0.53122453  0.58736444  0.61321170  1
  Si  Si173  1  0.64078291  0.33678897  0.88447944  1
  Si  Si174  1  0.80541423  0.08489016  0.88814900  1
  Si  Si175  1  0.31515295  0.67119194  0.38488316  1
  Si  Si176  1  0.69326854  0.67151740  0.11106748  1
  Si  Si177  1  0.35343348  0.33540873  0.10521472  1
  Si  Si178  1  0.63775496  0.66528778  0.38084678  1
  Si  Si179  1  0.47217889  0.58178556  0.37871227  1
  Si  Si180  1  0.18620964  0.41561105  0.10990858  1
  Si  Si181  1  0.64875502  0.82794909  0.89136809  1
  Si  Si182  1  0.52550632  0.07877941  0.61774806  1
  Si  Si183  1  0.69478187  0.66743606  0.61455326  1
  Si  Si184  1  0.52455513  0.91478715  0.61769039  1
  Si  Si185  1  0.80893496  0.08914641  0.38808680  1
  Si  Si186  1  0.69415944  0.16496542  0.11457907  1
  Si  Si187  1  0.02839540  0.32670412  0.11362361  1
  Si  Si188  1  0.85912141  0.91937252  0.11959266  1
  Si  Si189  1  0.31401042  0.33339837  0.38116133  1
  Si  Si190  1  0.52209885  0.42261010  0.61081511  1
  Si  Si191  1  0.85824758  0.08263442  0.11784770  1
  O  O192  1  0.25607606  0.10791454  0.07102245  1
  O  O193  1  0.28075805  0.11658562  0.58914490  1
  O  O194  1  0.27993192  0.62405999  0.06840275  1
  O  O195  1  0.29135873  0.59396880  0.57504233  1
  O  O196  1  0.61140849  0.11472793  0.08632954  1
  O  O197  1  0.60803728  0.10406824  0.58827671  1
  O  O198  1  0.60086153  0.63607442  0.07943922  1
  O  O199  1  0.62143583  0.60604216  0.58887158  1
  O  O200  1  0.93465751  0.12106755  0.08605907  1
  O  O201  1  0.95618481  0.10969257  0.57770518  1
  O  O202  1  0.94573247  0.62101465  0.07833762  1
  O  O203  1  0.96022307  0.61919500  0.58006047  1
  O  O204  1  0.10881808  0.35768169  0.08287042  1
  O  O205  1  0.11535027  0.34889010  0.58654911  1
  O  O206  1  0.10183289  0.86517603  0.08618036  1
  O  O207  1  0.10571129  0.87507849  0.59129232  1
  O  O208  1  0.42809729  0.36960329  0.07073544  1
  O  O209  1  0.43751315  0.37175982  0.58447878  1
  O  O210  1  0.43530882  0.87634888  0.08433049  1
  O  O211  1  0.43877185  0.86934805  0.58894543  1
  O  O212  1  0.78280226  0.35233424  0.08001478  1
  O  O213  1  0.78975707  0.35380780  0.57867570  1
  O  O214  1  0.76991220  0.87817366  0.08807145  1
  O  O215  1  0.77308424  0.85471890  0.59143151  1
  O  O216  1  0.26830498  0.38579569  0.08013752  1
  O  O217  1  0.27339268  0.37639475  0.58479819  1
  O  O218  1  0.26794628  0.88028370  0.08176836  1
  O  O219  1  0.27481019  0.89464263  0.59066737  1
  O  O220  1  0.61827691  0.37531826  0.07091043  1
  O  O221  1  0.59897705  0.39700577  0.57583242  1
  O  O222  1  0.60297572  0.87635589  0.08477879  1
  O  O223  1  0.60562224  0.88261165  0.58800790  1
  O  O224  1  0.94320429  0.36967416  0.07953581  1
  O  O225  1  0.95151576  0.38243410  0.58521433  1
  O  O226  1  0.93732565  0.88504677  0.08667293  1
  O  O227  1  0.93870294  0.88370491  0.58999903  1
  O  O228  1  0.09587984  0.11990795  0.08333673  1
  O  O229  1  0.11968793  0.14143368  0.58629143  1
  O  O230  1  0.10480610  0.65326074  0.07927304  1
  O  O231  1  0.12134931  0.65805588  0.58688930  1
  O  O232  1  0.44556074  0.12399777  0.06931172  1
  O  O233  1  0.44419612  0.13067808  0.58903211  1
  O  O234  1  0.44339182  0.64296313  0.08449349  1
  O  O235  1  0.46568099  0.64773335  0.58052878  1
  O  O236  1  0.77261668  0.12668100  0.08449032  1
  O  O237  1  0.76424894  0.14234328  0.57766652  1
  O  O238  1  0.76149846  0.63177568  0.07435794  1
  O  O239  1  0.77433566  0.64965742  0.57973220  1
  O  O240  1  0.05122524  0.10829797  0.41667686  1
  O  O241  1  0.06310439  0.12318861  0.91674337  1
  O  O242  1  0.06138532  0.60012540  0.43429015  1
  O  O243  1  0.07276421  0.61422270  0.92515596  1
  O  O244  1  0.40384631  0.10415377  0.42371102  1
  O  O245  1  0.39511797  0.12522021  0.91535546  1
  O  O246  1  0.39470959  0.61560618  0.41183831  1
  O  O247  1  0.39669897  0.62424864  0.91432352  1
  O  O248  1  0.72754706  0.13133847  0.41112122  1
  O  O249  1  0.72963267  0.12859505  0.91691792  1
  O  O250  1  0.71564371  0.61471793  0.41634669  1
  O  O251  1  0.71706456  0.60625461  0.91299091  1
  O  O252  1  0.22728156  0.35418408  0.40859202  1
  O  O253  1  0.22879509  0.36772024  0.91302842  1
  O  O254  1  0.23826728  0.85539324  0.42499484  1
  O  O255  1  0.22130242  0.86917873  0.91711341  1
  O  O256  1  0.55193200  0.36870522  0.40956926  1
  O  O257  1  0.56161822  0.37464289  0.91279818  1
  O  O258  1  0.54794585  0.85714962  0.41190625  1
  O  O259  1  0.57569093  0.85958512  0.92829308  1
  O  O260  1  0.88063658  0.37246752  0.42306354  1
  O  O261  1  0.89491492  0.36906130  0.91636681  1
  O  O262  1  0.89573242  0.85880899  0.42692900  1
  O  O263  1  0.89970585  0.88567141  0.91768932  1
  O  O264  1  0.07297631  0.39240972  0.42139233  1
  O  O265  1  0.06324744  0.37152396  0.91358612  1
  O  O266  1  0.05392639  0.88856206  0.42947340  1
  O  O267  1  0.05995654  0.89465866  0.91897741  1
  O  O268  1  0.38771850  0.39427640  0.40802536  1
  O  O269  1  0.39532363  0.38097121  0.91184884  1
  O  O270  1  0.39170150  0.89057663  0.41283447  1
  O  O271  1  0.38616737  0.87156043  0.92764857  1
  O  O272  1  0.71591045  0.38044054  0.41193570  1
  O  O273  1  0.72879768  0.37930943  0.91300281  1
  O  O274  1  0.71058669  0.87895604  0.42689462  1
  O  O275  1  0.73643093  0.87353031  0.91877822  1
  O  O276  1  0.21195103  0.14835574  0.42255813  1
  O  O277  1  0.22801870  0.13496364  0.91402783  1
  O  O278  1  0.23726633  0.65099058  0.42073550  1
  O  O279  1  0.23490959  0.61659168  0.91492744  1
  O  O280  1  0.56506137  0.12743455  0.41479387  1
  O  O281  1  0.56146162  0.13848412  0.91566873  1
  O  O282  1  0.55385458  0.63250677  0.40701102  1
  O  O283  1  0.55813330  0.63206119  0.91373023  1
  O  O284  1  0.89122923  0.13982535  0.41757070  1
  O  O285  1  0.89569938  0.12542810  0.91917278  1
  O  O286  1  0.87808434  0.62617283  0.42539375  1
  O  O287  1  0.88113002  0.62946780  0.92311908  1
  O  O288  1  0.16683435  -0.00705473  0.08449823  1
  O  O289  1  0.17453968  0.00481979  0.59042039  1
  O  O290  1  0.15933094  0.49210687  0.07516765  1
  O  O291  1  0.15741709  0.48479816  0.57885247  1
  O  O292  1  0.52015904  -0.00291288  0.08265094  1
  O  O293  1  0.50382090  -0.00287772  0.58966589  1
  O  O294  1  0.51169672  0.51531811  0.06593754  1
  O  O295  1  0.49863249  0.50609329  0.58708430  1
  O  O296  1  0.84743838  0.00115608  0.08617926  1
  O  O297  1  0.82443983  -0.01285509  0.58034385  1
  O  O298  1  0.84426095  0.48391966  0.07234172  1
  O  O299  1  0.84032568  0.48998927  0.57665197  1
  O  O300  1  0.01567965  0.24324796  0.08480361  1
  O  O301  1  0.00600864  0.24613126  0.59062926  1
  O  O302  1  -0.00393151  0.75551566  0.08649327  1
  O  O303  1  0.00740515  0.75712620  0.58934478  1
  O  O304  1  0.33083946  0.25617409  0.07244991  1
  O  O305  1  0.35102052  0.24874147  0.58756847  1
  O  O306  1  0.34672869  0.75628309  0.08030671  1
  O  O307  1  0.32738813  0.76236068  0.57860006  1
  O  O308  1  0.67929109  0.24380047  0.07803751  1
  O  O309  1  0.64475979  0.24091230  0.58328450  1
  O  O310  1  0.68652026  0.75593903  0.08282868  1
  O  O311  1  0.65945593  0.74906100  0.59015557  1
  O  O312  1  0.17419475  0.01181001  0.42487098  1
  O  O313  1  0.16106740  0.00493499  0.91609980  1
  O  O314  1  0.19351355  0.49039128  0.41379286  1
  O  O315  1  0.15432033  0.49318614  0.91446649  1
  O  O316  1  0.50469690  -0.00479985  0.41247682  1
  O  O317  1  0.49404693  0.01033667  0.92561934  1
  O  O318  1  0.49302671  0.50086346  0.41107123  1
  O  O319  1  0.48423323  0.50166389  0.91220703  1
  O  O320  1  0.81913796  0.01307327  0.42674318  1
  O  O321  1  0.80839088  0.00307997  0.91915283  1
  O  O322  1  0.80388138  0.49820498  0.41259701  1
  O  O323  1  0.82141975  0.49671942  0.91485632  1
  O  O324  1  0.34991788  0.25932810  0.41669978  1
  O  O325  1  0.32315372  0.25228707  0.91294500  1
  O  O326  1  0.35035706  0.75231012  0.41012622  1
  O  O327  1  0.30535125  0.74595785  0.91651439  1
  O  O328  1  0.64380360  0.25251253  0.41575642  1
  O  O329  1  0.65314194  0.25449824  0.91402675  1
  O  O330  1  0.64904874  0.74609074  0.41478757  1
  O  O331  1  0.66598329  0.74296775  0.91516233  1
  O  O332  1  1.00112868  0.24395271  0.42260294  1
  O  O333  1  0.98059791  0.24813287  0.91330305  1
  O  O334  1  1.00362089  0.75365092  0.42659645  1
  O  O335  1  0.99235452  0.76550570  0.92848570  1
  O  O336  1  0.20842938  0.08335787  0.19098712  1
  O  O337  1  0.21441105  0.08520331  0.69765602  1
  O  O338  1  0.21080436  0.58395387  0.19809267  1
  O  O339  1  0.21141291  0.58111363  0.70165004  1
  O  O340  1  0.53201445  0.08226181  0.18974026  1
  O  O341  1  0.54180079  0.08159458  0.69872837  1
  O  O342  1  0.54738641  0.57880974  0.18622957  1
  O  O343  1  0.54562454  0.58524496  0.69482407  1
  O  O344  1  0.87659423  0.08372847  0.19749078  1
  O  O345  1  0.87560191  0.08124642  0.70077912  1
  O  O346  1  0.87767846  0.58345777  0.20155740  1
  O  O347  1  0.87834646  0.58282485  0.70102002  1
  O  O348  1  0.04545762  0.32978798  0.19340461  1
  O  O349  1  0.04933820  0.33736055  0.69502881  1
  O  O350  1  0.04004057  0.83490321  0.19731385  1
  O  O351  1  0.04445310  0.83694277  0.69931261  1
  O  O352  1  0.37381082  0.33379007  0.18665944  1
  O  O353  1  0.37852072  0.33307822  0.69459891  1
  O  O354  1  0.37411256  0.83642792  0.19261506  1
  O  O355  1  0.37405483  0.83481449  0.69626609  1
  O  O356  1  0.71226067  0.32801982  0.18809404  1
  O  O357  1  0.70909208  0.33384898  0.70033152  1
  O  O358  1  0.70624238  0.83411791  0.19596727  1
  O  O359  1  0.70277384  0.83302883  0.69846625  1
  O  O360  1  0.20688141  0.41552003  0.19077727  1
  O  O361  1  0.21166729  0.41286945  0.69337841  1
  O  O362  1  0.21168326  0.91077682  0.19400902  1
  O  O363  1  0.21050313  0.91967188  0.69968758  1
  O  O364  1  0.54173482  0.41772722  0.19404534  1
  O  O365  1  0.54151491  0.41800875  0.69236375  1
  O  O366  1  0.54204123  0.91741446  0.19450761  1
  O  O367  1  0.54440911  0.91608698  0.69842505  1
  O  O368  1  0.88073256  0.40920952  0.18841681  1
  O  O369  1  0.87766366  0.41406601  0.69113500  1
  O  O370  1  0.88091846  0.92067596  0.19828559  1
  O  O371  1  0.87493525  0.91700903  0.69697312  1
  O  O372  1  0.04259157  0.16382771  0.19657740  1
  O  O373  1  0.05003228  0.15583827  0.69322874  1
  O  O374  1  0.04173507  0.67006546  0.19332018  1
  O  O375  1  0.04622837  0.66984869  0.69546067  1
  O  O376  1  0.37723217  0.16424440  0.19660104  1
  O  O377  1  0.38002191  0.16698755  0.69748849  1
  O  O378  1  0.36238309  0.67083998  0.18766962  1
  O  O379  1  0.37894602  0.66852412  0.70139816  1
  O  O380  1  0.71463901  0.17153914  0.19334462  1
  O  O381  1  0.70522621  0.16369523  0.69393233  1
  O  O382  1  0.71014785  0.66928000  0.19120225  1
  O  O383  1  0.71156352  0.66688274  0.69592106  1
  O  O384  1  0.12282694  0.08839418  0.31021973  1
  O  O385  1  0.12398192  0.08518029  0.80652407  1
  O  O386  1  0.12127648  0.58370695  0.29937416  1
  O  O387  1  0.12275921  0.58102333  0.80746141  1
  O  O388  1  0.45869612  0.08208719  0.30607678  1
  O  O389  1  0.45878928  0.08539960  0.80889611  1
  O  O390  1  0.44972573  0.57713093  0.29968179  1
  O  O391  1  0.45709629  0.58283656  0.80414377  1
  O  O392  1  0.79953055  0.08430497  0.30857646  1
  O  O393  1  0.78687596  0.08421655  0.80803551  1
  O  O394  1  0.78437876  0.58740250  0.30668648  1
  O  O395  1  0.78838521  0.58103810  0.80639352  1
  O  O396  1  0.29356551  0.33308131  0.29989217  1
  O  O397  1  0.29258747  0.33403702  0.80336340  1
  O  O398  1  0.29016029  0.83502684  0.30592782  1
  O  O399  1  0.28916806  0.83406103  0.80965222  1
  O  O400  1  0.61704311  0.32891291  0.30147653  1
  O  O401  1  0.62099425  0.33509747  0.80413442  1
  O  O402  1  0.62225303  0.83250017  0.30693933  1
  O  O403  1  0.62568744  0.83255114  0.81060647  1
  O  O404  1  0.95460120  0.33310205  0.29829901  1
  O  O405  1  0.95108270  0.33757089  0.80517975  1
  O  O406  1  0.96408094  0.83463070  0.31451478  1
  O  O407  1  0.96319914  0.83645384  0.81098012  1
  O  O408  1  0.12621162  0.41429515  0.30373154  1
  O  O409  1  0.12420008  0.41359670  0.80426993  1
  O  O410  1  0.12212782  0.91618964  0.30207212  1
  O  O411  1  0.12453293  0.92012742  0.80779396  1
  O  O412  1  0.45403694  0.41780428  0.29883106  1
  O  O413  1  0.45742153  0.41742094  0.80296899  1
  O  O414  1  0.45462403  0.91697408  0.30208143  1
  O  O415  1  0.45538107  0.91643762  0.80322741  1
  O  O416  1  0.78753416  0.41232561  0.30406786  1
  O  O417  1  0.79138384  0.41612294  0.80447741  1
  O  O418  1  0.78616336  0.91912498  0.30357439  1
  O  O419  1  0.78731083  0.92213692  0.80839665  1
  O  O420  1  0.28863437  0.16645933  0.29827437  1
  O  O421  1  0.29238563  0.16746067  0.80505637  1
  O  O422  1  0.29305879  0.66867913  0.30422397  1
  O  O423  1  0.28948284  0.66701142  0.80607414  1
  O  O424  1  0.61607694  0.17448059  0.30336674  1
  O  O425  1  0.62408117  0.16804849  0.80567381  1
  O  O426  1  0.62949728  0.66797345  0.30205882  1
  O  O427  1  0.62224140  0.66485815  0.80448904  1
  O  O428  1  0.95791070  0.16710156  0.30778092  1
  O  O429  1  0.95200477  0.15864698  0.80780936  1
  O  O430  1  0.95714147  0.66602445  0.30379826  1
  O  O431  1  0.95855813  0.66818279  0.80282513  1
  F  F432  1  0.03802769  0.00216318  0.20292179  1
  F  F433  1  0.04622121  -0.00159310  0.70540172  1
  F  F434  1  0.04402757  0.49681153  0.19976730  1
  F  F435  1  0.04556320  0.49983541  0.70427130  1
  F  F436  1  0.37699580  -0.00104276  0.20000315  1
  F  F437  1  0.37857548  0.00239415  0.70502203  1
  F  F438  1  0.37642697  0.50097478  0.19407319  1
  F  F439  1  0.37971885  0.49897562  0.70179260  1
  F  F440  1  0.71545659  -0.00791490  0.19563266  1
  F  F441  1  0.70877522  -0.00086638  0.70475847  1
  F  F442  1  0.71125655  0.50391117  0.19511776  1
  F  F443  1  0.71259410  0.49982644  0.70231874  1
  F  F444  1  0.20840769  0.24990379  0.19820069  1
  F  F445  1  0.21609195  0.24861571  0.70122863  1
  F  F446  1  0.20970572  0.75300785  0.20318407  1
  F  F447  1  0.21245626  0.75406927  0.70602992  1
  F  F448  1  0.54385912  0.24893945  0.19443805  1
  F  F449  1  0.54324982  0.24916512  0.70341987  1
  F  F450  1  0.55001634  0.76273923  0.19546394  1
  F  F451  1  0.54648636  0.75266923  0.70682498  1
  F  F452  1  0.87997823  0.24499579  0.20090321  1
  F  F453  1  0.86511656  0.24748858  0.69903459  1
  F  F454  1  0.87884401  0.75125388  0.20426970  1
  F  F455  1  0.87982291  0.75178426  0.70404422  1
  F  F456  1  0.29250825  0.00105825  0.29806851  1
  F  F457  1  0.28865190  0.00222119  0.80157673  1
  F  F458  1  0.28971018  0.49703801  0.29243239  1
  F  F459  1  0.29103614  0.49635886  0.79898083  1
  F  F460  1  0.61443959  -0.00913055  0.30045074  1
  F  F461  1  0.62169231  0.00076497  0.80150995  1
  F  F462  1  0.61702246  0.50791742  0.29782807  1
  F  F463  1  0.62062418  0.49923681  0.79609167  1
  F  F464  1  0.95410794  0.00119363  0.30276148  1
  F  F465  1  0.95551235  -0.00086327  0.80145415  1
  F  F466  1  0.96073773  0.49648653  0.30037617  1
  F  F467  1  0.95610778  0.49609682  0.79886749  1
  F  F468  1  0.12248488  0.24948014  0.29573260  1
  F  F469  1  0.13570570  0.24925362  0.80188908  1
  F  F470  1  0.12155891  0.74995724  0.29772375  1
  F  F471  1  0.12293271  0.75044439  0.80009443  1
  F  F472  1  0.45407181  0.25345723  0.29150694  1
  F  F473  1  0.45586243  0.25193950  0.79904314  1
  F  F474  1  0.44908587  0.75896872  0.29659801  1
  F  F475  1  0.45567866  0.75154495  0.80193859  1
  F  F476  1  0.78633538  0.25101109  0.29691263  1
  F  F477  1  0.78654276  0.24668741  0.80013854  1
  F  F478  1  0.78570084  0.74735985  0.30034350  1
  F  F479  1  0.78667849  0.74532202  0.80193197  1
