# generated using pymatgen
data_K24Na3Li5Mg64Fe17Si79(O5F)48
_symmetry_space_group_name_H-M   'P 1'
_cell_length_a   16.09181911
_cell_length_b   18.60840500
_cell_length_c   20.56772965
_cell_angle_alpha   90.02200916
_cell_angle_beta   100.03108430
_cell_angle_gamma   90.00241148
_symmetry_Int_Tables_number   1
_chemical_formula_structural   K24Na3Li5Mg64Fe17Si79(O5F)48
_chemical_formula_sum   'K24 Na3 Li5 Mg64 Fe17 Si79 O240 F48'
_cell_volume   6064.71588145
_cell_formula_units_Z   1
loop_
 _symmetry_equiv_pos_site_id
 _symmetry_equiv_pos_as_xyz
  1  'x, y, z'
loop_
 _atom_site_type_symbol
 _atom_site_label
 _atom_site_symmetry_multiplicity
 _atom_site_fract_x
 _atom_site_fract_y
 _atom_site_fract_z
 _atom_site_occupancy
  K  K0  1  0.00211782  -0.00507120  0.00724386  1
  K  K1  1  -0.00336544  0.00223394  0.49895205  1
  K  K2  1  0.00949790  0.50947248  -0.00166571  1
  K  K3  1  0.00472128  0.52014169  0.50175740  1
  K  K4  1  0.33518569  -0.00708207  0.00493577  1
  K  K5  1  0.32811276  -0.01173550  0.50158522  1
  K  K6  1  0.31567285  0.50341317  -0.00965842  1
  K  K7  1  0.32759069  0.50936301  0.50553745  1
  K  K8  1  0.66357334  -0.00901036  0.00312537  1
  K  K9  1  0.65173876  -0.00214423  0.49756597  1
  K  K10  1  0.66875749  0.51094583  -0.01375224  1
  K  K11  1  0.67145677  0.50754745  0.50597172  1
  K  K12  1  0.17095500  0.25868689  -0.00530761  1
  K  K13  1  0.16949939  0.25486149  0.50155593  1
  K  K14  1  0.17256232  0.73947486  0.00483663  1
  K  K15  1  0.16626485  0.73705129  0.49223070  1
  K  K16  1  0.49726178  0.24806979  -0.00644962  1
  K  K17  1  0.49897615  0.24993075  0.50640945  1
  K  K18  1  0.50201077  0.74593529  0.00232582  1
  K  K19  1  0.50447829  0.74690946  0.49826681  1
  K  K20  1  0.82093057  0.25233209  -0.00648228  1
  K  K21  1  0.83368620  0.25350232  0.50376473  1
  K  K22  1  0.82883315  0.74192045  0.00947952  1
  K  K23  1  0.83523433  0.74366310  0.49465582  1
  Na  Na24  1  0.49990103  0.50078970  0.75101319  1
  Na  Na25  1  0.49932802  0.83101374  0.25177993  1
  Na  Na26  1  0.33510824  0.07725742  0.25200590  1
  Li  Li27  1  0.15861932  0.50724034  0.24277961  1
  Li  Li28  1  0.66146672  0.25530518  0.75302358  1
  Li  Li29  1  0.00723794  0.58725446  0.24956955  1
  Li  Li30  1  0.00428850  0.90746783  0.25688446  1
  Li  Li31  1  0.16924560  0.66331501  0.74959836  1
  Mg  Mg32  1  0.00286014  0.75147480  0.75014980  1
  Mg  Mg33  1  0.33007839  0.25043118  0.75606379  1
  Mg  Mg34  1  0.50054033  0.49801913  0.24772811  1
  Mg  Mg35  1  0.49904059  0.00129125  0.75009419  1
  Mg  Mg36  1  0.66765377  0.74931154  0.74483939  1
  Mg  Mg37  1  0.49939493  -0.00453324  0.25140316  1
  Mg  Mg38  1  0.66963871  0.24858624  0.24949103  1
  Mg  Mg39  1  0.83056685  0.00289427  0.74872493  1
  Mg  Mg40  1  0.16508641  0.50183992  0.75308601  1
  Mg  Mg41  1  0.33131194  0.74802230  0.25180557  1
  Mg  Mg42  1  0.16718376  0.00167095  0.75302442  1
  Mg  Mg43  1  -0.00100532  0.74873528  0.25020405  1
  Mg  Mg44  1  0.83152059  0.50054335  0.74931260  1
  Mg  Mg45  1  0.83762119  -0.00400935  0.25160761  1
  Mg  Mg46  1  0.16395368  -0.00498655  0.25136674  1
  Mg  Mg47  1  0.66759874  0.74994892  0.24803152  1
  Mg  Mg48  1  0.33132705  0.74740368  0.74804049  1
  Mg  Mg49  1  0.83979415  0.50057151  0.25150517  1
  Mg  Mg50  1  -0.00258084  0.25149890  0.75289454  1
  Mg  Mg51  1  0.00393151  0.24944359  0.24915329  1
  Mg  Mg52  1  0.33532401  0.24835341  0.24892971  1
  Mg  Mg53  1  0.16386106  0.66121983  0.24988975  1
  Mg  Mg54  1  0.33544375  0.08552923  0.75564364  1
  Mg  Mg55  1  0.00583641  0.41969753  0.24939278  1
  Mg  Mg56  1  0.00452658  0.08054951  0.25223429  1
  Mg  Mg57  1  0.33255239  0.91265120  0.25427333  1
  Mg  Mg58  1  0.66957510  0.58304566  0.24969434  1
  Mg  Mg59  1  0.66918118  0.41469046  0.24867702  1
  Mg  Mg60  1  0.16659704  0.33616291  0.75372075  1
  Mg  Mg61  1  0.50075960  0.33223733  0.24770267  1
  Mg  Mg62  1  -0.00154379  0.08552095  0.75175934  1
  Mg  Mg63  1  0.83914972  0.66399235  0.24853657  1
  Mg  Mg64  1  0.33062128  0.58459040  0.75022355  1
  Mg  Mg65  1  0.50075693  0.66491394  0.24813714  1
  Mg  Mg66  1  0.66815487  0.08182089  0.24949402  1
  Mg  Mg67  1  0.66308657  0.91796289  0.74393404  1
  Mg  Mg68  1  0.16492600  0.83195574  0.25342276  1
  Mg  Mg69  1  0.83785546  0.33385399  0.24923234  1
  Mg  Mg70  1  0.16828354  0.16709849  0.75519619  1
  Mg  Mg71  1  0.49946454  0.16705404  0.75281698  1
  Mg  Mg72  1  0.49961100  0.83544481  0.74626187  1
  Mg  Mg73  1  0.33457361  0.91579475  0.75086628  1
  Mg  Mg74  1  0.49878592  0.66559834  0.74554264  1
  Mg  Mg75  1  0.33184667  0.41629221  0.75422370  1
  Mg  Mg76  1  0.17108686  0.16359900  0.25089700  1
  Mg  Mg77  1  0.83482529  0.83263621  0.24947490  1
  Mg  Mg78  1  0.00012734  0.91822330  0.75016406  1
  Mg  Mg79  1  0.33087884  0.41713478  0.24633985  1
  Mg  Mg80  1  0.83292746  0.66737719  0.74694868  1
  Mg  Mg81  1  0.66227757  0.08902463  0.74859035  1
  Mg  Mg82  1  0.83705861  0.16481849  0.25006741  1
  Mg  Mg83  1  0.83192449  0.83630634  0.74655073  1
  Mg  Mg84  1  0.50000156  0.33364862  0.75238853  1
  Mg  Mg85  1  0.50051905  0.16415753  0.24931001  1
  Mg  Mg86  1  0.00212703  0.58652216  0.74842258  1
  Mg  Mg87  1  0.66529980  0.41648966  0.74896953  1
  Mg  Mg88  1  0.66781382  0.91253243  0.25026572  1
  Mg  Mg89  1  0.82762139  0.16966531  0.74952206  1
  Mg  Mg90  1  0.33003969  0.58186081  0.24836284  1
  Mg  Mg91  1  0.16895122  0.33481841  0.24747676  1
  Mg  Mg92  1  -0.00030639  0.41680096  0.75298225  1
  Mg  Mg93  1  0.16728065  0.83274712  0.75224459  1
  Mg  Mg94  1  0.82912059  0.33432672  0.75214415  1
  Mg  Mg95  1  0.66680264  0.58582351  0.74782714  1
  Fe  Fe96  1  0.19003364  0.58240801  0.61311028  1
  Fe  Fe97  1  0.52089565  0.58200824  0.60506341  1
  Fe  Fe98  1  0.13839403  0.92076725  0.39304183  1
  Fe  Fe99  1  0.63906851  0.83391664  0.39098954  1
  Fe  Fe100  1  0.69043202  0.83067517  0.10692237  1
  Fe  Fe101  1  0.30634187  0.16129522  0.89665322  1
  Fe  Fe102  1  0.97836173  0.66440662  0.38945734  1
  Fe  Fe103  1  0.47751243  0.07617813  0.89300092  1
  Fe  Fe104  1  0.19039377  0.58495331  0.10799047  1
  Fe  Fe105  1  0.52231897  0.92097783  0.60756954  1
  Fe  Fe106  1  0.80396122  0.41708829  0.88926493  1
  Fe  Fe107  1  0.31157525  0.33637480  0.89537265  1
  Fe  Fe108  1  0.47755120  0.58850630  0.89033006  1
  Fe  Fe109  1  0.30443604  0.82856326  0.39354156  1
  Fe  Fe110  1  0.69185964  0.66586762  0.60605560  1
  Fe  Fe111  1  0.96789890  0.83606753  0.39181429  1
  Fe  Fe112  1  0.13380411  0.42131770  0.89275553  1
  Si  Si113  1  0.47620083  0.57870161  0.38123877  1
  Si  Si114  1  0.52097388  0.09184591  0.61088139  1
  Si  Si115  1  0.81283399  0.58656423  0.88605931  1
  Si  Si116  1  0.52570059  0.41291063  0.11318314  1
  Si  Si117  1  0.85948124  0.91854189  0.11226677  1
  Si  Si118  1  0.14920330  0.09080135  0.39011687  1
  Si  Si119  1  0.97241082  0.83952269  0.88430241  1
  Si  Si120  1  0.52694755  0.57831023  0.11422433  1
  Si  Si121  1  0.30568782  0.67050780  0.88758822  1
  Si  Si122  1  0.69380366  0.16729885  0.11421382  1
  Si  Si123  1  0.63618514  0.33457768  0.88720977  1
  Si  Si124  1  0.69187182  0.16958737  0.61354469  1
  Si  Si125  1  0.18757554  0.41327529  0.61299423  1
  Si  Si126  1  0.81302152  0.08627338  0.38527866  1
  Si  Si127  1  0.46722738  0.92194124  0.39078227  1
  Si  Si128  1  0.02562167  0.83652704  0.61623903  1
  Si  Si129  1  0.02105831  0.67094643  0.11068492  1
  Si  Si130  1  0.96934105  0.16405703  0.88467163  1
  Si  Si131  1  0.97101055  0.67522754  0.88389622  1
  Si  Si132  1  0.97877813  0.16959112  0.38558112  1
  Si  Si133  1  0.02381966  0.32903065  0.61548947  1
  Si  Si134  1  0.69268123  0.33485165  0.61315930  1
  Si  Si135  1  0.85537391  0.08459666  0.61410160  1
  Si  Si136  1  0.80633634  0.92214984  0.88297581  1
  Si  Si137  1  0.02776274  0.16380445  0.11442507  1
  Si  Si138  1  0.19143868  0.07988139  0.11545843  1
  Si  Si139  1  0.52287799  0.92137008  0.11208423  1
  Si  Si140  1  0.69487671  0.33377188  0.11366712  1
  Si  Si141  1  0.31351121  0.33465904  0.38428636  1
  Si  Si142  1  0.86102543  0.41508409  0.61422122  1
  Si  Si143  1  0.52582921  0.08581600  0.11379839  1
  Si  Si144  1  0.86312915  0.92012389  0.61419736  1
  Si  Si145  1  0.81012750  0.41290327  0.38442328  1
  Si  Si146  1  0.64154620  0.66221764  0.38455832  1
  Si  Si147  1  0.47665961  0.41662735  0.88942384  1
  Si  Si148  1  0.48130598  0.90858640  0.88713222  1
  Si  Si149  1  0.35734387  0.83474316  0.11545000  1
  Si  Si150  1  0.14572698  0.57676757  0.38471965  1
  Si  Si151  1  0.35419387  0.33014616  0.61617799  1
  Si  Si152  1  0.19126848  0.91385780  0.11316994  1
  Si  Si153  1  0.36449048  0.66838384  0.11124903  1
  Si  Si154  1  0.02365694  0.16490098  0.61645577  1
  Si  Si155  1  0.80451828  0.57790396  0.38643129  1
  Si  Si156  1  0.35514178  0.67094281  0.60957332  1
  Si  Si157  1  0.69686208  0.83920546  0.60919548  1
  Si  Si158  1  0.18916212  0.08226362  0.61687327  1
  Si  Si159  1  0.69328988  0.65723952  0.11154469  1
  Si  Si160  1  0.19035388  0.91754798  0.61717887  1
  Si  Si161  1  0.86555996  0.58188191  0.61224845  1
  Si  Si162  1  0.47903812  0.41529065  0.38274062  1
  Si  Si163  1  0.14176346  0.91799997  0.88642184  1
  Si  Si164  1  0.64800094  0.67190247  0.88590211  1
  Si  Si165  1  0.86041978  0.08416733  0.11485049  1
  Si  Si166  1  0.35285124  0.16770642  0.61648841  1
  Si  Si167  1  0.31347624  0.17253119  0.38564428  1
  Si  Si168  1  0.35285157  0.83349734  0.61325496  1
  Si  Si169  1  0.64722954  0.83223467  0.88120780  1
  Si  Si170  1  0.02594032  0.67280194  0.61560759  1
  Si  Si171  1  0.86373436  0.41424382  0.11405446  1
  Si  Si172  1  0.13216532  0.08271967  0.88938999  1
  Si  Si173  1  0.35890954  0.16598629  0.11521334  1
  Si  Si174  1  0.02767574  0.32886239  0.11359549  1
  Si  Si175  1  0.30899902  0.83542601  0.88652518  1
  Si  Si176  1  0.52111576  0.40773649  0.61121590  1
  Si  Si177  1  0.97847604  0.33408821  0.38474731  1
  Si  Si178  1  0.86073563  0.57905557  0.11451158  1
  Si  Si179  1  0.19307765  0.41224396  0.11158855  1
  Si  Si180  1  0.35959631  0.32983873  0.11334904  1
  Si  Si181  1  0.80327335  0.08687783  0.88442030  1
  Si  Si182  1  0.14553867  0.41211826  0.38350782  1
  Si  Si183  1  0.64514159  0.16613347  0.38570496  1
  Si  Si184  1  0.13610796  0.59202232  0.88658733  1
  Si  Si185  1  0.48005751  0.08554830  0.38626899  1
  Si  Si186  1  0.96772027  0.32782197  0.88930901  1
  Si  Si187  1  0.63959646  0.16897165  0.88753590  1
  Si  Si188  1  0.64384863  0.33091237  0.38425871  1
  Si  Si189  1  0.80060843  0.92249439  0.38958020  1
  Si  Si190  1  0.31305248  0.65855330  0.38685489  1
  Si  Si191  1  0.02501284  0.83440655  0.11476055  1
  O  O192  1  0.27229407  0.11894267  0.08932786  1
  O  O193  1  0.26881963  0.11758277  0.58713930  1
  O  O194  1  0.28023325  0.62960151  0.07317679  1
  O  O195  1  0.28138350  0.61586455  0.57666486  1
  O  O196  1  0.60514906  0.12565373  0.08558310  1
  O  O197  1  0.59993643  0.13368654  0.58240478  1
  O  O198  1  0.60880618  0.60703204  0.08487293  1
  O  O199  1  0.60611145  0.61074541  0.56110347  1
  O  O200  1  0.93810686  0.12284245  0.08501129  1
  O  O201  1  0.93595640  0.12102769  0.58579499  1
  O  O202  1  0.93118382  0.62608671  0.08417827  1
  O  O203  1  0.94773057  0.61747121  0.58663077  1
  O  O204  1  0.10761388  0.36223784  0.08484682  1
  O  O205  1  0.10492645  0.35891805  0.58547579  1
  O  O206  1  0.10289915  0.87175115  0.08197716  1
  O  O207  1  0.10818937  0.86750756  0.58828198  1
  O  O208  1  0.44194317  0.36402555  0.08614941  1
  O  O209  1  0.43736764  0.35443707  0.58477184  1
  O  O210  1  0.42878957  0.88394239  0.08763365  1
  O  O211  1  0.43008319  0.85995331  0.57830852  1
  O  O212  1  0.77357722  0.37201269  0.08570850  1
  O  O213  1  0.77001857  0.37587564  0.58254361  1
  O  O214  1  0.77854573  0.87661102  0.07134911  1
  O  O215  1  0.78552463  0.86786503  0.58492887  1
  O  O216  1  0.27389802  0.37361948  0.08409045  1
  O  O217  1  0.26945311  0.37674981  0.58481260  1
  O  O218  1  0.26597423  0.87266467  0.08128684  1
  O  O219  1  0.27220174  0.88881666  0.58878653  1
  O  O220  1  0.60669926  0.37662553  0.08533967  1
  O  O221  1  0.60131817  0.37011011  0.57947491  1
  O  O222  1  0.58888636  0.88077822  0.07342084  1
  O  O223  1  0.62491171  0.89770396  0.58141999  1
  O  O224  1  0.93833388  0.37053114  0.08483560  1
  O  O225  1  0.93503886  0.37045754  0.58357657  1
  O  O226  1  0.94432882  0.88717178  0.08597288  1
  O  O227  1  0.94855349  0.89289543  0.58828484  1
  O  O228  1  0.10300974  0.12307934  0.08308477  1
  O  O229  1  0.10248892  0.12832865  0.58669194  1
  O  O230  1  0.09084825  0.63624976  0.07182439  1
  O  O231  1  0.10347126  0.64880409  0.58099149  1
  O  O232  1  0.43874992  0.13071424  0.08572827  1
  O  O233  1  0.43544593  0.14177489  0.58540663  1
  O  O234  1  0.44671982  0.62972485  0.08565808  1
  O  O235  1  0.43779333  0.65290543  0.57731059  1
  O  O236  1  0.77255737  0.12919778  0.08565398  1
  O  O237  1  0.76890466  0.12858807  0.58255281  1
  O  O238  1  0.76882917  0.61393304  0.08182260  1
  O  O239  1  0.78450379  0.62361179  0.57394141  1
  O  O240  1  0.06672714  0.12913844  0.41705323  1
  O  O241  1  0.04068461  0.10317717  0.91193476  1
  O  O242  1  0.07239509  0.60490547  0.42288013  1
  O  O243  1  0.05763744  0.63359749  0.91494279  1
  O  O244  1  0.39959467  0.12536144  0.41273343  1
  O  O245  1  0.38187146  0.08939666  0.92964814  1
  O  O246  1  0.39353755  0.60242063  0.41133972  1
  O  O247  1  0.38346209  0.62361737  0.92677507  1
  O  O248  1  0.73370150  0.12393758  0.41518744  1
  O  O249  1  0.72579347  0.11992138  0.91615952  1
  O  O250  1  0.71585903  0.60185414  0.41018944  1
  O  O251  1  0.73102479  0.62092400  0.91369424  1
  O  O252  1  0.23091311  0.36372653  0.41367343  1
  O  O253  1  0.22248774  0.36740379  0.93439876  1
  O  O254  1  0.21500881  0.85390765  0.43426974  1
  O  O255  1  0.22989703  0.87534860  0.91527176  1
  O  O256  1  0.56336764  0.36594247  0.41231289  1
  O  O257  1  0.54912932  0.35328384  0.91585651  1
  O  O258  1  0.54252024  0.86759401  0.42219519  1
  O  O259  1  0.56018500  0.85070667  0.90942731  1
  O  O260  1  0.89735542  0.36833993  0.41355494  1
  O  O261  1  0.88105613  0.34204782  0.91737445  1
  O  O262  1  0.86953783  0.86570564  0.42488397  1
  O  O263  1  0.89449816  0.87913636  0.91341420  1
  O  O264  1  0.06623231  0.37618718  0.41546420  1
  O  O265  1  0.03927929  0.38254803  0.92446938  1
  O  O266  1  0.04029499  0.90915987  0.42607393  1
  O  O267  1  0.06088951  0.88204995  0.91450038  1
  O  O268  1  0.39829445  0.38291102  0.41277431  1
  O  O269  1  0.39837257  0.40186495  0.92811011  1
  O  O270  1  0.38380340  0.90203148  0.42087060  1
  O  O271  1  0.39739131  0.87788604  0.91615130  1
  O  O272  1  0.73237132  0.37274140  0.41389201  1
  O  O273  1  0.70939897  0.38753086  0.92497446  1
  O  O274  1  0.71397496  0.91092839  0.41823273  1
  O  O275  1  0.72461459  0.88918843  0.91086618  1
  O  O276  1  0.23084956  0.14583125  0.41626166  1
  O  O277  1  0.20176646  0.13690021  0.92582679  1
  O  O278  1  0.23421125  0.61992380  0.41509202  1
  O  O279  1  0.21794400  0.64428155  0.91216677  1
  O  O280  1  0.56674607  0.13270887  0.41733855  1
  O  O281  1  0.56671423  0.14096626  0.92626900  1
  O  O282  1  0.55630915  0.63008205  0.40956981  1
  O  O283  1  0.57205450  0.64952681  0.92356503  1
  O  O284  1  0.89764104  0.13533268  0.41420375  1
  O  O285  1  0.88557141  0.13693428  0.91388644  1
  O  O286  1  0.88353762  0.62301954  0.42297890  1
  O  O287  1  0.89179752  0.64238839  0.91426847  1
  O  O288  1  0.18348062  -0.00217763  0.08338351  1
  O  O289  1  0.17186706  0.00026545  0.58827743  1
  O  O290  1  0.17769826  0.48903004  0.07630180  1
  O  O291  1  0.16514539  0.48867249  0.57590014  1
  O  O292  1  0.51345874  0.00553488  0.08208209  1
  O  O293  1  0.50336330  0.01590522  0.57388132  1
  O  O294  1  0.50972774  0.49509367  0.08581745  1
  O  O295  1  0.49723206  0.48414019  0.57622988  1
  O  O296  1  0.85141947  0.00358927  0.08359029  1
  O  O297  1  0.84518945  0.00254551  0.58500969  1
  O  O298  1  0.85984537  0.49584133  0.08452309  1
  O  O299  1  0.86046540  0.49680757  0.58498101  1
  O  O300  1  0.01688233  0.24592790  0.08488195  1
  O  O301  1  0.00917788  0.24607362  0.58548590  1
  O  O302  1  0.00331493  0.75461455  0.08065866  1
  O  O303  1  -0.00205207  0.75614374  0.58981304  1
  O  O304  1  0.34548827  0.24759868  0.08451995  1
  O  O305  1  0.33002753  0.24834622  0.58579740  1
  O  O306  1  0.36267844  0.75317091  0.08433645  1
  O  O307  1  0.32117317  0.75355261  0.58724421  1
  O  O308  1  0.68644271  0.25046036  0.08537448  1
  O  O309  1  0.69164577  0.25162767  0.58292810  1
  O  O310  1  0.68059398  0.73438643  0.07519034  1
  O  O311  1  0.67570215  0.76165522  0.57619671  1
  O  O312  1  0.17158170  0.01634927  0.42720622  1
  O  O313  1  0.15144747  -0.00060399  0.91702668  1
  O  O314  1  0.16529274  0.49228108  0.41248383  1
  O  O315  1  0.14940864  0.51671639  0.92565796  1
  O  O316  1  0.49406920  0.00620507  0.41886239  1
  O  O317  1  0.51399443  -0.01748768  0.92299397  1
  O  O318  1  0.50065261  0.49644620  0.41007555  1
  O  O319  1  0.51682479  0.49466223  0.91407168  1
  O  O320  1  0.83209493  0.00663774  0.41554277  1
  O  O321  1  0.82152398  0.00429727  0.91280121  1
  O  O322  1  0.81818750  0.49329621  0.41452664  1
  O  O323  1  0.83647578  0.51025574  0.92220070  1
  O  O324  1  0.33546394  0.25422576  0.41634053  1
  O  O325  1  0.34352562  0.24789567  0.93383348  1
  O  O326  1  0.33787095  0.73398372  0.42334047  1
  O  O327  1  0.31704646  0.75476495  0.91739989  1
  O  O328  1  0.65765932  0.24913046  0.41435786  1
  O  O329  1  0.66445181  0.25167186  0.91295605  1
  O  O330  1  0.66699870  0.73782998  0.42034698  1
  O  O331  1  0.68086579  0.75422038  0.91096621  1
  O  O332  1  0.98831539  0.25206100  0.41551794  1
  O  O333  1  0.99801584  0.24338745  0.91337774  1
  O  O334  1  1.00127424  0.75005274  0.43414798  1
  O  O335  1  0.98172674  0.75804488  0.91329522  1
  O  O336  1  0.20126193  0.08155814  0.19435557  1
  O  O337  1  0.20557233  0.08314544  0.69691307  1
  O  O338  1  0.21345912  0.58411771  0.19807986  1
  O  O339  1  0.20942737  0.58126690  0.70344636  1
  O  O340  1  0.54637997  0.08659936  0.19409360  1
  O  O341  1  0.54239141  0.08740747  0.69131860  1
  O  O342  1  0.54621459  0.57706775  0.19468934  1
  O  O343  1  0.55146210  0.59171685  0.69488055  1
  O  O344  1  0.87816818  0.08593536  0.19496694  1
  O  O345  1  0.87448593  0.08552966  0.69444111  1
  O  O346  1  0.87280897  0.57788078  0.19369310  1
  O  O347  1  0.87828103  0.58337879  0.69319217  1
  O  O348  1  0.04385960  0.33014934  0.19403142  1
  O  O349  1  0.03876791  0.33008363  0.69533751  1
  O  O350  1  0.04656351  0.82966194  0.19353415  1
  O  O351  1  0.04346593  0.83816819  0.69691709  1
  O  O352  1  0.37921436  0.33134631  0.19416830  1
  O  O353  1  0.37380676  0.33101620  0.69589489  1
  O  O354  1  0.36660351  0.83126095  0.19398906  1
  O  O355  1  0.37401302  0.83577272  0.69450972  1
  O  O356  1  0.71249245  0.33189520  0.19438482  1
  O  O357  1  0.71150907  0.33532050  0.69220788  1
  O  O358  1  0.71393522  0.83320059  0.19772724  1
  O  O359  1  0.71348410  0.83782628  0.69130220  1
  O  O360  1  0.21335524  0.40960389  0.19172399  1
  O  O361  1  0.20484630  0.41453404  0.69310518  1
  O  O362  1  0.20854568  0.91581197  0.19241411  1
  O  O363  1  0.20716921  0.91875182  0.69776731  1
  O  O364  1  0.54644472  0.41221253  0.19397843  1
  O  O365  1  0.54585189  0.40622637  0.69072431  1
  O  O366  1  0.54934352  0.92529379  0.19133007  1
  O  O367  1  0.54207707  0.92021503  0.69968644  1
  O  O368  1  0.87876103  0.41292840  0.19438780  1
  O  O369  1  0.87884059  0.41373432  0.69411209  1
  O  O370  1  0.86953237  0.91870554  0.19172618  1
  O  O371  1  0.87823757  0.92183272  0.69497530  1
  O  O372  1  0.04481406  0.16587726  0.19485189  1
  O  O373  1  0.04081485  0.16521209  0.69655629  1
  O  O374  1  0.04454532  0.67029028  0.19002586  1
  O  O375  1  0.03973263  0.67136258  0.69585828  1
  O  O376  1  0.38222842  0.17155399  0.19451297  1
  O  O377  1  0.37210770  0.16686904  0.69609973  1
  O  O378  1  0.37828346  0.66392580  0.19172425  1
  O  O379  1  0.37303158  0.66923493  0.69091016  1
  O  O380  1  0.71253790  0.16762419  0.19480486  1
  O  O381  1  0.71126055  0.16450035  0.69264888  1
  O  O382  1  0.71249623  0.65987076  0.19222423  1
  O  O383  1  0.71519946  0.66837381  0.69884142  1
  O  O384  1  0.12656846  0.08827837  0.30926010  1
  O  O385  1  0.11928001  0.08273784  0.80800669  1
  O  O386  1  0.12510212  0.58072700  0.30554272  1
  O  O387  1  0.11585013  0.58391078  0.80712282  1
  O  O388  1  0.47027416  0.08567376  0.30706799  1
  O  O389  1  0.45663033  0.08206038  0.80011159  1
  O  O390  1  0.45862330  0.57795639  0.30070563  1
  O  O391  1  0.44895289  0.59499621  0.80104277  1
  O  O392  1  0.79163639  0.08796548  0.30495351  1
  O  O393  1  0.78797940  0.08549679  0.80404316  1
  O  O394  1  0.79032094  0.57772713  0.30536184  1
  O  O395  1  0.79612858  0.58540366  0.80534552  1
  O  O396  1  0.29460294  0.33319297  0.30400454  1
  O  O397  1  0.28514553  0.33260636  0.80202799  1
  O  O398  1  0.28674640  0.82947559  0.30109807  1
  O  O399  1  0.28977026  0.83675845  0.80634484  1
  O  O400  1  0.62650589  0.33118061  0.30377691  1
  O  O401  1  0.62117303  0.33813426  0.80701128  1
  O  O402  1  0.63143606  0.83086850  0.30131194  1
  O  O403  1  0.62892460  0.83488969  0.80109153  1
  O  O404  1  0.95921619  0.33104583  0.30447770  1
  O  O405  1  0.95414169  0.33088264  0.80736793  1
  O  O406  1  0.95141471  0.82943239  0.30020365  1
  O  O407  1  0.95453954  0.83984987  0.80411806  1
  O  O408  1  0.12334180  0.40697055  0.30443388  1
  O  O409  1  0.11818088  0.41692947  0.80015000  1
  O  O410  1  0.12296383  0.91604315  0.30164341  1
  O  O411  1  0.12239241  0.91937822  0.80608915  1
  O  O412  1  0.46082878  0.41234410  0.30241607  1
  O  O413  1  0.45117779  0.40803992  0.80928539  1
  O  O414  1  0.45194945  0.92565647  0.31041698  1
  O  O415  1  0.45672847  0.91443275  0.80654120  1
  O  O416  1  0.79060030  0.41118992  0.30409195  1
  O  O417  1  0.78869465  0.41788847  0.79772730  1
  O  O418  1  0.79009040  0.92195560  0.30820727  1
  O  O419  1  0.79039293  0.92053595  0.80263035  1
  O  O420  1  0.29046676  0.17457905  0.30637499  1
  O  O421  1  0.28608122  0.16470105  0.80299596  1
  O  O422  1  0.29283395  0.66239372  0.30617904  1
  O  O423  1  0.29405832  0.67163749  0.80787201  1
  O  O424  1  0.62781662  0.16728051  0.30524244  1
  O  O425  1  0.62052639  0.16313267  0.80750927  1
  O  O426  1  0.62470566  0.66246180  0.30335686  1
  O  O427  1  0.62626825  0.67110169  0.80560707  1
  O  O428  1  0.95984469  0.16902308  0.30507815  1
  O  O429  1  0.95162850  0.16517278  0.80386309  1
  O  O430  1  0.95539626  0.66527721  0.29850837  1
  O  O431  1  0.95439637  0.67229528  0.80360354  1
  F  F432  1  0.04670750  0.00800227  0.19897962  1
  F  F433  1  0.04407620  0.00292412  0.70324981  1
  F  F434  1  0.04090277  0.49459152  0.19729450  1
  F  F435  1  0.04091518  0.50046873  0.70052606  1
  F  F436  1  0.38353067  -0.01048113  0.19818629  1
  F  F437  1  0.37419078  0.00001247  0.70243681  1
  F  F438  1  0.38241046  0.49517790  0.19757934  1
  F  F439  1  0.36294880  0.49720384  0.70077904  1
  F  F440  1  0.71613059  0.00405019  0.20195615  1
  F  F441  1  0.71234229  0.00454369  0.69999706  1
  F  F442  1  0.71504930  0.49516276  0.20214056  1
  F  F443  1  0.71393377  0.50171650  0.69642619  1
  F  F444  1  0.21322456  0.24842286  0.20086535  1
  F  F445  1  0.20462502  0.24835015  0.70128028  1
  F  F446  1  0.21035560  0.74568154  0.20185379  1
  F  F447  1  0.21118679  0.75637139  0.70383737  1
  F  F448  1  0.54947332  0.24906945  0.20152717  1
  F  F449  1  0.54005156  0.24847035  0.70350992  1
  F  F450  1  0.55083063  0.73612508  0.19505017  1
  F  F451  1  0.54650503  0.75382619  0.70049722  1
  F  F452  1  0.88010825  0.24905216  0.20121879  1
  F  F453  1  0.87801401  0.24941277  0.70026420  1
  F  F454  1  0.87517729  0.74803393  0.19560988  1
  F  F455  1  0.88124893  0.75477356  0.70153587  1
  F  F456  1  0.28083419  -0.00835185  0.30064639  1
  F  F457  1  0.28663183  -0.00141080  0.79952092  1
  F  F458  1  0.30214216  0.49527699  0.29974168  1
  F  F459  1  0.28518534  0.49786370  0.80319452  1
  F  F460  1  0.62319120  0.00267203  0.29660351  1
  F  F461  1  0.62468028  0.00283294  0.79624957  1
  F  F462  1  0.62294866  0.49463342  0.29668658  1
  F  F463  1  0.63805507  0.50169412  0.79894482  1
  F  F464  1  0.95175080  0.01003086  0.30117915  1
  F  F465  1  0.95230777  0.00199823  0.79815979  1
  F  F466  1  0.95141506  0.48603070  0.30413811  1
  F  F467  1  0.95303407  0.50210913  0.79623009  1
  F  F468  1  0.12378282  0.24935538  0.29679200  1
  F  F469  1  0.11645819  0.24847615  0.79890297  1
  F  F470  1  0.12113289  0.74593512  0.29782059  1
  F  F471  1  0.11553833  0.76203879  0.80472023  1
  F  F472  1  0.45958149  0.25027709  0.29842462  1
  F  F473  1  0.45257169  0.24826023  0.79931425  1
  F  F474  1  0.45062274  0.73640155  0.29922411  1
  F  F475  1  0.45446760  0.75372097  0.79364918  1
  F  F476  1  0.79100094  0.25014150  0.29784768  1
  F  F477  1  0.78934719  0.24925138  0.79751397  1
  F  F478  1  0.78897324  0.74395482  0.29480516  1
  F  F479  1  0.79151116  0.75557109  0.79677795  1
