# generated using pymatgen
data_K24Na3Li5Mg64Fe17Si79(O5F)48
_symmetry_space_group_name_H-M   'P 1'
_cell_length_a   16.08067475
_cell_length_b   18.56850014
_cell_length_c   20.54434484
_cell_angle_alpha   90.02021905
_cell_angle_beta   99.99850663
_cell_angle_gamma   89.96232473
_symmetry_Int_Tables_number   1
_chemical_formula_structural   K24Na3Li5Mg64Fe17Si79(O5F)48
_chemical_formula_sum   'K24 Na3 Li5 Mg64 Fe17 Si79 O240 F48'
_cell_volume   6041.24901606
_cell_formula_units_Z   1
loop_
 _symmetry_equiv_pos_site_id
 _symmetry_equiv_pos_as_xyz
  1  'x, y, z'
loop_
 _atom_site_type_symbol
 _atom_site_label
 _atom_site_symmetry_multiplicity
 _atom_site_fract_x
 _atom_site_fract_y
 _atom_site_fract_z
 _atom_site_occupancy
  K  K0  1  -0.00305802  0.00053753  -0.00877401  1
  K  K1  1  0.00473130  0.00362439  0.50857873  1
  K  K2  1  -0.01136930  0.49875901  -0.01287272  1
  K  K3  1  -0.00371869  0.50384829  0.50133389  1
  K  K4  1  0.31669182  -0.00245663  -0.01421890  1
  K  K5  1  0.33364215  0.00152170  0.50517276  1
  K  K6  1  0.33347292  0.50060042  -0.00459592  1
  K  K7  1  0.35256835  0.49833711  0.50747845  1
  K  K8  1  0.67075098  0.00470879  -0.01490277  1
  K  K9  1  0.66429368  -0.00153231  0.50888505  1
  K  K10  1  0.66777203  0.50110350  -0.00376690  1
  K  K11  1  0.66819160  0.50247983  0.49813253  1
  K  K12  1  0.16382615  0.25002895  -0.01440725  1
  K  K13  1  0.16126201  0.23902624  0.50904080  1
  K  K14  1  0.17257674  0.75113659  -0.00393885  1
  K  K15  1  0.16883185  0.74965241  0.50261248  1
  K  K16  1  0.50256434  0.24477820  -0.01488209  1
  K  K17  1  0.50574344  0.24764846  0.51465319  1
  K  K18  1  0.49546365  0.75642269  -0.00533976  1
  K  K19  1  0.49514524  0.74892846  0.50120592  1
  K  K20  1  0.83063922  0.24394936  -0.01244099  1
  K  K21  1  0.84217458  0.25070059  0.50385682  1
  K  K22  1  0.83181379  0.75346187  -0.00792689  1
  K  K23  1  0.83786813  0.75016794  0.50463269  1
  Na  Na24  1  0.16344140  0.00127638  0.75370185  1
  Na  Na25  1  0.83491425  0.82969073  0.75839686  1
  Na  Na26  1  0.83547323  0.16945545  0.25278892  1
  Li  Li27  1  0.00172839  0.75248104  0.25053657  1
  Li  Li28  1  0.16503563  -0.00290030  0.25213475  1
  Li  Li29  1  0.49937982  0.66458250  0.25959907  1
  Li  Li30  1  0.50212361  0.16283527  0.75096986  1
  Li  Li31  1  0.00338720  0.07969566  0.75145219  1
  Mg  Mg32  1  -0.00116986  0.24963940  0.25152413  1
  Mg  Mg33  1  0.33731401  0.24678119  0.74765267  1
  Mg  Mg34  1  0.66727612  0.25113444  0.24981040  1
  Mg  Mg35  1  0.50176692  0.49828890  0.74493002  1
  Mg  Mg36  1  0.49805566  -0.00014862  0.24840318  1
  Mg  Mg37  1  0.16417447  0.50322510  0.24811478  1
  Mg  Mg38  1  0.82956641  0.50329776  0.25289962  1
  Mg  Mg39  1  0.00013172  0.74905482  0.75273153  1
  Mg  Mg40  1  0.83508718  0.00164903  0.25040935  1
  Mg  Mg41  1  0.83465024  -0.00150321  0.75483392  1
  Mg  Mg42  1  0.33255011  0.74953581  0.74893087  1
  Mg  Mg43  1  0.49881454  0.50277128  0.24975335  1
  Mg  Mg44  1  0.66244469  0.74957670  0.25105756  1
  Mg  Mg45  1  0.33046792  0.24981382  0.24771625  1
  Mg  Mg46  1  0.83739938  0.49887597  0.75228644  1
  Mg  Mg47  1  0.49867550  0.00285382  0.75179476  1
  Mg  Mg48  1  0.66571640  0.24694503  0.74684308  1
  Mg  Mg49  1  0.00239405  0.24774888  0.75130697  1
  Mg  Mg50  1  0.16759019  0.49788908  0.74992040  1
  Mg  Mg51  1  0.33375483  0.74931166  0.25244066  1
  Mg  Mg52  1  0.66756953  0.75083109  0.75153292  1
  Mg  Mg53  1  0.16440031  0.16285126  0.24982798  1
  Mg  Mg54  1  0.49959825  0.16620724  0.24694583  1
  Mg  Mg55  1  0.66882511  0.41727898  0.25190880  1
  Mg  Mg56  1  0.83528685  0.33631236  0.25393079  1
  Mg  Mg57  1  0.33503894  0.08489232  0.74981342  1
  Mg  Mg58  1  0.83671333  0.16340085  0.75367525  1
  Mg  Mg59  1  0.66472645  0.58689490  0.25380752  1
  Mg  Mg60  1  0.16689494  0.16454485  0.75072809  1
  Mg  Mg61  1  0.33528652  0.58585251  0.25038692  1
  Mg  Mg62  1  -0.00088224  0.91753295  0.75515769  1
  Mg  Mg63  1  0.83736449  0.33266160  0.75012487  1
  Mg  Mg64  1  0.33119148  0.91617290  0.75108236  1
  Mg  Mg65  1  -0.00008997  0.41289402  0.75086794  1
  Mg  Mg66  1  0.32955804  0.91602523  0.25116094  1
  Mg  Mg67  1  0.66563420  0.91751653  0.75099630  1
  Mg  Mg68  1  0.66721236  0.91638586  0.24903755  1
  Mg  Mg69  1  0.16738978  0.66452356  0.75050015  1
  Mg  Mg70  1  0.16666306  0.83432911  0.25037064  1
  Mg  Mg71  1  0.16702722  0.83436275  0.75257690  1
  Mg  Mg72  1  0.83575415  0.83338411  0.24816279  1
  Mg  Mg73  1  0.33347877  0.58362820  0.74778885  1
  Mg  Mg74  1  0.83709103  0.66570518  0.75216712  1
  Mg  Mg75  1  0.49999632  0.33465552  0.24996130  1
  Mg  Mg76  1  0.00400260  0.91619990  0.24908027  1
  Mg  Mg77  1  0.83344646  0.66901084  0.25113460  1
  Mg  Mg78  1  0.66909849  0.58445483  0.74835786  1
  Mg  Mg79  1  -0.00264532  0.58947957  0.24974279  1
  Mg  Mg80  1  0.50064137  0.32926209  0.74718465  1
  Mg  Mg81  1  0.66844850  0.08441364  0.24888446  1
  Mg  Mg82  1  0.33382013  0.41368796  0.74707707  1
  Mg  Mg83  1  0.49809456  0.83430020  0.74925563  1
  Mg  Mg84  1  -0.00172351  0.41817886  0.25075144  1
  Mg  Mg85  1  -0.00064960  0.58358708  0.75198461  1
  Mg  Mg86  1  0.66438189  0.08404911  0.75169448  1
  Mg  Mg87  1  0.66949305  0.41387327  0.74926986  1
  Mg  Mg88  1  0.16478974  0.33531218  0.24834578  1
  Mg  Mg89  1  0.49865660  0.83277012  0.25011355  1
  Mg  Mg90  1  0.33314698  0.41723818  0.24967735  1
  Mg  Mg91  1  0.32935787  0.08257303  0.24773183  1
  Mg  Mg92  1  0.16456076  0.66919582  0.24974691  1
  Mg  Mg93  1  0.16710846  0.33246154  0.74964855  1
  Mg  Mg94  1  0.00290307  0.08213869  0.25084562  1
  Mg  Mg95  1  0.49796766  0.66537425  0.74675123  1
  Fe  Fe96  1  0.80923503  0.91447724  0.89280640  1
  Fe  Fe97  1  0.85902055  0.41855477  0.60938733  1
  Fe  Fe98  1  0.98188481  0.16386853  0.39115357  1
  Fe  Fe99  1  0.35809533  0.66115063  0.60826259  1
  Fe  Fe100  1  0.98105709  0.66417546  0.89449849  1
  Fe  Fe101  1  0.30988365  0.82999267  0.39062283  1
  Fe  Fe102  1  0.30797879  0.16342675  0.89076618  1
  Fe  Fe103  1  0.80936346  0.41437076  0.39193539  1
  Fe  Fe104  1  0.52093625  0.08423860  0.61063839  1
  Fe  Fe105  1  0.35820008  0.33839442  0.60825136  1
  Fe  Fe106  1  0.97653932  0.33554023  0.89362796  1
  Fe  Fe107  1  0.47250366  0.57754298  0.38919026  1
  Fe  Fe108  1  0.02995029  0.33014482  0.60889855  1
  Fe  Fe109  1  0.30660042  0.83333420  0.89124648  1
  Fe  Fe110  1  0.85827135  0.58818430  0.61150676  1
  Fe  Fe111  1  0.80885598  0.59083243  0.39159588  1
  Fe  Fe112  1  0.64031254  0.16902011  0.88879153  1
  Si  Si113  1  0.35449731  0.83190596  0.61197135  1
  Si  Si114  1  0.69434565  0.67413817  0.61419820  1
  Si  Si115  1  0.85920128  0.08192013  0.11380158  1
  Si  Si116  1  0.14841470  0.57894950  0.88814976  1
  Si  Si117  1  0.63666009  0.32882601  0.38525640  1
  Si  Si118  1  0.13622204  0.08550457  0.88857081  1
  Si  Si119  1  0.80956890  0.91611942  0.38480842  1
  Si  Si120  1  0.19092076  0.58469455  0.11229649  1
  Si  Si121  1  0.14102880  0.91410385  0.38613646  1
  Si  Si122  1  0.80251357  0.41992869  0.88908387  1
  Si  Si123  1  0.97616073  0.83929055  0.38273696  1
  Si  Si124  1  0.68613307  0.83612085  0.61664314  1
  Si  Si125  1  0.80326475  0.58567493  0.88869575  1
  Si  Si126  1  0.35849770  0.83401265  0.11342921  1
  Si  Si127  1  0.31320311  0.33389419  0.88700958  1
  Si  Si128  1  0.63465717  0.67225251  0.38897492  1
  Si  Si129  1  0.53540635  0.58247594  0.61115517  1
  Si  Si130  1  0.85704063  0.91553481  0.61819965  1
  Si  Si131  1  0.02404479  0.16105729  0.61471465  1
  Si  Si132  1  0.53611681  0.41458768  0.61153782  1
  Si  Si133  1  0.13659660  0.91713294  0.89038274  1
  Si  Si134  1  0.19208485  0.08180325  0.61456383  1
  Si  Si135  1  0.47431257  0.41876613  0.88313625  1
  Si  Si136  1  0.14634611  0.07757158  0.38647889  1
  Si  Si137  1  0.30475379  0.66001341  0.38680189  1
  Si  Si138  1  0.63581316  0.66491165  0.88417650  1
  Si  Si139  1  0.35005614  0.16832582  0.60716686  1
  Si  Si140  1  0.13598403  0.58782158  0.38339094  1
  Si  Si141  1  0.64194051  0.83780224  0.38493067  1
  Si  Si142  1  0.52491368  0.08376340  0.11156191  1
  Si  Si143  1  0.14965370  0.41694106  0.88835995  1
  Si  Si144  1  0.13990043  0.42259510  0.38359780  1
  Si  Si145  1  0.69050097  0.16716379  0.11332524  1
  Si  Si146  1  0.85777501  0.58517942  0.11320916  1
  Si  Si147  1  0.02491608  0.66752708  0.11323471  1
  Si  Si148  1  0.30607275  0.16743893  0.38315262  1
  Si  Si149  1  0.18914503  0.58025796  0.61403203  1
  Si  Si150  1  0.47651999  0.92226168  0.38601706  1
  Si  Si151  1  0.69617677  0.16130347  0.61335821  1
  Si  Si152  1  0.02482184  0.16673718  0.11250451  1
  Si  Si153  1  0.03120447  0.66924468  0.61387494  1
  Si  Si154  1  0.86001211  0.07900916  0.61876545  1
  Si  Si155  1  0.68982929  0.66769116  0.11350677  1
  Si  Si156  1  0.47399184  0.07806710  0.88915067  1
  Si  Si157  1  0.02641394  0.83451051  0.11348057  1
  Si  Si158  1  0.69112893  0.33396850  0.11299463  1
  Si  Si159  1  0.69182842  0.83383966  0.11345964  1
  Si  Si160  1  0.47418865  0.40807934  0.38562445  1
  Si  Si161  1  0.31126667  0.66357624  0.88794650  1
  Si  Si162  1  0.81139332  0.08394088  0.89178305  1
  Si  Si163  1  0.47381853  0.08795100  0.38189419  1
  Si  Si164  1  0.35743069  0.66737322  0.11444501  1
  Si  Si165  1  0.51980891  0.91539308  0.61282300  1
  Si  Si166  1  0.85794923  0.41841388  0.11431853  1
  Si  Si167  1  0.47542667  0.91582412  0.88664420  1
  Si  Si168  1  0.85872107  0.91691615  0.11272713  1
  Si  Si169  1  0.19037066  0.41755713  0.11240914  1
  Si  Si170  1  0.63725366  0.83040122  0.88821880  1
  Si  Si171  1  0.52488426  0.41766404  0.11327640  1
  Si  Si172  1  0.52479501  0.91700237  0.11288295  1
  Si  Si173  1  0.64086829  0.16462574  0.38330390  1
  Si  Si174  1  0.19138677  0.08426768  0.11263764  1
  Si  Si175  1  0.02387601  0.33406086  0.11378766  1
  Si  Si176  1  0.80420628  0.08031674  0.38709217  1
  Si  Si177  1  0.98288497  0.83052760  0.89272857  1
  Si  Si178  1  0.63938667  0.33764979  0.88668079  1
  Si  Si179  1  0.19173164  0.91594995  0.61529030  1
  Si  Si180  1  0.97513924  0.67591374  0.38451075  1
  Si  Si181  1  0.02464617  0.83536102  0.61662524  1
  Si  Si182  1  0.30247598  0.33407115  0.38307129  1
  Si  Si183  1  0.52522546  0.58397535  0.11458475  1
  Si  Si184  1  0.35772055  0.33421277  0.11270821  1
  Si  Si185  1  0.69859575  0.32641607  0.61449240  1
  Si  Si186  1  0.35739563  0.16697914  0.11172248  1
  Si  Si187  1  0.19324155  0.41990659  0.61263229  1
  Si  Si188  1  0.98253860  0.33251146  0.38791733  1
  Si  Si189  1  0.97561821  0.16669254  0.88884747  1
  Si  Si190  1  0.47425393  0.58075849  0.88365589  1
  Si  Si191  1  0.19193167  0.91721337  0.11356543  1
  O  O192  1  0.26877417  0.12511224  0.08256320  1
  O  O193  1  0.26737876  0.11455542  0.57851657  1
  O  O194  1  0.26853928  0.62444106  0.08241794  1
  O  O195  1  0.26956070  0.59659801  0.57872776  1
  O  O196  1  0.60175226  0.12430169  0.08201537  1
  O  O197  1  0.61891914  0.11205462  0.57670113  1
  O  O198  1  0.60087103  0.62514686  0.08266781  1
  O  O199  1  0.61836970  0.61684122  0.58557663  1
  O  O200  1  0.93510570  0.12480534  0.08382965  1
  O  O201  1  0.94372036  0.10548390  0.58982428  1
  O  O202  1  0.93449245  0.62597653  0.08354419  1
  O  O203  1  0.95462987  0.62002576  0.57787813  1
  O  O204  1  0.10143611  0.37492479  0.08433105  1
  O  O205  1  0.13040681  0.35715967  0.57930165  1
  O  O206  1  0.10294780  0.87513791  0.08257668  1
  O  O207  1  0.10242536  0.87302666  0.58509417  1
  O  O208  1  0.43458501  0.37605258  0.08401298  1
  O  O209  1  0.45514664  0.36996594  0.57489061  1
  O  O210  1  0.43671943  0.87356306  0.08390037  1
  O  O211  1  0.44009977  0.86040399  0.58544688  1
  O  O212  1  0.76797513  0.37677452  0.08470737  1
  O  O213  1  0.77865800  0.34594826  0.58106762  1
  O  O214  1  0.76960661  0.87342153  0.08447998  1
  O  O215  1  0.77024000  0.86814613  0.58906516  1
  O  O216  1  0.26836008  0.37654868  0.08384153  1
  O  O217  1  0.28076189  0.41364225  0.58336440  1
  O  O218  1  0.26990638  0.87663697  0.08370781  1
  O  O219  1  0.27235507  0.88471393  0.58351100  1
  O  O220  1  0.60142552  0.37651934  0.08315589  1
  O  O221  1  0.61893632  0.38033337  0.58537883  1
  O  O222  1  0.60246066  0.87627015  0.08415680  1
  O  O223  1  0.60456111  0.88584149  0.58420087  1
  O  O224  1  0.93536346  0.37756404  0.08512171  1
  O  O225  1  0.95213893  0.39763083  0.57184590  1
  O  O226  1  0.93597394  0.87592963  0.08397051  1
  O  O227  1  0.93553087  0.87821914  0.58630013  1
  O  O228  1  0.10182994  0.12623694  0.08247298  1
  O  O229  1  0.10330710  0.12324535  0.58444744  1
  O  O230  1  0.10167534  0.62623497  0.08263337  1
  O  O231  1  0.11751769  0.64207136  0.58727981  1
  O  O232  1  0.43617110  0.12735704  0.08390406  1
  O  O233  1  0.42751353  0.13987729  0.57180444  1
  O  O234  1  0.43489258  0.62546295  0.08549082  1
  O  O235  1  0.45372675  0.62704403  0.57557376  1
  O  O236  1  0.76988839  0.12628427  0.08727552  1
  O  O237  1  0.78149924  0.13241679  0.58526617  1
  O  O238  1  0.76704947  0.62618211  0.08411091  1
  O  O239  1  0.77661351  0.65938176  0.58213204  1
  O  O240  1  0.07132727  0.10052325  0.42534695  1
  O  O241  1  0.05059460  0.10854694  0.91849174  1
  O  O242  1  0.05395856  0.61907478  0.41192962  1
  O  O243  1  0.07066734  0.59900742  0.92510321  1
  O  O244  1  0.39378149  0.12304339  0.41048945  1
  O  O245  1  0.39256115  0.09614497  0.92412152  1
  O  O246  1  0.36736723  0.59459040  0.41481139  1
  O  O247  1  0.39134649  0.60721303  0.91371457  1
  O  O248  1  0.71591587  0.10765130  0.41256249  1
  O  O249  1  0.73511919  0.11501434  0.92674078  1
  O  O250  1  0.71183801  0.62169026  0.42350234  1
  O  O251  1  0.71663243  0.61448625  0.91555357  1
  O  O252  1  0.22290716  0.37162082  0.41064279  1
  O  O253  1  0.23179254  0.36539943  0.91769362  1
  O  O254  1  0.21073169  0.85737719  0.42189814  1
  O  O255  1  0.21568336  0.86913919  0.92829873  1
  O  O256  1  0.54407269  0.34342784  0.40802205  1
  O  O257  1  0.55498603  0.36884451  0.91480195  1
  O  O258  1  0.56546651  0.87855675  0.41388543  1
  O  O259  1  0.55149401  0.85758912  0.91484462  1
  O  O260  1  0.89826127  0.34870653  0.41798248  1
  O  O261  1  0.88055560  0.37213862  0.92675712  1
  O  O262  1  0.89166016  0.86519907  0.41352212  1
  O  O263  1  0.89741336  0.84934009  0.92194995  1
  O  O264  1  0.05708571  0.39489534  0.41166783  1
  O  O265  1  0.07281056  0.39391478  0.92559911  1
  O  O266  1  0.05069506  0.89676017  0.41311363  1
  O  O267  1  0.05293474  0.89376092  0.92199075  1
  O  O268  1  0.38725902  0.38024132  0.41148152  1
  O  O269  1  0.39156394  0.39211866  0.91334953  1
  O  O270  1  0.40208646  0.89262118  0.42161797  1
  O  O271  1  0.39838504  0.89359723  0.92399773  1
  O  O272  1  0.70682179  0.38434990  0.41948778  1
  O  O273  1  0.71419792  0.39653439  0.91471528  1
  O  O274  1  0.72820278  0.88359858  0.41356789  1
  O  O275  1  0.71547990  0.87589235  0.92741220  1
  O  O276  1  0.23099720  0.12850806  0.41369251  1
  O  O277  1  0.21406659  0.13352086  0.92828944  1
  O  O278  1  0.21322624  0.64217502  0.41135110  1
  O  O279  1  0.22996439  0.63117922  0.91742211  1
  O  O280  1  0.55513087  0.13900205  0.41043193  1
  O  O281  1  0.54922394  0.13163961  0.92389101  1
  O  O282  1  0.54989414  0.65145445  0.41793698  1
  O  O283  1  0.55456510  0.63247945  0.91458761  1
  O  O284  1  0.87990978  0.13278366  0.41910057  1
  O  O285  1  0.89175291  0.13869972  0.91767209  1
  O  O286  1  0.89586636  0.65910558  0.41997309  1
  O  O287  1  0.88139752  0.63347290  0.92553906  1
  O  O288  1  0.18542159  0.00081995  0.08411829  1
  O  O289  1  0.17709027  -0.00175798  0.58639844  1
  O  O290  1  0.18450501  0.50068916  0.08356440  1
  O  O291  1  0.15047011  0.50039033  0.59093947  1
  O  O292  1  0.51701524  0.00020936  0.08378917  1
  O  O293  1  0.49541857  -0.00923904  0.57560838  1
  O  O294  1  0.51679670  0.50055407  0.08308105  1
  O  O295  1  0.52846723  0.49867762  0.58449414  1
  O  O296  1  0.84903543  -0.00052121  0.08202500  1
  O  O297  1  0.83945810  -0.00285804  0.58592311  1
  O  O298  1  0.84974162  0.50155268  0.08382528  1
  O  O299  1  0.81239971  0.50413862  0.57499481  1
  O  O300  1  0.01657174  0.25093360  0.08506768  1
  O  O301  1  0.00192992  0.23588917  0.57506502  1
  O  O302  1  0.01791721  0.75085011  0.08482299  1
  O  O303  1  0.01551653  0.75335756  0.58604573  1
  O  O304  1  0.35061001  0.25102193  0.08423216  1
  O  O305  1  0.32224208  0.24743416  0.57518981  1
  O  O306  1  0.35153116  0.75051225  0.08419699  1
  O  O307  1  0.33018418  0.75472772  0.57724241  1
  O  O308  1  0.68430215  0.25069746  0.08380176  1
  O  O309  1  0.67185028  0.24426252  0.58735132  1
  O  O310  1  0.68266048  0.75080778  0.08351174  1
  O  O311  1  0.66190258  0.75527876  0.58667292  1
  O  O312  1  0.17401280  -0.00483691  0.41166827  1
  O  O313  1  0.15544172  0.00133879  0.91454488  1
  O  O314  1  0.15853469  0.50530937  0.41101870  1
  O  O315  1  0.18278824  0.49820171  0.91376467  1
  O  O316  1  0.49570323  0.00697162  0.41057752  1
  O  O317  1  0.50917388  -0.00435744  0.91357187  1
  O  O318  1  0.50518242  0.48274273  0.42106685  1
  O  O319  1  0.49709190  0.50001290  0.91474805  1
  O  O320  1  0.82460250  -0.00281205  0.41636419  1
  O  O321  1  0.83771887  0.00656605  0.92704653  1
  O  O322  1  0.84579035  0.50260894  0.42564024  1
  O  O323  1  0.81720127  0.50302369  0.91835961  1
  O  O324  1  0.31526527  0.25092564  0.41039109  1
  O  O325  1  0.33965133  0.25813258  0.92347173  1
  O  O326  1  0.33927663  0.73613953  0.41954214  1
  O  O327  1  0.33642706  0.73925315  0.92485866  1
  O  O328  1  0.66381642  0.24580505  0.41109497  1
  O  O329  1  0.66286938  0.26302672  0.92524954  1
  O  O330  1  0.65682872  0.75718991  0.41474887  1
  O  O331  1  0.65069897  0.74571810  0.91535819  1
  O  O332  1  1.02302151  0.25660609  0.41635658  1
  O  O333  1  1.00164328  0.24252253  0.92761066  1
  O  O334  1  1.00701057  0.75854549  0.40969924  1
  O  O335  1  1.01900798  0.75457383  0.92750804  1
  O  O336  1  0.21158123  0.08819366  0.19218975  1
  O  O337  1  0.21436567  0.08743553  0.69330037  1
  O  O338  1  0.20869277  0.58378100  0.19264630  1
  O  O339  1  0.21070314  0.58253413  0.69556620  1
  O  O340  1  0.54196871  0.08363916  0.19224083  1
  O  O341  1  0.54471409  0.07953131  0.70037524  1
  O  O342  1  0.54638354  0.58084836  0.19355980  1
  O  O343  1  0.54635649  0.58339964  0.69246445  1
  O  O344  1  0.88020173  0.07668908  0.19278346  1
  O  O345  1  0.87149744  0.08028812  0.69809906  1
  O  O346  1  0.87592036  0.58544387  0.19311504  1
  O  O347  1  0.87842415  0.58147999  0.70346925  1
  O  O348  1  0.04387151  0.33588240  0.19408542  1
  O  O349  1  0.04706297  0.33271412  0.70108536  1
  O  O350  1  0.04545853  0.83676904  0.19291227  1
  O  O351  1  0.04335099  0.83347630  0.69662401  1
  O  O352  1  0.37515953  0.33378261  0.19319366  1
  O  O353  1  0.37989400  0.33369673  0.69982142  1
  O  O354  1  0.37788759  0.83536123  0.19335608  1
  O  O355  1  0.37559596  0.83178148  0.69289933  1
  O  O356  1  0.70643580  0.33395078  0.19282253  1
  O  O357  1  0.71348056  0.33142307  0.69561209  1
  O  O358  1  0.70904952  0.83502562  0.19371562  1
  O  O359  1  0.69881880  0.83382698  0.69586798  1
  O  O360  1  0.20870466  0.41714929  0.19281202  1
  O  O361  1  0.21099494  0.41717596  0.69475943  1
  O  O362  1  0.21099594  0.91572002  0.19297264  1
  O  O363  1  0.21210512  0.90937561  0.69410837  1
  O  O364  1  0.54182126  0.41615808  0.19355874  1
  O  O365  1  0.54763558  0.41595192  0.69270988  1
  O  O366  1  0.54274932  0.91807365  0.19336468  1
  O  O367  1  0.53971452  0.91558840  0.69393851  1
  O  O368  1  0.87692032  0.42007152  0.19422108  1
  O  O369  1  0.87822669  0.41730426  0.70223204  1
  O  O370  1  0.87533653  0.91700375  0.19296983  1
  O  O371  1  0.87840526  0.91868053  0.69688036  1
  O  O372  1  0.04521354  0.16691665  0.19243420  1
  O  O373  1  0.04605882  0.16867134  0.69419620  1
  O  O374  1  0.04450925  0.66384941  0.19262216  1
  O  O375  1  0.04697536  0.66639176  0.69476069  1
  O  O376  1  0.37547729  0.16706136  0.19231140  1
  O  O377  1  0.37134663  0.16618184  0.68757003  1
  O  O378  1  0.36960518  0.66798493  0.19354708  1
  O  O379  1  0.37796299  0.66527153  0.70022802  1
  O  O380  1  0.69969403  0.16777689  0.19259273  1
  O  O381  1  0.71373314  0.16270093  0.69400216  1
  O  O382  1  0.70609479  0.66922003  0.19328026  1
  O  O383  1  0.70948683  0.66899784  0.69529805  1
  O  O384  1  0.12543126  0.08410453  0.30613599  1
  O  O385  1  0.12207730  0.09334973  0.81000911  1
  O  O386  1  0.12004180  0.58491305  0.30242091  1
  O  O387  1  0.12757513  0.58236587  0.80727177  1
  O  O388  1  0.45533335  0.08610268  0.30097323  1
  O  O389  1  0.45439527  0.07993964  0.80878275  1
  O  O390  1  0.45195421  0.57870373  0.29787260  1
  O  O391  1  0.45897230  0.58074674  0.80369365  1
  O  O392  1  0.78392490  0.07537906  0.30681636  1
  O  O393  1  0.79047064  0.08365682  0.81052350  1
  O  O394  1  0.78670824  0.58764809  0.29821770  1
  O  O395  1  0.78727489  0.58321013  0.80823293  1
  O  O396  1  0.28714755  0.33391455  0.30189943  1
  O  O397  1  0.29243951  0.33447380  0.80664929  1
  O  O398  1  0.28900040  0.83295463  0.29861733  1
  O  O399  1  0.28946237  0.83086041  0.80007645  1
  O  O400  1  0.62019941  0.33179271  0.30346712  1
  O  O401  1  0.62315771  0.33526038  0.80598359  1
  O  O402  1  0.62304807  0.83752746  0.30401462  1
  O  O403  1  0.62157059  0.83165571  0.80742985  1
  O  O404  1  0.96156013  0.33584001  0.30563257  1
  O  O405  1  0.95650044  0.33186424  0.80333267  1
  O  O406  1  0.95348907  0.83965813  0.30288354  1
  O  O407  1  0.97016316  0.82933815  0.81253180  1
  O  O408  1  0.12366400  0.41987112  0.30237082  1
  O  O409  1  0.12855965  0.41620534  0.80783908  1
  O  O410  1  0.12199943  0.91192134  0.30580225  1
  O  O411  1  0.12107435  0.90773781  0.81111136  1
  O  O412  1  0.45431801  0.41340610  0.30383438  1
  O  O413  1  0.45914374  0.41924312  0.80325510  1
  O  O414  1  0.45780889  0.91902566  0.30459609  1
  O  O415  1  0.45640768  0.91356388  0.80565421  1
  O  O416  1  0.78786605  0.41864803  0.29846627  1
  O  O417  1  0.78869749  0.41702339  0.80859397  1
  O  O418  1  0.79010060  0.91643674  0.30389879  1
  O  O419  1  0.78060228  0.92272449  0.80394186  1
  O  O420  1  0.28937943  0.16761387  0.30226158  1
  O  O421  1  0.29095765  0.16715740  0.79977468  1
  O  O422  1  0.28681656  0.66432508  0.30472183  1
  O  O423  1  0.29176579  0.66451952  0.80730785  1
  O  O424  1  0.62157613  0.16543772  0.30227923  1
  O  O425  1  0.62596584  0.16890899  0.79904070  1
  O  O426  1  0.62399754  0.67060081  0.30761446  1
  O  O427  1  0.61898705  0.66406276  0.80399243  1
  O  O428  1  0.96815331  0.16538287  0.30057068  1
  O  O429  1  0.95603311  0.17092652  0.80905060  1
  O  O430  1  0.95471182  0.66928810  0.30408541  1
  O  O431  1  0.95959238  0.66583525  0.80353513  1
  F  F432  1  0.04310430  -0.00000991  0.20072072  1
  F  F433  1  0.03334836  -0.00581812  0.69979127  1
  F  F434  1  0.04347590  0.50127682  0.19943241  1
  F  F435  1  0.04662555  0.50002140  0.70692891  1
  F  F436  1  0.37874198  0.00062038  0.19888399  1
  F  F437  1  0.37880633  -0.00231873  0.70125530  1
  F  F438  1  0.37548029  0.49615158  0.19658508  1
  F  F439  1  0.38114366  0.50047753  0.70080237  1
  F  F440  1  0.71106311  -0.00040069  0.19957418  1
  F  F441  1  0.70973089  0.00131434  0.70238969  1
  F  F442  1  0.70720454  0.50159231  0.19819590  1
  F  F443  1  0.71339216  0.49955736  0.70458834  1
  F  F444  1  0.21128516  0.25132071  0.19842466  1
  F  F445  1  0.21262793  0.25171801  0.70239871  1
  F  F446  1  0.21158086  0.74831959  0.19836544  1
  F  F447  1  0.21082591  0.74660778  0.70142886  1
  F  F448  1  0.54278294  0.25090841  0.19953434  1
  F  F449  1  0.55034031  0.25772638  0.69483859  1
  F  F450  1  0.54769919  0.75831867  0.19782341  1
  F  F451  1  0.54480230  0.74971374  0.70306363  1
  F  F452  1  0.88245007  0.26350026  0.19780645  1
  F  F453  1  0.87888148  0.24614027  0.70287030  1
  F  F454  1  0.86996702  0.75066943  0.19758786  1
  F  F455  1  0.88325042  0.74305572  0.70050502  1
  F  F456  1  0.29436171  0.00196871  0.29752895  1
  F  F457  1  0.29958281  -0.00078954  0.80097210  1
  F  F458  1  0.28460210  0.49901761  0.29375036  1
  F  F459  1  0.29157814  0.49944517  0.79659028  1
  F  F460  1  0.61918379  0.00062238  0.29481402  1
  F  F461  1  0.61954220  -0.00271769  0.80085730  1
  F  F462  1  0.61942165  0.49909902  0.29665960  1
  F  F463  1  0.62095557  0.50025923  0.79623023  1
  F  F464  1  0.95451781  -0.00148951  0.29789769  1
  F  F465  1  0.95137393  -0.00632248  0.80603398  1
  F  F466  1  0.95498005  0.50328623  0.29542010  1
  F  F467  1  0.95925949  0.49872879  0.80489277  1
  F  F468  1  0.12485277  0.25160780  0.29438357  1
  F  F469  1  0.12562725  0.25036047  0.80097841  1
  F  F470  1  0.12333424  0.75028024  0.29578287  1
  F  F471  1  0.12491560  0.74687232  0.79815843  1
  F  F472  1  0.45172879  0.24901076  0.29410349  1
  F  F473  1  0.45718250  0.25101085  0.79853492  1
  F  F474  1  0.45332798  0.75486642  0.29760904  1
  F  F475  1  0.45609382  0.74946722  0.79856480  1
  F  F476  1  0.78142655  0.25976606  0.30002795  1
  F  F477  1  0.78756139  0.24981601  0.79766904  1
  F  F478  1  0.78487094  0.75390713  0.29635749  1
  F  F479  1  0.78075960  0.73723736  0.80502110  1
