# generated using pymatgen
data_K24Na3Li5Mg64Fe17Si79(O5F)48
_symmetry_space_group_name_H-M   'P 1'
_cell_length_a   16.10482064
_cell_length_b   18.59154150
_cell_length_c   20.55721340
_cell_angle_alpha   89.98524011
_cell_angle_beta   100.00222370
_cell_angle_gamma   90.00770386
_symmetry_Int_Tables_number   1
_chemical_formula_structural   K24Na3Li5Mg64Fe17Si79(O5F)48
_chemical_formula_sum   'K24 Na3 Li5 Mg64 Fe17 Si79 O240 F48'
_cell_volume   6061.55440523
_cell_formula_units_Z   1
loop_
 _symmetry_equiv_pos_site_id
 _symmetry_equiv_pos_as_xyz
  1  'x, y, z'
loop_
 _atom_site_type_symbol
 _atom_site_label
 _atom_site_symmetry_multiplicity
 _atom_site_fract_x
 _atom_site_fract_y
 _atom_site_fract_z
 _atom_site_occupancy
  K  K0  1  -0.00143354  0.00244443  -0.00291753  1
  K  K1  1  -0.00379736  -0.00053758  0.50716711  1
  K  K2  1  0.00236559  0.49787831  0.00283024  1
  K  K3  1  0.02670538  0.49604383  0.50326617  1
  K  K4  1  0.32317988  -0.00080856  -0.00170235  1
  K  K5  1  0.33078082  0.00323315  0.49988370  1
  K  K6  1  0.32319566  0.50190868  -0.00687602  1
  K  K7  1  0.31527194  0.50667811  0.50282957  1
  K  K8  1  0.67305116  0.00226603  0.00033669  1
  K  K9  1  0.67361197  -0.01173337  0.49933490  1
  K  K10  1  0.66724420  0.50045294  -0.00082298  1
  K  K11  1  0.67322231  0.49730504  0.50426551  1
  K  K12  1  0.15064136  0.24939318  -0.01421633  1
  K  K13  1  0.16861839  0.26163910  0.51115415  1
  K  K14  1  0.16464754  0.75012242  0.00056869  1
  K  K15  1  0.15350266  0.74595376  0.49996676  1
  K  K16  1  0.49691540  0.24838037  -0.00889272  1
  K  K17  1  0.49761432  0.25307257  0.50630454  1
  K  K18  1  0.49193468  0.75163008  0.00005724  1
  K  K19  1  0.49660746  0.74993808  0.49680415  1
  K  K20  1  0.84179998  0.24357954  -0.00519078  1
  K  K21  1  0.84405330  0.25255943  0.51304774  1
  K  K22  1  0.84138867  0.74582570  0.00780456  1
  K  K23  1  0.84903145  0.76615470  0.49817648  1
  Na  Na24  1  0.00535902  0.24678567  0.75445952  1
  Na  Na25  1  0.66634783  0.91701964  0.24619775  1
  Na  Na26  1  0.82864542  0.83208825  0.24073495  1
  Li  Li27  1  0.16128107  0.50136218  0.25645378  1
  Li  Li28  1  0.32269301  0.25047212  0.74852065  1
  Li  Li29  1  0.16408789  0.17249710  0.75072842  1
  Li  Li30  1  0.32879349  0.58285402  0.75645216  1
  Li  Li31  1  0.00527956  0.08967152  0.75175573  1
  Mg  Mg32  1  0.00031071  0.74842244  0.24785094  1
  Mg  Mg33  1  0.33073739  0.74966843  0.75370660  1
  Mg  Mg34  1  0.00050637  0.75221917  0.74842886  1
  Mg  Mg35  1  0.49890432  0.00287159  0.75186875  1
  Mg  Mg36  1  0.17148507  0.49901013  0.75349784  1
  Mg  Mg37  1  0.83382449  -0.00038690  0.24263374  1
  Mg  Mg38  1  0.83514795  0.49869215  0.24539297  1
  Mg  Mg39  1  0.16095738  0.00721825  0.74661506  1
  Mg  Mg40  1  0.66799513  0.24983531  0.24748405  1
  Mg  Mg41  1  0.49983551  0.49932398  0.25366933  1
  Mg  Mg42  1  0.50242821  -0.00174759  0.25041558  1
  Mg  Mg43  1  0.16925156  0.00074948  0.24704101  1
  Mg  Mg44  1  0.83302376  0.49741228  0.75033436  1
  Mg  Mg45  1  0.49491725  0.50126033  0.75216110  1
  Mg  Mg46  1  0.83779679  0.00121542  0.74841569  1
  Mg  Mg47  1  0.33499166  0.24940105  0.25050534  1
  Mg  Mg48  1  0.66481573  0.74964791  0.74967644  1
  Mg  Mg49  1  0.66526732  0.74812031  0.24903379  1
  Mg  Mg50  1  0.33273741  0.74932824  0.25476955  1
  Mg  Mg51  1  0.66588742  0.24978244  0.75060454  1
  Mg  Mg52  1  0.00176626  0.25123261  0.24752682  1
  Mg  Mg53  1  0.33222959  0.41680196  0.25457237  1
  Mg  Mg54  1  0.16754738  0.16583895  0.24598199  1
  Mg  Mg55  1  0.66678010  0.58266220  0.24890565  1
  Mg  Mg56  1  0.16709681  0.66263626  0.25123309  1
  Mg  Mg57  1  0.66388037  0.58379528  0.75149548  1
  Mg  Mg58  1  0.49880385  0.16865492  0.75257108  1
  Mg  Mg59  1  0.66796940  0.41515535  0.24807224  1
  Mg  Mg60  1  0.83536137  0.33372605  0.24880597  1
  Mg  Mg61  1  0.83556497  0.83442876  0.74834544  1
  Mg  Mg62  1  0.50229237  0.16497484  0.25050064  1
  Mg  Mg63  1  0.16390106  0.83734513  0.75024966  1
  Mg  Mg64  1  0.00206018  0.58341378  0.75060665  1
  Mg  Mg65  1  0.00208340  0.41317953  0.75063750  1
  Mg  Mg66  1  0.32998072  0.91932859  0.74989921  1
  Mg  Mg67  1  0.83407046  0.66542246  0.75039661  1
  Mg  Mg68  1  0.83402621  0.16475418  0.24709422  1
  Mg  Mg69  1  0.32894765  0.58275275  0.25504854  1
  Mg  Mg70  1  0.83567784  0.16537946  0.74884878  1
  Mg  Mg71  1  0.33748458  0.91556886  0.25180202  1
  Mg  Mg72  1  0.49711852  0.33284235  0.75122183  1
  Mg  Mg73  1  0.66497983  0.41558754  0.75186742  1
  Mg  Mg74  1  -0.00193687  0.91739242  0.74877302  1
  Mg  Mg75  1  -0.00070711  0.08470746  0.24408509  1
  Mg  Mg76  1  0.50073740  0.33355632  0.25114956  1
  Mg  Mg77  1  0.33460882  0.08353338  0.24965070  1
  Mg  Mg78  1  0.32915185  0.08940434  0.75009939  1
  Mg  Mg79  1  0.16741927  0.33717951  0.25089112  1
  Mg  Mg80  1  0.33241929  0.41656580  0.75074434  1
  Mg  Mg81  1  0.83244979  0.66570055  0.24546211  1
  Mg  Mg82  1  0.16685682  0.83392164  0.24980203  1
  Mg  Mg83  1  0.50297046  0.83413367  0.24984914  1
  Mg  Mg84  1  0.49443896  0.66596042  0.75469651  1
  Mg  Mg85  1  0.66736067  0.08463021  0.75098355  1
  Mg  Mg86  1  0.66858520  0.08309172  0.24823465  1
  Mg  Mg87  1  0.66772864  0.91512413  0.74989874  1
  Mg  Mg88  1  0.16923644  0.66586027  0.75123489  1
  Mg  Mg89  1  0.49749856  0.83498059  0.75124614  1
  Mg  Mg90  1  0.49866971  0.66418433  0.25430376  1
  Mg  Mg91  1  0.00215206  0.41856157  0.24902106  1
  Mg  Mg92  1  0.83202559  0.33181819  0.74972000  1
  Mg  Mg93  1  0.17007829  0.32981225  0.75036469  1
  Mg  Mg94  1  0.00354006  0.58382715  0.24965894  1
  Mg  Mg95  1  -0.00273553  0.91644985  0.24389546  1
  Fe  Fe96  1  0.68750018  0.33563295  0.61141001  1
  Fe  Fe97  1  0.85380423  0.92034432  0.60586744  1
  Fe  Fe98  1  0.85694500  0.08648988  0.10582093  1
  Fe  Fe99  1  0.96994097  0.33309767  0.89166911  1
  Fe  Fe100  1  0.64452125  0.16834985  0.89058847  1
  Fe  Fe101  1  0.31252182  0.67221967  0.39511093  1
  Fe  Fe102  1  0.97755445  0.83067482  0.89068414  1
  Fe  Fe103  1  0.14189439  0.41205700  0.39099786  1
  Fe  Fe104  1  0.13876420  0.58847481  0.39443293  1
  Fe  Fe105  1  0.19673872  0.41372497  0.61302756  1
  Fe  Fe106  1  0.85462052  0.41211385  0.10855434  1
  Fe  Fe107  1  0.68423662  0.83109406  0.10311065  1
  Fe  Fe108  1  0.30714582  0.66744983  0.89241540  1
  Fe  Fe109  1  0.48404087  0.91903072  0.39155071  1
  Fe  Fe110  1  0.02416202  0.66249111  0.10874120  1
  Fe  Fe111  1  0.02930970  0.83673008  0.60766734  1
  Fe  Fe112  1  0.19738353  0.08329247  0.10839432  1
  Si  Si113  1  0.63973304  0.66798764  0.88687352  1
  Si  Si114  1  0.35690222  0.67379631  0.61843150  1
  Si  Si115  1  0.19833724  0.92283047  0.61136590  1
  Si  Si116  1  0.02491896  0.83406036  0.11143720  1
  Si  Si117  1  0.30973745  0.33253570  0.88547870  1
  Si  Si118  1  0.97345223  0.16242474  0.38448359  1
  Si  Si119  1  0.47837341  0.57882990  0.39116286  1
  Si  Si120  1  0.64361911  0.66051377  0.38601957  1
  Si  Si121  1  0.52461942  0.41559933  0.11591578  1
  Si  Si122  1  0.52609840  0.08414227  0.11492058  1
  Si  Si123  1  0.68634403  0.16637487  0.61198672  1
  Si  Si124  1  0.68445113  0.66334045  0.11071139  1
  Si  Si125  1  0.80805866  0.41745274  0.38386111  1
  Si  Si126  1  0.31428880  0.32769949  0.38911894  1
  Si  Si127  1  0.64667530  0.82441477  0.38781686  1
  Si  Si128  1  0.84980492  0.58135422  0.10988376  1
  Si  Si129  1  0.35940053  0.82971063  0.11529499  1
  Si  Si130  1  0.51707752  0.92069040  0.10948610  1
  Si  Si131  1  0.47043473  0.08630496  0.88848560  1
  Si  Si132  1  0.51740909  0.58637221  0.61718311  1
  Si  Si133  1  0.80275685  0.90841841  0.88633388  1
  Si  Si134  1  0.30755920  0.83905909  0.88785657  1
  Si  Si135  1  0.80674945  0.58838865  0.88529510  1
  Si  Si136  1  0.63400298  0.83404652  0.88488119  1
  Si  Si137  1  0.47830567  0.58078549  0.89083818  1
  Si  Si138  1  0.68865437  0.82706487  0.61196935  1
  Si  Si139  1  0.47882836  0.41278688  0.38751247  1
  Si  Si140  1  0.02281092  0.66466913  0.61327112  1
  Si  Si141  1  0.30511733  0.16823052  0.88367433  1
  Si  Si142  1  0.19902892  0.58124843  0.11339862  1
  Si  Si143  1  0.02603550  0.16529952  0.61597012  1
  Si  Si144  1  0.64611382  0.17149631  0.38464814  1
  Si  Si145  1  0.36013514  0.83662868  0.61671367  1
  Si  Si146  1  0.19291369  0.91146606  0.11266300  1
  Si  Si147  1  0.80791106  0.91836656  0.38087690  1
  Si  Si148  1  0.64542419  0.33503222  0.38472706  1
  Si  Si149  1  0.68516892  0.32880877  0.11188630  1
  Si  Si150  1  0.36331391  0.16414594  0.61493460  1
  Si  Si151  1  0.81007523  0.07446504  0.88652679  1
  Si  Si152  1  0.47176987  0.92110666  0.88504944  1
  Si  Si153  1  0.14448018  0.41428056  0.88883912  1
  Si  Si154  1  0.03068132  0.33793444  0.11283147  1
  Si  Si155  1  0.14210970  0.08467166  0.38349876  1
  Si  Si156  1  0.68725156  0.66146666  0.61530482  1
  Si  Si157  1  0.85327287  0.08962984  0.61023799  1
  Si  Si158  1  0.80608170  0.08094264  0.38474906  1
  Si  Si159  1  0.97387657  0.83750942  0.38090844  1
  Si  Si160  1  0.31021507  0.84356976  0.38960802  1
  Si  Si161  1  0.80690344  0.58148115  0.38235640  1
  Si  Si162  1  0.48332255  0.08779960  0.38742218  1
  Si  Si163  1  0.64068364  0.33816088  0.88828509  1
  Si  Si164  1  0.86091489  0.91763571  0.10586953  1
  Si  Si165  1  0.36394332  0.66373479  0.11735025  1
  Si  Si166  1  0.20014396  0.41500860  0.11667048  1
  Si  Si167  1  0.14308313  0.92384724  0.88702760  1
  Si  Si168  1  0.02728021  0.33306622  0.61352676  1
  Si  Si169  1  0.96881095  0.32722450  0.38767161  1
  Si  Si170  1  0.19242626  0.08813079  0.61251880  1
  Si  Si171  1  0.13893299  0.91805114  0.38310279  1
  Si  Si172  1  0.80191873  0.42331349  0.88850813  1
  Si  Si173  1  0.52539797  0.57873608  0.11692601  1
  Si  Si174  1  0.13859492  0.57937395  0.88765581  1
  Si  Si175  1  0.68644611  0.16797111  0.11253169  1
  Si  Si176  1  0.52294195  0.42325328  0.61490417  1
  Si  Si177  1  0.47403538  0.41514220  0.88733390  1
  Si  Si178  1  0.85652838  0.58158180  0.61479876  1
  Si  Si179  1  0.97218530  0.15862600  0.88657515  1
  Si  Si180  1  0.97728452  0.66127973  0.88550659  1
  Si  Si181  1  0.96564920  0.67049180  0.38641663  1
  Si  Si182  1  0.31310601  0.16298529  0.38550456  1
  Si  Si183  1  0.03022944  0.17277785  0.10909611  1
  Si  Si184  1  0.52646441  0.91337306  0.61610338  1
  Si  Si185  1  0.85931990  0.41579706  0.61129014  1
  Si  Si186  1  0.36678805  0.33072566  0.61431125  1
  Si  Si187  1  0.36157690  0.33251184  0.11599293  1
  Si  Si188  1  0.19253133  0.58549944  0.61700544  1
  Si  Si189  1  0.36684286  0.16802148  0.11336652  1
  Si  Si190  1  0.14293380  0.08658609  0.88278631  1
  Si  Si191  1  0.52557968  0.07804942  0.61431558  1
  O  O192  1  0.29559646  0.11400797  0.07758298  1
  O  O193  1  0.27113226  0.12800068  0.58274057  1
  O  O194  1  0.28428758  0.61281154  0.08569472  1
  O  O195  1  0.27042506  0.63004380  0.59101185  1
  O  O196  1  0.61113896  0.10836611  0.08681177  1
  O  O197  1  0.60699200  0.10924395  0.58498442  1
  O  O198  1  0.60919964  0.60147044  0.08719626  1
  O  O199  1  0.60193847  0.61342809  0.58758373  1
  O  O200  1  0.95237973  0.12247991  0.07553081  1
  O  O201  1  0.93625366  0.12433394  0.58255862  1
  O  O202  1  0.92827135  0.60655296  0.07525944  1
  O  O203  1  0.93557262  0.61725014  0.58630093  1
  O  O204  1  0.11816632  0.36504353  0.08740268  1
  O  O205  1  0.09836619  0.36489971  0.57461394  1
  O  O206  1  0.11203650  0.85953775  0.08593082  1
  O  O207  1  0.12329434  0.87337448  0.57361080  1
  O  O208  1  0.44380344  0.36420911  0.08722406  1
  O  O209  1  0.44728485  0.36695035  0.58505456  1
  O  O210  1  0.43285384  0.86946126  0.08174276  1
  O  O211  1  0.44320509  0.86497182  0.58762502  1
  O  O212  1  0.76430084  0.34728283  0.07696714  1
  O  O213  1  0.77854939  0.37088735  0.57411037  1
  O  O214  1  0.78876532  0.85806288  0.07875202  1
  O  O215  1  0.76061315  0.85748717  0.57465683  1
  O  O216  1  0.28055102  0.38198855  0.08511204  1
  O  O217  1  0.28259067  0.36904881  0.57607710  1
  O  O218  1  0.27194344  0.87158710  0.08495896  1
  O  O219  1  0.28592822  0.89334986  0.58714189  1
  O  O220  1  0.60630032  0.38623106  0.08635692  1
  O  O221  1  0.60282651  0.40438722  0.57992546  1
  O  O222  1  0.59241661  0.89595369  0.07192415  1
  O  O223  1  0.60245648  0.87495170  0.58582403  1
  O  O224  1  0.95617730  0.39103494  0.07920096  1
  O  O225  1  0.94062598  0.38046297  0.58442540  1
  O  O226  1  0.95133207  0.89295370  0.08269511  1
  O  O227  1  0.93815683  0.88735189  0.56322086  1
  O  O228  1  0.11454645  0.15184815  0.07965873  1
  O  O229  1  0.10379103  0.12969087  0.58035111  1
  O  O230  1  0.11903732  0.62614088  0.07560712  1
  O  O231  1  0.10276665  0.62656464  0.58643718  1
  O  O232  1  0.45570289  0.14619424  0.08826110  1
  O  O233  1  0.43770073  0.12078212  0.58267407  1
  O  O234  1  0.44640323  0.63202931  0.08827099  1
  O  O235  1  0.43793811  0.63967911  0.58815505  1
  O  O236  1  0.76564754  0.15073519  0.07733110  1
  O  O237  1  0.77086370  0.14269539  0.58191442  1
  O  O238  1  0.76977145  0.63726360  0.08385995  1
  O  O239  1  0.76702496  0.62523836  0.58631605  1
  O  O240  1  0.06474082  0.12326524  0.41381969  1
  O  O241  1  0.06225502  0.11586119  0.91461614  1
  O  O242  1  0.04234753  0.62502788  0.42663597  1
  O  O243  1  0.04711056  0.59778797  0.91032021  1
  O  O244  1  0.39708520  0.11492829  0.41504955  1
  O  O245  1  0.38587905  0.11557166  0.91614252  1
  O  O246  1  0.40595451  0.60959257  0.42773326  1
  O  O247  1  0.40582722  0.61370770  0.92732315  1
  O  O248  1  0.72978168  0.12312442  0.41457110  1
  O  O249  1  0.73549262  0.10720083  0.92150386  1
  O  O250  1  0.72249337  0.60546478  0.41227597  1
  O  O251  1  0.72971231  0.62818162  0.91494268  1
  O  O252  1  0.23849853  0.35461246  0.42333838  1
  O  O253  1  0.23303515  0.36951935  0.91744756  1
  O  O254  1  0.22178761  0.87093537  0.41446469  1
  O  O255  1  0.22898743  0.87667228  0.91635500  1
  O  O256  1  0.56336915  0.36374258  0.41465276  1
  O  O257  1  0.55659104  0.36638701  0.91772772  1
  O  O258  1  0.57513679  0.85678527  0.42662590  1
  O  O259  1  0.55261130  0.86841342  0.91245643  1
  O  O260  1  0.88445372  0.36248355  0.41304679  1
  O  O261  1  0.87809069  0.37479636  0.92587638  1
  O  O262  1  0.89805020  0.87865442  0.41080473  1
  O  O263  1  0.87604650  0.85457336  0.92044835  1
  O  O264  1  0.05068188  0.36822179  0.42456459  1
  O  O265  1  0.07204113  0.38221013  0.92619621  1
  O  O266  1  0.05992951  0.88274311  0.41301580  1
  O  O267  1  0.06699109  0.89437729  0.92186364  1
  O  O268  1  0.40210038  0.37403070  0.41687433  1
  O  O269  1  0.39528191  0.37982676  0.91796325  1
  O  O270  1  0.38031279  0.90390097  0.41937910  1
  O  O271  1  0.39017816  0.89166756  0.91410569  1
  O  O272  1  0.72388281  0.38934226  0.41286679  1
  O  O273  1  0.71256880  0.40039864  0.91238616  1
  O  O274  1  0.73517554  0.87129265  0.40996274  1
  O  O275  1  0.71528739  0.88350060  0.91395586  1
  O  O276  1  0.23137497  0.12734153  0.41305429  1
  O  O277  1  0.22434381  0.13774902  0.91509459  1
  O  O278  1  0.22500340  0.64725877  0.43662702  1
  O  O279  1  0.21117544  0.63270379  0.92474993  1
  O  O280  1  0.56041119  0.14713114  0.41231165  1
  O  O281  1  0.54864860  0.13477594  0.92377218  1
  O  O282  1  0.56540360  0.62613903  0.41777057  1
  O  O283  1  0.56796378  0.62513968  0.91916999  1
  O  O284  1  0.89889998  0.11757479  0.41338470  1
  O  O285  1  0.89924954  0.11380293  0.91819873  1
  O  O286  1  0.87946865  0.63948415  0.41205642  1
  O  O287  1  0.89087352  0.63546331  0.91282865  1
  O  O288  1  0.17606510  -0.01126015  0.07674098  1
  O  O289  1  0.18672413  0.00574573  0.58083440  1
  O  O290  1  0.18864486  0.49664438  0.08617774  1
  O  O291  1  0.18856058  0.50853126  0.58086505  1
  O  O292  1  0.49225026  0.00556718  0.08517844  1
  O  O293  1  0.51136275  -0.00509533  0.58591915  1
  O  O294  1  0.50075230  0.49712722  0.08803305  1
  O  O295  1  0.49183899  0.50570824  0.58923538  1
  O  O296  1  0.83338060  -0.00546382  0.06983484  1
  O  O297  1  0.83035631  0.01405855  0.57177947  1
  O  O298  1  0.81470127  0.50341833  0.08077239  1
  O  O299  1  0.84477545  0.50029077  0.58379695  1
  O  O300  1  0.00805215  0.25654745  0.08439761  1
  O  O301  1  0.01024896  0.24881159  0.58671869  1
  O  O302  1  -0.00055908  0.75702467  0.07758609  1
  O  O303  1  0.00802502  0.74116646  0.57649139  1
  O  O304  1  0.34620328  0.25110971  0.08668212  1
  O  O305  1  0.36503685  0.24624906  0.58635447  1
  O  O306  1  0.35050714  0.74607644  0.08750047  1
  O  O307  1  0.34133273  0.75550501  0.58681043  1
  O  O308  1  0.64609706  0.24836977  0.08977682  1
  O  O309  1  0.65492316  0.24299789  0.57854693  1
  O  O310  1  0.65068498  0.73605481  0.07219293  1
  O  O311  1  0.66727032  0.74286715  0.58613689  1
  O  O312  1  0.15242722  0.00167939  0.41206603  1
  O  O313  1  0.16638330  0.00595145  0.91522621  1
  O  O314  1  0.16065552  0.49882780  0.43288323  1
  O  O315  1  0.16445329  0.49783971  0.91580934  1
  O  O316  1  0.51491610  0.01323859  0.42279748  1
  O  O317  1  0.49004180  0.00211976  0.91496888  1
  O  O318  1  0.49965870  0.49414820  0.41629451  1
  O  O319  1  0.49402686  0.49656453  0.91775241  1
  O  O320  1  0.80898188  -0.00056053  0.41577937  1
  O  O321  1  0.82343073  -0.00947978  0.91266943  1
  O  O322  1  0.82957598  0.49944392  0.41202665  1
  O  O323  1  0.81748283  0.50743719  0.91589389  1
  O  O324  1  0.33525740  0.24369940  0.41550138  1
  O  O325  1  0.32524753  0.25010321  0.91582927  1
  O  O326  1  0.34155930  0.76739013  0.42331449  1
  O  O327  1  0.32869184  0.76281242  0.92441499  1
  O  O328  1  0.66854399  0.25368788  0.41305017  1
  O  O329  1  0.66948167  0.26255091  0.92355746  1
  O  O330  1  0.66758632  0.74070142  0.41675651  1
  O  O331  1  0.64560203  0.75142557  0.91396054  1
  O  O332  1  0.97213925  0.24310901  0.41597416  1
  O  O333  1  0.98138091  0.23712882  0.92238459  1
  O  O334  1  0.97667470  0.75567554  0.41212332  1
  O  O335  1  1.00942631  0.73613097  0.92034104  1
  O  O336  1  0.21499627  0.08385337  0.20046506  1
  O  O337  1  0.21352102  0.08245114  0.69137848  1
  O  O338  1  0.21549228  0.58455175  0.19317973  1
  O  O339  1  0.20514986  0.58378660  0.69675399  1
  O  O340  1  0.54382525  0.08442685  0.19562264  1
  O  O341  1  0.54193508  0.08009483  0.69449138  1
  O  O342  1  0.54214107  0.57946936  0.19752068  1
  O  O343  1  0.53996536  0.58684965  0.69757985  1
  O  O344  1  0.87895137  0.08633640  0.19798902  1
  O  O345  1  0.86621294  0.08410876  0.68983380  1
  O  O346  1  0.87209341  0.58203581  0.19153872  1
  O  O347  1  0.87342391  0.58256705  0.69527752  1
  O  O348  1  0.04500555  0.33388383  0.19377992  1
  O  O349  1  0.04860924  0.34033193  0.69271669  1
  O  O350  1  0.04408060  0.83414188  0.19267553  1
  O  O351  1  0.04625110  0.83399539  0.69945290  1
  O  O352  1  0.37988420  0.33311987  0.19669458  1
  O  O353  1  0.38162243  0.33670119  0.69392793  1
  O  O354  1  0.37686572  0.83034813  0.19565314  1
  O  O355  1  0.37685021  0.83594482  0.69732938  1
  O  O356  1  0.70726749  0.33295525  0.19333730  1
  O  O357  1  0.70852870  0.33523104  0.70294730  1
  O  O358  1  0.69593540  0.82252167  0.19023300  1
  O  O359  1  0.70668809  0.82960296  0.69304164  1
  O  O360  1  0.21942332  0.41139559  0.19608339  1
  O  O361  1  0.21291491  0.41730619  0.70380368  1
  O  O362  1  0.21281381  0.91566008  0.19392216  1
  O  O363  1  0.21138586  0.91991606  0.69222420  1
  O  O364  1  0.54297438  0.41545828  0.19657994  1
  O  O365  1  0.54221707  0.42058414  0.69593169  1
  O  O366  1  0.53234096  0.91778079  0.18934830  1
  O  O367  1  0.54339724  0.91535785  0.69653910  1
  O  O368  1  0.87785874  0.41365554  0.20064431  1
  O  O369  1  0.87239797  0.41811884  0.69178517  1
  O  O370  1  0.88146447  0.92550898  0.18621112  1
  O  O371  1  0.87314130  0.91654250  0.69756401  1
  O  O372  1  0.04528441  0.16897206  0.19130511  1
  O  O373  1  0.04813423  0.15926638  0.69318565  1
  O  O374  1  0.04636822  0.66650400  0.19992723  1
  O  O375  1  0.04083743  0.66593991  0.69447502  1
  O  O376  1  0.38041388  0.16764121  0.19476168  1
  O  O377  1  0.38248231  0.16038247  0.69403149  1
  O  O378  1  0.38014870  0.66365363  0.19755521  1
  O  O379  1  0.38048046  0.67548520  0.69762866  1
  O  O380  1  0.70838273  0.16811973  0.19382817  1
  O  O381  1  0.70601522  0.16509472  0.69267043  1
  O  O382  1  0.70359914  0.66263665  0.19188278  1
  O  O383  1  0.70675134  0.66394757  0.69572215  1
  O  O384  1  0.12332097  0.08553672  0.30337756  1
  O  O385  1  0.12670675  0.08336710  0.80436932  1
  O  O386  1  0.12161941  0.58496733  0.30349755  1
  O  O387  1  0.12377240  0.58305771  0.80672115  1
  O  O388  1  0.45972355  0.08618982  0.30643716  1
  O  O389  1  0.45598694  0.08418065  0.80752680  1
  O  O390  1  0.45936941  0.58047408  0.30994582  1
  O  O391  1  0.46287347  0.58377304  0.81080255  1
  O  O392  1  0.78859798  0.08619153  0.30493562  1
  O  O393  1  0.78868954  0.07925497  0.80552164  1
  O  O394  1  0.78819730  0.57933449  0.30195490  1
  O  O395  1  0.78712421  0.58567191  0.80470584  1
  O  O396  1  0.29633945  0.33029741  0.30809516  1
  O  O397  1  0.29450852  0.33567953  0.80665986  1
  O  O398  1  0.29097282  0.83773423  0.30779337  1
  O  O399  1  0.28995843  0.83711516  0.80658484  1
  O  O400  1  0.62510156  0.33395521  0.30419422  1
  O  O401  1  0.62003586  0.33539540  0.80747664  1
  O  O402  1  0.61879777  0.82224055  0.30854071  1
  O  O403  1  0.61955874  0.83254794  0.80424436  1
  O  O404  1  0.95543245  0.32831817  0.30693114  1
  O  O405  1  0.94723766  0.34253971  0.80194032  1
  O  O406  1  0.96478093  0.83488838  0.30190513  1
  O  O407  1  0.95403260  0.83041381  0.79954540  1
  O  O408  1  0.12022280  0.41303336  0.30006557  1
  O  O409  1  0.12298719  0.41614330  0.80859001  1
  O  O410  1  0.12368822  0.91911029  0.30260871  1
  O  O411  1  0.12600024  0.92016525  0.80633442  1
  O  O412  1  0.45996394  0.41383612  0.30683454  1
  O  O413  1  0.45749170  0.41678322  0.80718643  1
  O  O414  1  0.45930178  0.91642049  0.29980170  1
  O  O415  1  0.45536432  0.91911110  0.80445583  1
  O  O416  1  0.78762963  0.41573576  0.30361113  1
  O  O417  1  0.78731755  0.42186436  0.80758847  1
  O  O418  1  0.79623354  0.92679757  0.30320064  1
  O  O419  1  0.78449770  0.90935971  0.80542433  1
  O  O420  1  0.29407453  0.16602681  0.30525066  1
  O  O421  1  0.29316947  0.16682316  0.80519653  1
  O  O422  1  0.29008805  0.66691690  0.30247571  1
  O  O423  1  0.28763697  0.66994195  0.80227956  1
  O  O424  1  0.62654596  0.16986466  0.30417625  1
  O  O425  1  0.62107230  0.16583084  0.79887796  1
  O  O426  1  0.62173278  0.66086127  0.30557254  1
  O  O427  1  0.62141813  0.66734754  0.80622410  1
  O  O428  1  0.95870937  0.16585189  0.30431843  1
  O  O429  1  0.94803876  0.15920704  0.80784126  1
  O  O430  1  0.95255451  0.66640915  0.30599564  1
  O  O431  1  0.95607405  0.66466537  0.80428337  1
  F  F432  1  0.04947411  0.00171332  0.19983044  1
  F  F433  1  0.04665897  -0.00753906  0.69653514  1
  F  F434  1  0.03723153  0.50066391  0.19854461  1
  F  F435  1  0.04588019  0.50054514  0.70463145  1
  F  F436  1  0.37900306  0.00211443  0.20271522  1
  F  F437  1  0.38000028  0.00074931  0.70250829  1
  F  F438  1  0.38159130  0.49833103  0.20551629  1
  F  F439  1  0.37966644  0.49970620  0.70421030  1
  F  F440  1  0.71541870  0.01199752  0.19483284  1
  F  F441  1  0.70935205  -0.00199593  0.70310706  1
  F  F442  1  0.70869593  0.49801240  0.20079982  1
  F  F443  1  0.70984764  0.50214258  0.70319689  1
  F  F444  1  0.21613117  0.25120849  0.20366017  1
  F  F445  1  0.21142390  0.25509886  0.69558106  1
  F  F446  1  0.21429407  0.75260213  0.20305575  1
  F  F447  1  0.21154616  0.75439071  0.70196427  1
  F  F448  1  0.54497294  0.25098551  0.20337292  1
  F  F449  1  0.54362275  0.25201335  0.70079320  1
  F  F450  1  0.54020298  0.74470783  0.20361958  1
  F  F451  1  0.54312782  0.74988830  0.70406384  1
  F  F452  1  0.87951108  0.24971357  0.20206194  1
  F  F453  1  0.86321472  0.24984539  0.69671791  1
  F  F454  1  0.88413912  0.73906854  0.19649623  1
  F  F455  1  0.87476092  0.74559661  0.69962496  1
  F  F456  1  0.29001154  -0.00024245  0.29894571  1
  F  F457  1  0.28743056  0.00185081  0.79612892  1
  F  F458  1  0.29828493  0.49775680  0.30439323  1
  F  F459  1  0.29040501  0.49852584  0.80477415  1
  F  F460  1  0.61884601  0.01044659  0.30050990  1
  F  F461  1  0.61971443  -0.00202208  0.79826893  1
  F  F462  1  0.62237025  0.49720718  0.29851856  1
  F  F463  1  0.61923547  0.50211490  0.79865270  1
  F  F464  1  0.95902371  0.00087325  0.29525340  1
  F  F465  1  0.95300477  -0.00398945  0.79866867  1
  F  F466  1  0.95247450  0.50151729  0.29852419  1
  F  F467  1  0.95251486  0.50166838  0.79640323  1
  F  F468  1  0.12308503  0.24814106  0.29607627  1
  F  F469  1  0.13749651  0.25633087  0.80850231  1
  F  F470  1  0.12265664  0.75337132  0.29822225  1
  F  F471  1  0.12226985  0.74924928  0.79799158  1
  F  F472  1  0.45738758  0.24953906  0.29891634  1
  F  F473  1  0.46169065  0.25070111  0.80132773  1
  F  F474  1  0.45453286  0.74860790  0.30007089  1
  F  F475  1  0.45571480  0.75351330  0.80227217  1
  F  F476  1  0.78804407  0.24979431  0.29621112  1
  F  F477  1  0.78604293  0.24661717  0.79959181  1
  F  F478  1  0.78207485  0.73689764  0.29891512  1
  F  F479  1  0.78457200  0.74762305  0.79604003  1
