# generated using pymatgen
data_K24Na3Li5Mg64Fe17Si79(O5F)48
_symmetry_space_group_name_H-M   'P 1'
_cell_length_a   16.10140219
_cell_length_b   18.59094822
_cell_length_c   20.55521073
_cell_angle_alpha   89.99644462
_cell_angle_beta   100.00975939
_cell_angle_gamma   90.01201340
_symmetry_Int_Tables_number   1
_chemical_formula_structural   K24Na3Li5Mg64Fe17Si79(O5F)48
_chemical_formula_sum   'K24 Na3 Li5 Mg64 Fe17 Si79 O240 F48'
_cell_volume   6059.34348593
_cell_formula_units_Z   1
loop_
 _symmetry_equiv_pos_site_id
 _symmetry_equiv_pos_as_xyz
  1  'x, y, z'
loop_
 _atom_site_type_symbol
 _atom_site_label
 _atom_site_symmetry_multiplicity
 _atom_site_fract_x
 _atom_site_fract_y
 _atom_site_fract_z
 _atom_site_occupancy
  K  K0  1  -0.00606547  0.01016207  -0.00226173  1
  K  K1  1  0.00746807  0.00662772  0.50303537  1
  K  K2  1  -0.00782998  0.49549746  -0.00781332  1
  K  K3  1  -0.00439101  0.49114038  0.51162036  1
  K  K4  1  0.33974095  0.00274643  0.00848092  1
  K  K5  1  0.34582593  0.00799598  0.50230187  1
  K  K6  1  0.34408905  0.49214189  -0.00092010  1
  K  K7  1  0.34192565  0.49270749  0.50248817  1
  K  K8  1  0.65312695  0.00979994  0.00112038  1
  K  K9  1  0.64925545  0.00156653  0.49797349  1
  K  K10  1  0.65217992  0.49841738  -0.01018286  1
  K  K11  1  0.66523203  0.48880639  0.50431648  1
  K  K12  1  0.16730816  0.25289898  -0.00207648  1
  K  K13  1  0.17742484  0.25005584  0.50037010  1
  K  K14  1  0.17081679  0.75765466  -0.00138137  1
  K  K15  1  0.17493943  0.75690624  0.50299814  1
  K  K16  1  0.49840511  0.24635117  0.00175336  1
  K  K17  1  0.50463950  0.24885252  0.49736952  1
  K  K18  1  0.48638481  0.74420999  -0.00081892  1
  K  K19  1  0.50727583  0.75325739  0.49756511  1
  K  K20  1  0.82562713  0.24561004  -0.00846775  1
  K  K21  1  0.82321683  0.26318587  0.50863459  1
  K  K22  1  0.82643493  0.74989389  -0.00822178  1
  K  K23  1  0.83390176  0.75115755  0.50227873  1
  Na  Na24  1  0.16835719  0.00063125  0.74867080  1
  Na  Na25  1  0.49836250  0.32847355  0.25485020  1
  Na  Na26  1  0.33292359  0.91865539  0.24539029  1
  Li  Li27  1  0.82636380  0.49186542  0.75095241  1
  Li  Li28  1  0.33822361  0.25255205  0.25196738  1
  Li  Li29  1  0.50491738  0.16561375  0.75086330  1
  Li  Li30  1  0.67172261  0.41670675  0.75134803  1
  Li  Li31  1  0.00278016  0.08483586  0.24982139  1
  Mg  Mg32  1  0.00145264  0.74837781  0.74999623  1
  Mg  Mg33  1  -0.00178629  0.75212055  0.24959072  1
  Mg  Mg34  1  0.49916487  -0.00065190  0.24589836  1
  Mg  Mg35  1  0.49994864  0.49633737  0.25344302  1
  Mg  Mg36  1  0.16378346  0.00226992  0.24748020  1
  Mg  Mg37  1  0.83257734  0.00103624  0.75135814  1
  Mg  Mg38  1  0.66765003  0.74733818  0.74979436  1
  Mg  Mg39  1  0.00267536  0.24791230  0.25087615  1
  Mg  Mg40  1  0.16312810  0.49881436  0.75368388  1
  Mg  Mg41  1  0.83391668  0.49941206  0.25320256  1
  Mg  Mg42  1  0.33549603  0.24639130  0.75176694  1
  Mg  Mg43  1  0.66508639  0.74971251  0.25381225  1
  Mg  Mg44  1  0.33342211  0.75069853  0.24712657  1
  Mg  Mg45  1  0.66386597  0.25212519  0.74988786  1
  Mg  Mg46  1  0.16610321  0.49903852  0.25193021  1
  Mg  Mg47  1  -0.00286009  0.25148194  0.75314520  1
  Mg  Mg48  1  0.83735343  0.00237263  0.25267913  1
  Mg  Mg49  1  0.50109863  0.49868137  0.75332159  1
  Mg  Mg50  1  0.33467413  0.74993143  0.74709857  1
  Mg  Mg51  1  0.50168843  0.00316891  0.74708474  1
  Mg  Mg52  1  0.66665820  0.24839423  0.25101823  1
  Mg  Mg53  1  -0.00012949  0.91991596  0.24949955  1
  Mg  Mg54  1  0.00177691  0.91692167  0.74928696  1
  Mg  Mg55  1  0.50030987  0.83366219  0.24847097  1
  Mg  Mg56  1  0.49975151  0.66307341  0.74828743  1
  Mg  Mg57  1  0.83138142  0.33829475  0.75237143  1
  Mg  Mg58  1  0.66486942  0.91552675  0.24911524  1
  Mg  Mg59  1  0.83481764  0.83296696  0.75065536  1
  Mg  Mg60  1  0.00033911  0.08390468  0.75282270  1
  Mg  Mg61  1  0.66858289  0.57774583  0.74987340  1
  Mg  Mg62  1  -0.00112724  0.58092379  0.74946710  1
  Mg  Mg63  1  0.83102775  0.16620766  0.75222993  1
  Mg  Mg64  1  0.66663356  0.91619402  0.74673413  1
  Mg  Mg65  1  -0.00300911  0.41666369  0.75416829  1
  Mg  Mg66  1  0.83428321  0.66176209  0.74901485  1
  Mg  Mg67  1  0.50203810  0.66556215  0.25282702  1
  Mg  Mg68  1  0.83764199  0.16561392  0.24946674  1
  Mg  Mg69  1  0.33349003  0.58311400  0.75080264  1
  Mg  Mg70  1  0.49537164  0.16545017  0.24622210  1
  Mg  Mg71  1  0.16782534  0.66506283  0.75221959  1
  Mg  Mg72  1  0.33221705  0.08604262  0.24748891  1
  Mg  Mg73  1  0.83398813  0.33310411  0.25195146  1
  Mg  Mg74  1  0.33654988  0.08496507  0.74775402  1
  Mg  Mg75  1  0.33366276  0.41433039  0.75463606  1
  Mg  Mg76  1  -0.00080875  0.58515776  0.25086283  1
  Mg  Mg77  1  0.16852945  0.16486720  0.75138305  1
  Mg  Mg78  1  0.17089858  0.33201727  0.24944296  1
  Mg  Mg79  1  0.66591890  0.41409194  0.25165734  1
  Mg  Mg80  1  0.16590458  0.33348317  0.75440474  1
  Mg  Mg81  1  0.66642158  0.58375278  0.25388949  1
  Mg  Mg82  1  0.00163263  0.41535275  0.25229779  1
  Mg  Mg83  1  0.66627203  0.08451642  0.24913276  1
  Mg  Mg84  1  0.33591928  0.91644498  0.74250079  1
  Mg  Mg85  1  0.16565128  0.66725592  0.25010527  1
  Mg  Mg86  1  0.83257037  0.83612838  0.25208199  1
  Mg  Mg87  1  0.16768032  0.16665075  0.25134002  1
  Mg  Mg88  1  0.16643051  0.83568494  0.24623013  1
  Mg  Mg89  1  0.49909940  0.83290623  0.74307635  1
  Mg  Mg90  1  0.16926100  0.83550390  0.74586092  1
  Mg  Mg91  1  0.33471001  0.41346607  0.25428844  1
  Mg  Mg92  1  0.33343532  0.58345384  0.25187350  1
  Mg  Mg93  1  0.83198591  0.66632722  0.25279159  1
  Mg  Mg94  1  0.66499502  0.08721931  0.74955317  1
  Mg  Mg95  1  0.50349926  0.33219023  0.75212351  1
  Fe  Fe96  1  0.30631838  0.15747759  0.89031339  1
  Fe  Fe97  1  0.64517502  0.33281600  0.39254659  1
  Fe  Fe98  1  0.52317867  0.08596413  0.60799412  1
  Fe  Fe99  1  0.97145803  0.33495292  0.89448998  1
  Fe  Fe100  1  0.52441604  0.08510192  0.10924003  1
  Fe  Fe101  1  0.64771269  0.83776117  0.39201118  1
  Fe  Fe102  1  0.64798750  0.66352638  0.39451357  1
  Fe  Fe103  1  0.85823814  0.42127441  0.61084998  1
  Fe  Fe104  1  0.14878616  0.41701191  0.89437295  1
  Fe  Fe105  1  0.63450497  0.16945412  0.89095515  1
  Fe  Fe106  1  0.35396142  0.33719358  0.10982914  1
  Fe  Fe107  1  0.14393754  0.58703172  0.89103570  1
  Fe  Fe108  1  0.35483496  0.82889814  0.10679445  1
  Fe  Fe109  1  0.47018465  0.58594899  0.88952019  1
  Fe  Fe110  1  0.35690760  0.82686049  0.60392771  1
  Fe  Fe111  1  0.80290723  0.08109300  0.89067141  1
  Fe  Fe112  1  0.30513660  0.33257989  0.39309222  1
  Si  Si113  1  0.52850427  0.57961858  0.61398955  1
  Si  Si114  1  0.18463950  0.58229344  0.11634627  1
  Si  Si115  1  0.47332715  0.41509329  0.88818948  1
  Si  Si116  1  0.19340474  0.08744938  0.61158527  1
  Si  Si117  1  0.02821551  0.83764610  0.61207631  1
  Si  Si118  1  0.81206312  0.91238378  0.88645427  1
  Si  Si119  1  0.35654150  0.33831467  0.61672825  1
  Si  Si120  1  0.52702811  0.58324968  0.11636409  1
  Si  Si121  1  0.97906940  0.16922287  0.38543436  1
  Si  Si122  1  0.80398426  0.58519229  0.88402316  1
  Si  Si123  1  0.86184053  0.08207198  0.61518104  1
  Si  Si124  1  0.35585716  0.65641931  0.60936771  1
  Si  Si125  1  0.02303797  0.66976624  0.11486108  1
  Si  Si126  1  0.52785545  0.91165094  0.10723173  1
  Si  Si127  1  0.02620777  0.16835237  0.11681695  1
  Si  Si128  1  0.97551757  0.33237158  0.38587633  1
  Si  Si129  1  0.18611742  0.08374330  0.11311631  1
  Si  Si130  1  0.69356535  0.66696437  0.11624197  1
  Si  Si131  1  0.19005042  0.41502572  0.61725555  1
  Si  Si132  1  0.19330958  0.91957693  0.60691169  1
  Si  Si133  1  0.86211920  0.59268660  0.61013340  1
  Si  Si134  1  0.02131591  0.83497125  0.11321010  1
  Si  Si135  1  0.53267875  0.41918613  0.11338142  1
  Si  Si136  1  0.30743616  0.16126546  0.38687144  1
  Si  Si137  1  0.14090013  0.08047601  0.38441534  1
  Si  Si138  1  0.85863793  0.91912045  0.11502045  1
  Si  Si139  1  0.13579711  0.42067287  0.38965408  1
  Si  Si140  1  0.02572950  0.33245014  0.11687338  1
  Si  Si141  1  0.47048889  0.58834663  0.38957272  1
  Si  Si142  1  0.30358735  0.83254685  0.38219373  1
  Si  Si143  1  0.69156194  0.66741093  0.61430287  1
  Si  Si144  1  0.46950738  0.07681866  0.88473146  1
  Si  Si145  1  0.81473986  0.57722545  0.38869721  1
  Si  Si146  1  0.13306126  0.08078653  0.88759755  1
  Si  Si147  1  0.69658547  0.16625642  0.61067823  1
  Si  Si148  1  0.48015311  0.91615133  0.87994288  1
  Si  Si149  1  0.86061550  0.91569636  0.61506549  1
  Si  Si150  1  0.64319473  0.83251097  0.88192017  1
  Si  Si151  1  0.97407207  0.83430201  0.38526031  1
  Si  Si152  1  0.81533029  0.08664153  0.38605332  1
  Si  Si153  1  0.81469907  0.41605997  0.38749364  1
  Si  Si154  1  0.97102224  0.66343432  0.88703090  1
  Si  Si155  1  0.35034008  0.16600292  0.10992070  1
  Si  Si156  1  0.47341696  0.91493179  0.38520412  1
  Si  Si157  1  0.63981461  0.33678227  0.88776413  1
  Si  Si158  1  0.64132163  0.66825653  0.88605182  1
  Si  Si159  1  0.13934822  0.91541646  0.38403003  1
  Si  Si160  1  0.02933858  0.67224161  0.61245541  1
  Si  Si161  1  0.30303603  0.66842853  0.38520538  1
  Si  Si162  1  0.86287094  0.08454344  0.11711124  1
  Si  Si163  1  0.13716512  0.58694600  0.38625775  1
  Si  Si164  1  0.69014204  0.33208345  0.61498192  1
  Si  Si165  1  0.69902010  0.33630895  0.11504916  1
  Si  Si166  1  0.47392830  0.08024774  0.38280912  1
  Si  Si167  1  0.30445901  0.67705241  0.88698182  1
  Si  Si168  1  0.85905785  0.58391250  0.11580869  1
  Si  Si169  1  0.14023184  0.91314696  0.88338956  1
  Si  Si170  1  0.69926584  0.16994728  0.11362068  1
  Si  Si171  1  0.18514448  0.42112997  0.11403414  1
  Si  Si172  1  0.31351061  0.32558409  0.88853986  1
  Si  Si173  1  0.35402305  0.17290972  0.60986616  1
  Si  Si174  1  0.18225368  0.91946124  0.10984078  1
  Si  Si175  1  0.18944721  0.57901482  0.61509715  1
  Si  Si176  1  0.52486996  0.41426189  0.61818899  1
  Si  Si177  1  0.97214346  0.66908208  0.38611334  1
  Si  Si178  1  0.64574890  0.16048555  0.38856546  1
  Si  Si179  1  0.52823183  0.91305086  0.60793204  1
  Si  Si180  1  0.35336064  0.65753832  0.11282174  1
  Si  Si181  1  0.47265169  0.42362194  0.39362332  1
  Si  Si182  1  0.86315927  0.41847399  0.11643292  1
  Si  Si183  1  0.02649666  0.16386720  0.61506712  1
  Si  Si184  1  0.97397425  0.16539384  0.88939727  1
  Si  Si185  1  0.80061454  0.41961231  0.88833832  1
  Si  Si186  1  0.69579094  0.83318930  0.61478815  1
  Si  Si187  1  0.02678739  0.32903345  0.61298496  1
  Si  Si188  1  0.81446279  0.92403036  0.38822283  1
  Si  Si189  1  0.97672834  0.82846579  0.88471572  1
  Si  Si190  1  0.69758199  0.83221610  0.11463371  1
  Si  Si191  1  0.31161733  0.84054816  0.88105394  1
  O  O192  1  0.26805467  0.11067772  0.08402519  1
  O  O193  1  0.26413177  0.13028246  0.57745714  1
  O  O194  1  0.27023245  0.60433029  0.08829937  1
  O  O195  1  0.27216947  0.60401044  0.58362087  1
  O  O196  1  0.61719780  0.12761799  0.07800480  1
  O  O197  1  0.61630413  0.12186261  0.57275858  1
  O  O198  1  0.60205429  0.62979932  0.08824471  1
  O  O199  1  0.60481738  0.62215358  0.58469258  1
  O  O200  1  0.94397518  0.11735631  0.08797046  1
  O  O201  1  0.94193172  0.11588579  0.58487695  1
  O  O202  1  0.93645117  0.62384989  0.08634924  1
  O  O203  1  0.93762182  0.63821493  0.57971694  1
  O  O204  1  0.10474927  0.36643606  0.08768822  1
  O  O205  1  0.11112509  0.36260861  0.58591686  1
  O  O206  1  0.09707797  0.86957571  0.08030799  1
  O  O207  1  0.09809486  0.88318068  0.57984925  1
  O  O208  1  0.45060763  0.37590439  0.07852901  1
  O  O209  1  0.43316036  0.37730802  0.58623449  1
  O  O210  1  0.45027251  0.86047676  0.07354892  1
  O  O211  1  0.45613688  0.85570174  0.57582931  1
  O  O212  1  0.77724761  0.37523459  0.08569784  1
  O  O213  1  0.75499873  0.37571675  0.57720774  1
  O  O214  1  0.77550944  0.87082282  0.08495870  1
  O  O215  1  0.77774102  0.86614839  0.58629843  1
  O  O216  1  0.26297722  0.40210335  0.07847925  1
  O  O217  1  0.27261198  0.38750368  0.58715127  1
  O  O218  1  0.25826360  0.88801036  0.07650304  1
  O  O219  1  0.25976781  0.88163879  0.56693164  1
  O  O220  1  0.61532655  0.38340754  0.08589635  1
  O  O221  1  0.59546985  0.36773653  0.58813251  1
  O  O222  1  0.61292578  0.87494476  0.08287635  1
  O  O223  1  0.61710654  0.88427782  0.58432499  1
  O  O224  1  0.94229438  0.38206817  0.08850278  1
  O  O225  1  0.94583545  0.37275624  0.57529430  1
  O  O226  1  0.93603593  0.88132109  0.08452600  1
  O  O227  1  0.93738523  0.87715855  0.58371077  1
  O  O228  1  0.10442994  0.13552241  0.08433012  1
  O  O229  1  0.10167622  0.12570977  0.58197063  1
  O  O230  1  0.10580084  0.63830096  0.08796468  1
  O  O231  1  0.10662822  0.62965658  0.58437790  1
  O  O232  1  0.42621362  0.13505729  0.07432331  1
  O  O233  1  0.42607023  0.14042065  0.57250111  1
  O  O234  1  0.43575122  0.62047377  0.08673289  1
  O  O235  1  0.43697863  0.61700232  0.58330853  1
  O  O236  1  0.78256778  0.13529784  0.08715714  1
  O  O237  1  0.78032387  0.13080589  0.58381342  1
  O  O238  1  0.76953432  0.62449174  0.08636076  1
  O  O239  1  0.77241265  0.63734885  0.58380324  1
  O  O240  1  0.06275177  0.11987483  0.41482576  1
  O  O241  1  0.04544909  0.10175280  0.91439191  1
  O  O242  1  0.05911255  0.62545784  0.41539239  1
  O  O243  1  0.04375362  0.61163239  0.92413973  1
  O  O244  1  0.39671095  0.11726280  0.41365874  1
  O  O245  1  0.38326385  0.08287282  0.91559831  1
  O  O246  1  0.38305148  0.61779510  0.41487008  1
  O  O247  1  0.37861035  0.62444538  0.92369820  1
  O  O248  1  0.73170945  0.11032333  0.41620436  1
  O  O249  1  0.71614151  0.10586671  0.93294113  1
  O  O250  1  0.73528475  0.59418577  0.42335361  1
  O  O251  1  0.72509044  0.61942525  0.91596787  1
  O  O252  1  0.21318325  0.37488070  0.42797278  1
  O  O253  1  0.23168305  0.34603585  0.92049732  1
  O  O254  1  0.22496696  0.86969547  0.41276445  1
  O  O255  1  0.22968894  0.87066962  0.91189281  1
  O  O256  1  0.55644250  0.37798130  0.42467228  1
  O  O257  1  0.55400106  0.36302328  0.91619617  1
  O  O258  1  0.55122812  0.86933975  0.42564556  1
  O  O259  1  0.55965699  0.86161925  0.91000284  1
  O  O260  1  0.89138940  0.35788593  0.41380785  1
  O  O261  1  0.87471694  0.36900618  0.92835791  1
  O  O262  1  0.89808085  0.87219044  0.41586086  1
  O  O263  1  0.89237571  0.85640141  0.91247975  1
  O  O264  1  0.04935765  0.39044100  0.41474854  1
  O  O265  1  0.05623701  0.39585765  0.93305234  1
  O  O266  1  0.06286046  0.87535506  0.41455819  1
  O  O267  1  0.06252483  0.87451817  0.91520923  1
  O  O268  1  0.39534027  0.39322286  0.42741026  1
  O  O269  1  0.38941524  0.38487729  0.91436115  1
  O  O270  1  0.38640642  0.88162420  0.40818890  1
  O  O271  1  0.39499900  0.89021695  0.90845318  1
  O  O272  1  0.73827833  0.39506454  0.42429297  1
  O  O273  1  0.71164004  0.39920656  0.91492130  1
  O  O274  1  0.73755407  0.90332086  0.42456413  1
  O  O275  1  0.72774868  0.87928424  0.91269006  1
  O  O276  1  0.23118215  0.11666536  0.41716955  1
  O  O277  1  0.20909552  0.12994887  0.92515664  1
  O  O278  1  0.22115683  0.63525245  0.41421145  1
  O  O279  1  0.21663045  0.66672317  0.91382530  1
  O  O280  1  0.56495730  0.11888328  0.41275621  1
  O  O281  1  0.53570973  0.13680844  0.91953818  1
  O  O282  1  0.54524635  0.64110483  0.42304906  1
  O  O283  1  0.56555995  0.64347269  0.92294597  1
  O  O284  1  0.89684965  0.13880428  0.41552998  1
  O  O285  1  0.89293913  0.14325545  0.92244483  1
  O  O286  1  0.89392782  0.63375467  0.41558883  1
  O  O287  1  0.88319679  0.63959084  0.91343577  1
  O  O288  1  0.15952980  0.00262796  0.08341558  1
  O  O289  1  0.18311945  0.00452108  0.58204556  1
  O  O290  1  0.15009259  0.50329301  0.09001305  1
  O  O291  1  0.16628207  0.49690260  0.58738566  1
  O  O292  1  0.51704717  -0.00919879  0.07403757  1
  O  O293  1  0.50689245  -0.00920158  0.57382103  1
  O  O294  1  0.52887437  0.50338810  0.08361998  1
  O  O295  1  0.52414615  0.49666316  0.58573859  1
  O  O296  1  0.84766456  0.00165982  0.08703373  1
  O  O297  1  0.84908603  -0.00170445  0.58597243  1
  O  O298  1  0.85380321  0.50152632  0.08751868  1
  O  O299  1  0.85574371  0.51566172  0.57402649  1
  O  O300  1  0.00665882  0.25068347  0.08774478  1
  O  O301  1  0.01636381  0.24516250  0.58399241  1
  O  O302  1  0.00526570  0.75168054  0.08551091  1
  O  O303  1  0.02792967  0.75515758  0.58193091  1
  O  O304  1  0.32200277  0.24424063  0.07858504  1
  O  O305  1  0.33752412  0.25802656  0.58468532  1
  O  O306  1  0.33210369  0.73293611  0.07483343  1
  O  O307  1  0.33527800  0.73176115  0.57096442  1
  O  O308  1  0.69330225  0.25419074  0.08663344  1
  O  O309  1  0.68701024  0.24969252  0.58322445  1
  O  O310  1  0.69306867  0.74884478  0.08590714  1
  O  O311  1  0.67716013  0.75081651  0.58660897  1
  O  O312  1  0.14405429  -0.00287316  0.41419752  1
  O  O313  1  0.14995199  -0.00489258  0.91166012  1
  O  O314  1  0.14640285  0.50566131  0.41621772  1
  O  O315  1  0.19321291  0.50460269  0.92824398  1
  O  O316  1  0.48044984  -0.00162324  0.41401624  1
  O  O317  1  0.50884546  -0.00501672  0.90947161  1
  O  O318  1  0.48795198  0.50807327  0.42160611  1
  O  O319  1  0.49381724  0.49307191  0.92314864  1
  O  O320  1  0.84665797  0.00598391  0.41280566  1
  O  O321  1  0.83866134  -0.01300211  0.92270502  1
  O  O322  1  0.85374894  0.49673090  0.41011446  1
  O  O323  1  0.82126080  0.50469785  0.91573458  1
  O  O324  1  0.31576711  0.23740524  0.42539912  1
  O  O325  1  0.34977872  0.24830562  0.91754556  1
  O  O326  1  0.31642281  0.75072516  0.41492511  1
  O  O327  1  0.33623185  0.76033432  0.91029323  1
  O  O328  1  0.66072052  0.23703991  0.42608231  1
  O  O329  1  0.66837788  0.26212889  0.92568146  1
  O  O330  1  0.68631822  0.75097092  0.43029304  1
  O  O331  1  0.66642774  0.75164821  0.91160214  1
  O  O332  1  1.00052534  0.25126282  0.41524877  1
  O  O333  1  1.00965572  0.24135384  0.92148994  1
  O  O334  1  0.98447162  0.75168694  0.41453984  1
  O  O335  1  0.99216247  0.74696654  0.91459431  1
  O  O336  1  0.20428606  0.08385469  0.19334795  1
  O  O337  1  0.21274636  0.08973862  0.69039199  1
  O  O338  1  0.20429280  0.58495964  0.19716800  1
  O  O339  1  0.20993516  0.58321946  0.69492816  1
  O  O340  1  0.54782106  0.08230962  0.20086867  1
  O  O341  1  0.54764644  0.08058704  0.69778368  1
  O  O342  1  0.54386110  0.58267880  0.19665970  1
  O  O343  1  0.54516983  0.58328635  0.69384915  1
  O  O344  1  0.87720779  0.08234529  0.19682566  1
  O  O345  1  0.87888847  0.08150593  0.69516660  1
  O  O346  1  0.87718074  0.58519606  0.19637347  1
  O  O347  1  0.88305214  0.59370501  0.68983411  1
  O  O348  1  0.04241414  0.33429452  0.19755626  1
  O  O349  1  0.04320365  0.32990767  0.69310109  1
  O  O350  1  0.03923527  0.83350174  0.19379121  1
  O  O351  1  0.04407365  0.83474426  0.69212540  1
  O  O352  1  0.36896547  0.33762109  0.19778677  1
  O  O353  1  0.37491708  0.33572496  0.69655075  1
  O  O354  1  0.38220473  0.82419877  0.19668874  1
  O  O355  1  0.37796436  0.83003303  0.69561445  1
  O  O356  1  0.71702050  0.33582380  0.19526140  1
  O  O357  1  0.71221655  0.33069784  0.69451464  1
  O  O358  1  0.71523684  0.83226026  0.19499497  1
  O  O359  1  0.71349806  0.83164096  0.69533137  1
  O  O360  1  0.20311081  0.42039631  0.19511513  1
  O  O361  1  0.20999553  0.41636098  0.69712496  1
  O  O362  1  0.19469751  0.91713925  0.18974641  1
  O  O363  1  0.21430371  0.90936892  0.68608696  1
  O  O364  1  0.54982104  0.42430176  0.19329237  1
  O  O365  1  0.53749890  0.41816840  0.69722925  1
  O  O366  1  0.54476152  0.91428487  0.18881853  1
  O  O367  1  0.54561298  0.91328746  0.68948850  1
  O  O368  1  0.87915303  0.41882084  0.19709278  1
  O  O369  1  0.87915534  0.41683238  0.70023324  1
  O  O370  1  0.87691702  0.91622653  0.19544891  1
  O  O371  1  0.87807085  0.91434859  0.69535509  1
  O  O372  1  0.04451584  0.16903126  0.19635450  1
  O  O373  1  0.04320904  0.16412486  0.69506056  1
  O  O374  1  0.03946298  0.66837264  0.19553606  1
  O  O375  1  0.04487416  0.67133777  0.69235055  1
  O  O376  1  0.37402968  0.16352312  0.19043281  1
  O  O377  1  0.37125511  0.16805141  0.68933794  1
  O  O378  1  0.37316522  0.66217082  0.19398178  1
  O  O379  1  0.37397177  0.66372255  0.68989819  1
  O  O380  1  0.71597519  0.16716769  0.19471424  1
  O  O381  1  0.71211048  0.16532505  0.69090891  1
  O  O382  1  0.71393378  0.66618963  0.19640430  1
  O  O383  1  0.70987297  0.66638363  0.69460687  1
  O  O384  1  0.12303807  0.08226765  0.30502790  1
  O  O385  1  0.11773878  0.08772279  0.80758079  1
  O  O386  1  0.11955941  0.58660488  0.30560144  1
  O  O387  1  0.12021880  0.58508613  0.79804734  1
  O  O388  1  0.45504788  0.07979776  0.30302589  1
  O  O389  1  0.45464567  0.07763544  0.80419349  1
  O  O390  1  0.45488941  0.58621618  0.30820382  1
  O  O391  1  0.45343373  0.58474035  0.79791827  1
  O  O392  1  0.79482686  0.08578597  0.30556890  1
  O  O393  1  0.78722644  0.08094892  0.79818339  1
  O  O394  1  0.79448669  0.58329515  0.30724895  1
  O  O395  1  0.78683277  0.58755662  0.80451406  1
  O  O396  1  0.28319347  0.33758937  0.30305471  1
  O  O397  1  0.29172298  0.33075751  0.80679918  1
  O  O398  1  0.28053460  0.82542650  0.30325577  1
  O  O399  1  0.28972280  0.83668774  0.80082345  1
  O  O400  1  0.63638154  0.33155847  0.30260524  1
  O  O401  1  0.62161405  0.33209901  0.80786192  1
  O  O402  1  0.62453456  0.83379697  0.29900097  1
  O  O403  1  0.62534963  0.83224377  0.80133183  1
  O  O404  1  0.95810102  0.33303779  0.30523245  1
  O  O405  1  0.95429530  0.33237839  0.80231585  1
  O  O406  1  0.95650029  0.83353933  0.30469159  1
  O  O407  1  0.95863189  0.83130162  0.80410028  1
  O  O408  1  0.12053234  0.42003380  0.30852498  1
  O  O409  1  0.12093870  0.41619766  0.80091774  1
  O  O410  1  0.12073798  0.91485988  0.30386140  1
  O  O411  1  0.11914947  0.90757900  0.80401097  1
  O  O412  1  0.45292727  0.42650537  0.31314053  1
  O  O413  1  0.45611443  0.41710133  0.80721000  1
  O  O414  1  0.46809365  0.91599044  0.30584416  1
  O  O415  1  0.46185390  0.91396948  0.79960901  1
  O  O416  1  0.79485990  0.41633274  0.30623317  1
  O  O417  1  0.78913418  0.41566972  0.80932978  1
  O  O418  1  0.79410290  0.91811467  0.30719114  1
  O  O419  1  0.79255082  0.91338341  0.80534981  1
  O  O420  1  0.28513774  0.16206793  0.30701993  1
  O  O421  1  0.28788376  0.16349616  0.79862894  1
  O  O422  1  0.28579638  0.66719306  0.30459180  1
  O  O423  1  0.29158052  0.67019802  0.80506700  1
  O  O424  1  0.63176912  0.16423085  0.30826825  1
  O  O425  1  0.62782295  0.16859155  0.80071077  1
  O  O426  1  0.62484484  0.66544979  0.30141628  1
  O  O427  1  0.62333357  0.66682846  0.80518395  1
  O  O428  1  0.95740800  0.17018646  0.30599295  1
  O  O429  1  0.95493468  0.16511332  0.80738782  1
  O  O430  1  0.95614570  0.66832706  0.30533976  1
  O  O431  1  0.95661346  0.66658937  0.80591572  1
  F  F432  1  0.04279683  -0.00279375  0.20012526  1
  F  F433  1  0.03213104  -0.00036822  0.69774090  1
  F  F434  1  0.04264396  0.50193810  0.20363833  1
  F  F435  1  0.04373840  0.50031056  0.69748608  1
  F  F436  1  0.38186698  0.00854408  0.19569625  1
  F  F437  1  0.38143019  -0.00081887  0.69458261  1
  F  F438  1  0.37832942  0.50154454  0.20592693  1
  F  F439  1  0.37608814  0.49755389  0.70214868  1
  F  F440  1  0.71705396  -0.00102821  0.20357402  1
  F  F441  1  0.71548074  -0.00631035  0.69804206  1
  F  F442  1  0.71579038  0.50195091  0.20446011  1
  F  F443  1  0.70813610  0.50262071  0.69830867  1
  F  F444  1  0.19833113  0.24820012  0.19928590  1
  F  F445  1  0.21002803  0.25265062  0.70217664  1
  F  F446  1  0.20619922  0.74836043  0.19902065  1
  F  F447  1  0.21153509  0.74809935  0.69994434  1
  F  F448  1  0.55324051  0.23857679  0.19799056  1
  F  F449  1  0.54742258  0.25876676  0.69658917  1
  F  F450  1  0.54627271  0.74628886  0.20012605  1
  F  F451  1  0.54777213  0.74667067  0.69974263  1
  F  F452  1  0.88121666  0.25168283  0.20181544  1
  F  F453  1  0.87883974  0.24534897  0.70123215  1
  F  F454  1  0.87780431  0.75012483  0.20220282  1
  F  F455  1  0.88012132  0.75090992  0.70178149  1
  F  F456  1  0.28031515  0.00705428  0.29726568  1
  F  F457  1  0.30064136  -0.00386299  0.79318528  1
  F  F458  1  0.28371907  0.50399815  0.29957677  1
  F  F459  1  0.28751052  0.50077412  0.79775235  1
  F  F460  1  0.62499194  -0.00203343  0.29719292  1
  F  F461  1  0.62411391  -0.00533484  0.79595791  1
  F  F462  1  0.62334807  0.49991325  0.29952881  1
  F  F463  1  0.61749935  0.50724790  0.80257327  1
  F  F464  1  0.95448569  -0.00595905  0.30220576  1
  F  F465  1  0.95410854  -0.00358001  0.79899187  1
  F  F466  1  0.95618118  0.50215577  0.29887139  1
  F  F467  1  0.95881805  0.50385315  0.79980022  1
  F  F468  1  0.12016315  0.25091955  0.30156576  1
  F  F469  1  0.11966377  0.24825446  0.79679763  1
  F  F470  1  0.11770404  0.75085601  0.29690288  1
  F  F471  1  0.12170178  0.75245601  0.79454445  1
  F  F472  1  0.45544507  0.23410043  0.30484329  1
  F  F473  1  0.45400315  0.25214248  0.79574832  1
  F  F474  1  0.45354609  0.74647315  0.29897031  1
  F  F475  1  0.45704431  0.74817519  0.79455851  1
  F  F476  1  0.79297765  0.24849677  0.29757765  1
  F  F477  1  0.78751367  0.25011775  0.79665191  1
  F  F478  1  0.79183106  0.75072167  0.29934129  1
  F  F479  1  0.78971282  0.74874670  0.79698224  1
