# generated using pymatgen
data_K24Na3Li5Mg64Fe17Si79(O5F)48
_symmetry_space_group_name_H-M   'P 1'
_cell_length_a   16.09685489
_cell_length_b   18.61157477
_cell_length_c   20.57738033
_cell_angle_alpha   90.00366370
_cell_angle_beta   100.03546373
_cell_angle_gamma   90.00975845
_symmetry_Int_Tables_number   1
_chemical_formula_structural   K24Na3Li5Mg64Fe17Si79(O5F)48
_chemical_formula_sum   'K24 Na3 Li5 Mg64 Fe17 Si79 O240 F48'
_cell_volume   6070.41247071
_cell_formula_units_Z   1
loop_
 _symmetry_equiv_pos_site_id
 _symmetry_equiv_pos_as_xyz
  1  'x, y, z'
loop_
 _atom_site_type_symbol
 _atom_site_label
 _atom_site_symmetry_multiplicity
 _atom_site_fract_x
 _atom_site_fract_y
 _atom_site_fract_z
 _atom_site_occupancy
  K  K0  1  -0.01025013  -0.01202400  -0.00106662  1
  K  K1  1  -0.00615689  -0.00145472  0.50610833  1
  K  K2  1  0.00976825  0.50933684  -0.00492580  1
  K  K3  1  -0.00137563  0.50082596  0.50207737  1
  K  K4  1  0.33846505  -0.00121756  -0.00133354  1
  K  K5  1  0.34096295  -0.00870173  0.50438374  1
  K  K6  1  0.33917599  0.52289104  0.00048542  1
  K  K7  1  0.32849247  0.50416790  0.49737580  1
  K  K8  1  0.65645235  -0.01541270  0.00239628  1
  K  K9  1  0.66850648  -0.00951469  0.49524443  1
  K  K10  1  0.65725680  0.50897545  0.00311753  1
  K  K11  1  0.65652705  0.50246270  0.49062712  1
  K  K12  1  0.16547217  0.25011325  -0.00300579  1
  K  K13  1  0.16467993  0.25837847  0.50218844  1
  K  K14  1  0.15563531  0.74880050  -0.01008842  1
  K  K15  1  0.16579525  0.75157299  0.50978574  1
  K  K16  1  0.50029527  0.24813191  0.00301141  1
  K  K17  1  0.50309571  0.25063993  0.49780903  1
  K  K18  1  0.50315794  0.74564758  0.00186526  1
  K  K19  1  0.50653491  0.75065862  0.50097936  1
  K  K20  1  0.83107212  0.24654166  0.00094083  1
  K  K21  1  0.83723884  0.25137596  0.50103616  1
  K  K22  1  0.84022693  0.75664120  -0.00384416  1
  K  K23  1  0.83064850  0.75125473  0.50174708  1
  Na  Na24  1  0.49834884  0.49924322  0.24870197  1
  Na  Na25  1  0.16589979  0.82908281  0.75961469  1
  Na  Na26  1  0.66419222  0.07547551  0.25234062  1
  Li  Li27  1  0.82817791  0.49875975  0.25021389  1
  Li  Li28  1  0.50559128  -0.00208290  0.25366953  1
  Li  Li29  1  0.00340813  0.07934487  0.75238882  1
  Li  Li30  1  0.16652336  0.67156925  0.75563239  1
  Li  Li31  1  -0.00140858  0.91006863  0.24615024  1
  Mg  Mg32  1  -0.00341646  0.24991202  0.25383450  1
  Mg  Mg33  1  0.83587443  -0.00407281  0.25101500  1
  Mg  Mg34  1  0.33455454  0.75093001  0.24631072  1
  Mg  Mg35  1  0.33379367  0.25157078  0.74903528  1
  Mg  Mg36  1  0.00161332  0.75217780  0.75305495  1
  Mg  Mg37  1  0.16501889  0.49946780  0.24952669  1
  Mg  Mg38  1  0.50249352  0.50159990  0.74476377  1
  Mg  Mg39  1  0.16412179  -0.00015186  0.75442922  1
  Mg  Mg40  1  0.66555140  0.74870731  0.24960763  1
  Mg  Mg41  1  0.66782613  0.75080078  0.74666269  1
  Mg  Mg42  1  0.33145997  0.24928783  0.25287793  1
  Mg  Mg43  1  0.66510348  0.24724675  0.25108307  1
  Mg  Mg44  1  0.00283087  0.24797370  0.74976055  1
  Mg  Mg45  1  0.50107454  -0.00086291  0.75165466  1
  Mg  Mg46  1  0.83567232  0.00128932  0.74958520  1
  Mg  Mg47  1  0.83719249  0.50233185  0.74687773  1
  Mg  Mg48  1  0.16267039  -0.00275260  0.24816337  1
  Mg  Mg49  1  0.66866554  0.25308324  0.74673360  1
  Mg  Mg50  1  0.33135149  0.75078768  0.75058299  1
  Mg  Mg51  1  0.00009063  0.75014750  0.24699241  1
  Mg  Mg52  1  0.17054102  0.50318472  0.74754199  1
  Mg  Mg53  1  0.83236545  0.33418845  0.25206750  1
  Mg  Mg54  1  0.66641085  0.58084725  0.24842415  1
  Mg  Mg55  1  0.33466959  0.08207204  0.25083909  1
  Mg  Mg56  1  0.49883142  0.66591118  0.24855073  1
  Mg  Mg57  1  0.50028650  0.16280414  0.25104205  1
  Mg  Mg58  1  0.00627251  0.58811758  0.75143487  1
  Mg  Mg59  1  0.33211304  0.41523688  0.25110883  1
  Mg  Mg60  1  0.50206433  0.83744196  0.25111949  1
  Mg  Mg61  1  0.33208126  0.58744525  0.74768264  1
  Mg  Mg62  1  0.83545725  0.83303694  0.24932054  1
  Mg  Mg63  1  0.33481768  0.58437325  0.24631129  1
  Mg  Mg64  1  0.50162519  0.66670036  0.74601229  1
  Mg  Mg65  1  0.66639579  0.41820009  0.74549089  1
  Mg  Mg66  1  -0.00606597  0.41638127  0.25297927  1
  Mg  Mg67  1  0.33479208  0.91838838  0.24868574  1
  Mg  Mg68  1  0.16566461  0.16535228  0.75249421  1
  Mg  Mg69  1  -0.00349327  0.58148844  0.24906151  1
  Mg  Mg70  1  -0.00159325  0.08003581  0.25181770  1
  Mg  Mg71  1  0.00573933  0.41727697  0.75057332  1
  Mg  Mg72  1  0.66668617  0.91534640  0.25387199  1
  Mg  Mg73  1  0.33482207  0.91558120  0.75457246  1
  Mg  Mg74  1  0.16434817  0.16411101  0.25250278  1
  Mg  Mg75  1  0.16579046  0.66591491  0.24568810  1
  Mg  Mg76  1  0.66690467  0.08616753  0.74746805  1
  Mg  Mg77  1  0.49945979  0.33617096  0.74499779  1
  Mg  Mg78  1  0.16309592  0.33333144  0.25395314  1
  Mg  Mg79  1  0.66598670  0.91542572  0.74933283  1
  Mg  Mg80  1  0.33315434  0.41797916  0.74677672  1
  Mg  Mg81  1  0.49929944  0.33279688  0.25121253  1
  Mg  Mg82  1  0.66586942  0.58538654  0.74630959  1
  Mg  Mg83  1  0.83340584  0.66738896  0.74915223  1
  Mg  Mg84  1  0.16319580  0.83429165  0.24686450  1
  Mg  Mg85  1  0.50156976  0.83669053  0.74932825  1
  Mg  Mg86  1  0.33382532  0.08378279  0.75339937  1
  Mg  Mg87  1  0.83630668  0.33535730  0.74734514  1
  Mg  Mg88  1  0.83221620  0.66263906  0.24806998  1
  Mg  Mg89  1  0.83722660  0.16606125  0.74766565  1
  Mg  Mg90  1  0.83164468  0.16412321  0.25165965  1
  Mg  Mg91  1  -0.00062619  0.91946312  0.75079428  1
  Mg  Mg92  1  0.50033501  0.16716896  0.74975134  1
  Mg  Mg93  1  0.83476146  0.83665357  0.74831910  1
  Mg  Mg94  1  0.66601151  0.41640746  0.25061268  1
  Mg  Mg95  1  0.16918592  0.33606663  0.74992244  1
  Fe  Fe96  1  0.69264985  0.66308273  0.60757396  1
  Fe  Fe97  1  0.51621060  0.58319764  0.60475872  1
  Fe  Fe98  1  0.14345168  0.91982727  0.89565451  1
  Fe  Fe99  1  0.02701760  0.82956695  0.10845625  1
  Fe  Fe100  1  0.52776427  0.58354417  0.10722565  1
  Fe  Fe101  1  0.35319060  0.67326785  0.10591634  1
  Fe  Fe102  1  0.52593892  0.92151406  0.60838024  1
  Fe  Fe103  1  0.63968669  0.82872309  0.89029847  1
  Fe  Fe104  1  0.97302233  0.33422006  0.39252811  1
  Fe  Fe105  1  0.19564804  0.42072947  0.60888662  1
  Fe  Fe106  1  0.47225855  0.91705804  0.89386360  1
  Fe  Fe107  1  0.46917988  0.41259833  0.39075259  1
  Fe  Fe108  1  0.86164281  0.91644480  0.60857312  1
  Fe  Fe109  1  0.14678976  0.58476943  0.88826782  1
  Fe  Fe110  1  0.96881691  0.83633407  0.89084109  1
  Fe  Fe111  1  0.52126807  0.41202498  0.60668602  1
  Fe  Fe112  1  0.64205920  0.83528071  0.39091921  1
  Si  Si113  1  0.02923946  0.32981791  0.61426277  1
  Si  Si114  1  0.69115763  0.32922600  0.11352318  1
  Si  Si115  1  0.13768458  0.42252056  0.38642838  1
  Si  Si116  1  0.80581573  0.58012883  0.38268837  1
  Si  Si117  1  0.64391795  0.17221970  0.88440286  1
  Si  Si118  1  0.46885377  0.92064411  0.38645256  1
  Si  Si119  1  0.97748520  0.33225290  0.88526726  1
  Si  Si120  1  0.80707270  0.57741298  0.88367557  1
  Si  Si121  1  0.30558069  0.83527835  0.38301791  1
  Si  Si122  1  0.85347021  0.08587537  0.61146511  1
  Si  Si123  1  0.02091293  0.33255156  0.11592744  1
  Si  Si124  1  0.97702813  0.16843233  0.88479068  1
  Si  Si125  1  0.31308500  0.33468364  0.88575896  1
  Si  Si126  1  0.02100492  0.16736776  0.11692977  1
  Si  Si127  1  0.97912124  0.16334762  0.38964585  1
  Si  Si128  1  0.69314537  0.83336393  0.61042145  1
  Si  Si129  1  0.02860926  0.83397554  0.61320253  1
  Si  Si130  1  0.35529760  0.32798706  0.11418926  1
  Si  Si131  1  0.02435661  0.16544022  0.61735112  1
  Si  Si132  1  0.96976945  0.66317579  0.88872008  1
  Si  Si133  1  0.18699372  0.08558175  0.11597819  1
  Si  Si134  1  0.14092012  0.07577346  0.38657108  1
  Si  Si135  1  0.69048679  0.16614518  0.11516388  1
  Si  Si136  1  0.19433834  0.91916715  0.61907584  1
  Si  Si137  1  0.02263707  0.65792499  0.11170290  1
  Si  Si138  1  0.52420264  0.40801613  0.11151171  1
  Si  Si139  1  0.18894976  0.08147160  0.61718560  1
  Si  Si140  1  0.81512781  0.91699431  0.38844049  1
  Si  Si141  1  0.13956780  0.91168518  0.38353822  1
  Si  Si142  1  0.19380907  0.58677077  0.61096183  1
  Si  Si143  1  0.52234154  0.08336977  0.11577553  1
  Si  Si144  1  0.80958466  0.08946101  0.88437827  1
  Si  Si145  1  0.81145630  0.41466215  0.88340614  1
  Si  Si146  1  0.64326031  0.66523119  0.38665967  1
  Si  Si147  1  0.03029947  0.66998525  0.61652110  1
  Si  Si148  1  0.19533200  0.92139521  0.11357616  1
  Si  Si149  1  0.35198593  0.16566514  0.61683120  1
  Si  Si150  1  0.14254317  0.58695794  0.38283016  1
  Si  Si151  1  0.69887279  0.33887358  0.61098078  1
  Si  Si152  1  0.18972100  0.57624486  0.11301597  1
  Si  Si153  1  0.85953799  0.57922125  0.11529672  1
  Si  Si154  1  0.35534471  0.83701591  0.61339143  1
  Si  Si155  1  0.35951025  0.32683634  0.61149891  1
  Si  Si156  1  0.52180055  0.09272657  0.61201322  1
  Si  Si157  1  0.69178549  0.17294053  0.61268701  1
  Si  Si158  1  0.64453541  0.16408305  0.38593774  1
  Si  Si159  1  0.85474132  0.41494865  0.11519489  1
  Si  Si160  1  0.47663727  0.41755237  0.88332630  1
  Si  Si161  1  0.52870950  0.91804072  0.11686198  1
  Si  Si162  1  0.35832426  0.84354717  0.11280156  1
  Si  Si163  1  0.86901933  0.58410041  0.61199277  1
  Si  Si164  1  0.85572578  0.08354987  0.11541103  1
  Si  Si165  1  0.31233201  0.17164485  0.88688361  1
  Si  Si166  1  0.64650786  0.66102131  0.88615639  1
  Si  Si167  1  0.47809297  0.58251969  0.88275423  1
  Si  Si168  1  0.30685156  0.67047420  0.38343576  1
  Si  Si169  1  0.47354412  0.08751390  0.38668896  1
  Si  Si170  1  0.31847501  0.66889985  0.88713062  1
  Si  Si171  1  0.35524977  0.16329340  0.11419753  1
  Si  Si172  1  0.64386394  0.33621774  0.88350843  1
  Si  Si173  1  0.69916484  0.66822613  0.11125283  1
  Si  Si174  1  0.30428815  0.16367063  0.38731754  1
  Si  Si175  1  0.86730499  0.41717483  0.61469189  1
  Si  Si176  1  0.29750356  0.32975526  0.38927741  1
  Si  Si177  1  0.80079542  0.41395990  0.38707682  1
  Si  Si178  1  0.79873605  0.92482689  0.88748601  1
  Si  Si179  1  0.63997284  0.32768238  0.38762992  1
  Si  Si180  1  0.14604052  0.41371154  0.88902141  1
  Si  Si181  1  0.97271747  0.66330635  0.38420919  1
  Si  Si182  1  0.31031803  0.83094825  0.89021773  1
  Si  Si183  1  0.14864128  0.08949578  0.89059825  1
  Si  Si184  1  0.69410019  0.83441978  0.11573217  1
  Si  Si185  1  0.18924722  0.41000584  0.11611275  1
  Si  Si186  1  0.35460552  0.67443825  0.61162616  1
  Si  Si187  1  0.85722297  0.91823578  0.11365281  1
  Si  Si188  1  0.47156442  0.58765606  0.38630892  1
  Si  Si189  1  0.81364539  0.08186395  0.38549660  1
  Si  Si190  1  0.47959581  0.08881108  0.88866086  1
  Si  Si191  1  0.97477712  0.82820643  0.38443457  1
  O  O192  1  0.26608486  0.12114773  0.08524743  1
  O  O193  1  0.27263068  0.11128643  0.58815811  1
  O  O194  1  0.26243189  0.60854471  0.07794571  1
  O  O195  1  0.27303403  0.62304761  0.58108452  1
  O  O196  1  0.59975728  0.12579842  0.08638247  1
  O  O197  1  0.60167506  0.13269090  0.58445057  1
  O  O198  1  0.62148371  0.62180609  0.07293407  1
  O  O199  1  0.61181400  0.59877956  0.56851328  1
  O  O200  1  0.93404016  0.12343209  0.08604682  1
  O  O201  1  0.93810477  0.12137887  0.58653111  1
  O  O202  1  0.94320989  0.60255897  0.08516420  1
  O  O203  1  0.95391215  0.61376561  0.58460443  1
  O  O204  1  0.10230472  0.36420243  0.08605156  1
  O  O205  1  0.10566415  0.35645917  0.57940690  1
  O  O206  1  0.12424646  0.86624030  0.07966021  1
  O  O207  1  0.11773988  0.86323407  0.59052465  1
  O  O208  1  0.43555041  0.36081564  0.08463870  1
  O  O209  1  0.44847892  0.33189143  0.58556987  1
  O  O210  1  0.44236324  0.87497816  0.08573134  1
  O  O211  1  0.43118640  0.86242868  0.57605690  1
  O  O212  1  0.76975921  0.36762775  0.08389132  1
  O  O213  1  0.78595622  0.36633088  0.58596551  1
  O  O214  1  0.76717771  0.87700372  0.08430203  1
  O  O215  1  0.77907936  0.84778879  0.58011945  1
  O  O216  1  0.26629820  0.37098451  0.08541071  1
  O  O217  1  0.28985257  0.38391618  0.57675995  1
  O  O218  1  0.28624819  0.90644938  0.08994210  1
  O  O219  1  0.27499877  0.89205888  0.58589175  1
  O  O220  1  0.60101919  0.36597418  0.08031577  1
  O  O221  1  0.62401862  0.38999141  0.57685020  1
  O  O222  1  0.60611855  0.87829308  0.08759468  1
  O  O223  1  0.62532667  0.89576613  0.58010406  1
  O  O224  1  0.93505557  0.37826252  0.08497447  1
  O  O225  1  0.94603956  0.38005147  0.58637966  1
  O  O226  1  0.93028183  0.88584480  0.07787397  1
  O  O227  1  0.95556279  0.88449034  0.57234345  1
  O  O228  1  0.10208288  0.13448796  0.08762637  1
  O  O229  1  0.10499381  0.13051889  0.58718860  1
  O  O230  1  0.10091839  0.61785939  0.08442757  1
  O  O231  1  0.11378359  0.64219230  0.58789660  1
  O  O232  1  0.43228087  0.12515527  0.08270822  1
  O  O233  1  0.43690048  0.14389285  0.58716056  1
  O  O234  1  0.43700096  0.63636100  0.06487398  1
  O  O235  1  0.43286450  0.65473047  0.57553084  1
  O  O236  1  0.76825401  0.12734697  0.08495019  1
  O  O237  1  0.77090233  0.13890351  0.58238811  1
  O  O238  1  0.78373299  0.63488491  0.08503580  1
  O  O239  1  0.79199293  0.63254517  0.57623185  1
  O  O240  1  0.06166104  0.11045140  0.41624366  1
  O  O241  1  0.06537996  0.12784136  0.91617670  1
  O  O242  1  0.06085245  0.61865898  0.41272690  1
  O  O243  1  0.04942454  0.61318726  0.92062501  1
  O  O244  1  0.39770494  0.12994264  0.41777126  1
  O  O245  1  0.39824716  0.12630780  0.91648087  1
  O  O246  1  0.39213696  0.62696518  0.41590498  1
  O  O247  1  0.40155520  0.61645761  0.91490724  1
  O  O248  1  0.72918837  0.11410941  0.41178266  1
  O  O249  1  0.73186301  0.12953982  0.91461252  1
  O  O250  1  0.72670168  0.61344457  0.41363026  1
  O  O251  1  0.72183445  0.60064218  0.91144340  1
  O  O252  1  0.21483000  0.36638410  0.41387620  1
  O  O253  1  0.22987359  0.36135547  0.91521270  1
  O  O254  1  0.22580941  0.86746147  0.41451504  1
  O  O255  1  0.22135575  0.84384678  0.91562643  1
  O  O256  1  0.56057893  0.34998827  0.42106543  1
  O  O257  1  0.56388610  0.37156365  0.91268668  1
  O  O258  1  0.55074861  0.87809574  0.42350741  1
  O  O259  1  0.55261799  0.85302446  0.93376324  1
  O  O260  1  0.87811932  0.36565690  0.42559265  1
  O  O261  1  0.89627896  0.36726894  0.91361529  1
  O  O262  1  0.90227075  0.87065623  0.41623732  1
  O  O263  1  0.87466687  0.87417903  0.92260940  1
  O  O264  1  0.05887808  0.40178202  0.42128045  1
  O  O265  1  0.06494525  0.37419673  0.91671590  1
  O  O266  1  0.06405126  0.87029765  0.41312482  1
  O  O267  1  0.05474132  0.89218579  0.93527417  1
  O  O268  1  0.37979736  0.37019994  0.42660675  1
  O  O269  1  0.39820375  0.38217700  0.91495609  1
  O  O270  1  0.38536478  0.88643617  0.41386946  1
  O  O271  1  0.37511960  0.89176141  0.92702102  1
  O  O272  1  0.71721568  0.38379374  0.41560132  1
  O  O273  1  0.73123702  0.38015446  0.91346932  1
  O  O274  1  0.74099785  0.88759395  0.42435874  1
  O  O275  1  0.71475565  0.90534416  0.91719362  1
  O  O276  1  0.23100534  0.11657338  0.41563007  1
  O  O277  1  0.22986466  0.14592354  0.91768330  1
  O  O278  1  0.22480585  0.63705983  0.41227512  1
  O  O279  1  0.24274577  0.63968336  0.92266934  1
  O  O280  1  0.56435728  0.12824457  0.41646483  1
  O  O281  1  0.56240124  0.14265013  0.91432405  1
  O  O282  1  0.55957381  0.63254772  0.41292571  1
  O  O283  1  0.56432371  0.62603678  0.91382129  1
  O  O284  1  0.89657862  0.13055751  0.41821503  1
  O  O285  1  0.89640534  0.13473389  0.91486405  1
  O  O286  1  0.89487960  0.62410635  0.41309118  1
  O  O287  1  0.88624689  0.62712858  0.91621163  1
  O  O288  1  0.16890710  0.00461778  0.08758523  1
  O  O289  1  0.16941508  0.00045593  0.58646166  1
  O  O290  1  0.17334542  0.49130202  0.08779833  1
  O  O291  1  0.16861155  0.51176310  0.57115136  1
  O  O292  1  0.51994833  0.00104135  0.08571222  1
  O  O293  1  0.50164146  0.01690218  0.57553484  1
  O  O294  1  0.51254359  0.48541192  0.07667778  1
  O  O295  1  0.47054680  0.49522118  0.57366283  1
  O  O296  1  0.84330032  0.00268306  0.08573035  1
  O  O297  1  0.83489965  0.01037693  0.57338058  1
  O  O298  1  0.83716253  0.49677118  0.08579922  1
  O  O299  1  0.85683407  0.49891026  0.58529395  1
  O  O300  1  0.00568232  0.24971035  0.08692110  1
  O  O301  1  0.00654773  0.24708280  0.58715206  1
  O  O302  1  0.00326057  0.73466397  0.07687043  1
  O  O303  1  0.01336310  0.75060052  0.58308531  1
  O  O304  1  0.34274011  0.24546994  0.08336762  1
  O  O305  1  0.31987767  0.24509405  0.58986171  1
  O  O306  1  0.32721302  0.76905395  0.07724063  1
  O  O307  1  0.32230171  0.75644598  0.58734878  1
  O  O308  1  0.68432575  0.24719537  0.08160379  1
  O  O309  1  0.68211896  0.25538812  0.58393068  1
  O  O310  1  0.68862659  0.75271059  0.08519169  1
  O  O311  1  0.65488846  0.75595508  0.58239927  1
  O  O312  1  0.15034022  -0.00656269  0.41538496  1
  O  O313  1  0.17318130  0.01566481  0.92941168  1
  O  O314  1  0.16589093  0.50543929  0.41045116  1
  O  O315  1  0.16396302  0.48935544  0.92569250  1
  O  O316  1  0.47518775  0.00511818  0.41466940  1
  O  O317  1  0.49977230  0.01365216  0.92542480  1
  O  O318  1  0.48453748  0.50862869  0.41885643  1
  O  O319  1  0.49227268  0.49911335  0.91224799  1
  O  O320  1  0.83449814  0.00080805  0.41503826  1
  O  O321  1  0.82302838  0.00928094  0.91457211  1
  O  O322  1  0.81863267  0.49811637  0.41235250  1
  O  O323  1  0.82863236  0.49521985  0.91375430  1
  O  O324  1  0.29852064  0.24505855  0.41604373  1
  O  O325  1  0.33441295  0.25353310  0.91598619  1
  O  O326  1  0.31993225  0.75313228  0.41210747  1
  O  O327  1  0.34653321  0.74971222  0.91531349  1
  O  O328  1  0.66766222  0.24504370  0.41664994  1
  O  O329  1  0.65883280  0.25469769  0.91446236  1
  O  O330  1  0.66390058  0.74149073  0.42337355  1
  O  O331  1  0.67619752  0.73541829  0.92280895  1
  O  O332  1  1.00241384  0.24017844  0.42433444  1
  O  O333  1  0.98764851  0.25082055  0.91658176  1
  O  O334  1  0.98422198  0.74534648  0.41520507  1
  O  O335  1  0.98085444  0.74149766  0.92250621  1
  O  O336  1  0.20763784  0.08657240  0.19628163  1
  O  O337  1  0.20975664  0.08572089  0.69724081  1
  O  O338  1  0.20685883  0.58036247  0.19406692  1
  O  O339  1  0.21683299  0.57638249  0.68994123  1
  O  O340  1  0.53320347  0.08563911  0.19387012  1
  O  O341  1  0.54284998  0.08976941  0.69306218  1
  O  O342  1  0.54961939  0.59103759  0.19740680  1
  O  O343  1  0.54555179  0.58366467  0.69788439  1
  O  O344  1  0.87631708  0.08474556  0.19538914  1
  O  O345  1  0.86756504  0.08603674  0.69129463  1
  O  O346  1  0.87789769  0.58194183  0.19485806  1
  O  O347  1  0.88181977  0.58260373  0.69299778  1
  O  O348  1  0.04124811  0.33217085  0.19592202  1
  O  O349  1  0.04564081  0.33202747  0.69542292  1
  O  O350  1  0.04565993  0.82934583  0.19903635  1
  O  O351  1  0.03411055  0.83428825  0.69187283  1
  O  O352  1  0.37047850  0.32770998  0.19404079  1
  O  O353  1  0.37533172  0.33169918  0.69353763  1
  O  O354  1  0.37716373  0.83770039  0.19392407  1
  O  O355  1  0.37644544  0.83707815  0.69380196  1
  O  O356  1  0.70955028  0.32971112  0.19360955  1
  O  O357  1  0.71410012  0.33576997  0.69243030  1
  O  O358  1  0.71315996  0.83215974  0.19580944  1
  O  O359  1  0.71212502  0.83557558  0.69242218  1
  O  O360  1  0.20627149  0.41028062  0.19647859  1
  O  O361  1  0.21237969  0.41610320  0.70093323  1
  O  O362  1  0.20974578  0.91919379  0.19472101  1
  O  O363  1  0.21685231  0.92613275  0.69773267  1
  O  O364  1  0.54729759  0.40388429  0.19107321  1
  O  O365  1  0.54669989  0.41590111  0.69947563  1
  O  O366  1  0.54595111  0.91759791  0.19607949  1
  O  O367  1  0.54565637  0.92195466  0.69944502  1
  O  O368  1  0.87514035  0.41215871  0.19436252  1
  O  O369  1  0.88198142  0.41656034  0.69539703  1
  O  O370  1  0.87470578  0.91576898  0.19375782  1
  O  O371  1  0.87649875  0.92138582  0.69960510  1
  O  O372  1  0.04023263  0.16709424  0.19718519  1
  O  O373  1  0.04623674  0.16847323  0.69685456  1
  O  O374  1  0.04146345  0.66199778  0.19292489  1
  O  O375  1  0.03821273  0.66996990  0.69529591  1
  O  O376  1  0.37209655  0.16583797  0.19425421  1
  O  O377  1  0.37479847  0.16585950  0.69748174  1
  O  O378  1  0.37584201  0.66842615  0.19825182  1
  O  O379  1  0.37694239  0.66780603  0.69223774  1
  O  O380  1  0.71219221  0.17058622  0.19412373  1
  O  O381  1  0.71027626  0.17084696  0.69342230  1
  O  O382  1  0.71251333  0.66645251  0.19203730  1
  O  O383  1  0.71396776  0.66498833  0.70022306  1
  O  O384  1  0.12304293  0.08104209  0.30629017  1
  O  O385  1  0.13261078  0.08807957  0.81071694  1
  O  O386  1  0.12228479  0.58495525  0.30248395  1
  O  O387  1  0.12428810  0.57837034  0.79831610  1
  O  O388  1  0.45202527  0.08993784  0.30742820  1
  O  O389  1  0.45968443  0.08836804  0.80772861  1
  O  O390  1  0.44888885  0.59064606  0.30674121  1
  O  O391  1  0.45877034  0.58201635  0.80282473  1
  O  O392  1  0.80158702  0.08187241  0.30628535  1
  O  O393  1  0.78937652  0.09104032  0.80430681  1
  O  O394  1  0.78890119  0.58484648  0.30323425  1
  O  O395  1  0.79205443  0.57808135  0.80356654  1
  O  O396  1  0.28420322  0.32973672  0.30796787  1
  O  O397  1  0.29463437  0.33339491  0.80570866  1
  O  O398  1  0.28760387  0.83484131  0.30265342  1
  O  O399  1  0.30422522  0.83362354  0.81023836  1
  O  O400  1  0.62299952  0.32888118  0.30642583  1
  O  O401  1  0.62724597  0.33386841  0.80368805  1
  O  O402  1  0.62307544  0.83096084  0.29970941  1
  O  O403  1  0.62328540  0.83153069  0.79839026  1
  O  O404  1  0.95358174  0.33188428  0.30061294  1
  O  O405  1  0.95935823  0.33329354  0.80496999  1
  O  O406  1  0.95438428  0.82617196  0.30519331  1
  O  O407  1  0.95383667  0.83518960  0.79976765  1
  O  O408  1  0.12018884  0.41768073  0.30530678  1
  O  O409  1  0.12507639  0.41331051  0.80842093  1
  O  O410  1  0.12628093  0.91601350  0.30435399  1
  O  O411  1  0.11555965  0.92761401  0.80579678  1
  O  O412  1  0.44688630  0.40561448  0.30037078  1
  O  O413  1  0.45691222  0.41467229  0.80356474  1
  O  O414  1  0.45169358  0.91642046  0.30658205  1
  O  O415  1  0.45674953  0.91970701  0.80183341  1
  O  O416  1  0.78621004  0.40927495  0.30700820  1
  O  O417  1  0.79282383  0.41438694  0.80327177  1
  O  O418  1  0.79541638  0.91428355  0.30782785  1
  O  O419  1  0.78566194  0.92337323  0.80641633  1
  O  O420  1  0.28734282  0.16426026  0.30667932  1
  O  O421  1  0.29315542  0.16977243  0.80659395  1
  O  O422  1  0.28647510  0.66802433  0.30330599  1
  O  O423  1  0.30047589  0.66582677  0.80727129  1
  O  O424  1  0.61957799  0.17009196  0.30702378  1
  O  O425  1  0.62581193  0.17109489  0.80416689  1
  O  O426  1  0.62622011  0.66709327  0.30593779  1
  O  O427  1  0.62548186  0.66526818  0.80584821  1
  O  O428  1  0.95944187  0.16455701  0.30848655  1
  O  O429  1  0.95616331  0.17190025  0.80544802  1
  O  O430  1  0.95675839  0.66463169  0.30401588  1
  O  O431  1  0.95162374  0.66244812  0.80747825  1
  F  F432  1  0.04730177  0.00871793  0.19783959  1
  F  F433  1  0.04694783  0.00358412  0.70026464  1
  F  F434  1  0.04374893  0.49670383  0.20147692  1
  F  F435  1  0.04589152  0.49632353  0.70018037  1
  F  F436  1  0.37156346  0.00274780  0.20148001  1
  F  F437  1  0.37935251  0.00639866  0.70351014  1
  F  F438  1  0.36023106  0.49673836  0.19621736  1
  F  F439  1  0.38000208  0.49989939  0.70227230  1
  F  F440  1  0.71863981  -0.01079581  0.20089420  1
  F  F441  1  0.71140436  0.00478747  0.70287627  1
  F  F442  1  0.70847756  0.49608497  0.19918178  1
  F  F443  1  0.71691449  0.49830762  0.70086530  1
  F  F444  1  0.20824806  0.24838884  0.20438690  1
  F  F445  1  0.21192240  0.24922378  0.70466868  1
  F  F446  1  0.21121935  0.75022694  0.20101100  1
  F  F447  1  0.21744192  0.74330718  0.70210197  1
  F  F448  1  0.54281897  0.24710451  0.20179078  1
  F  F449  1  0.54736198  0.24996099  0.70269381  1
  F  F450  1  0.54382513  0.75119351  0.20086104  1
  F  F451  1  0.54505652  0.74983101  0.69946540  1
  F  F452  1  0.87729547  0.24611022  0.20171296  1
  F  F453  1  0.88100178  0.25171872  0.70093841  1
  F  F454  1  0.87818122  0.74721945  0.20092085  1
  F  F455  1  0.87841618  0.74803121  0.70238735  1
  F  F456  1  0.28422276  0.00153556  0.29863825  1
  F  F457  1  0.29059406  0.00451925  0.80151567  1
  F  F458  1  0.28364819  0.49907930  0.29769639  1
  F  F459  1  0.29335350  0.50026281  0.79917081  1
  F  F460  1  0.62208403  -0.01213392  0.30881214  1
  F  F461  1  0.62201619  0.00975730  0.79860478  1
  F  F462  1  0.63349438  0.49756179  0.30208134  1
  F  F463  1  0.62645261  0.49851745  0.79868340  1
  F  F464  1  0.95576130  0.00048800  0.29844926  1
  F  F465  1  0.95137195  0.00626126  0.80052614  1
  F  F466  1  0.95910260  0.50045496  0.30008528  1
  F  F467  1  0.95623764  0.49769308  0.79770940  1
  F  F468  1  0.11936447  0.24774685  0.29976638  1
  F  F469  1  0.12334580  0.25190892  0.79998836  1
  F  F470  1  0.12239498  0.74600300  0.29790815  1
  F  F471  1  0.11112599  0.73876305  0.80825801  1
  F  F472  1  0.45144620  0.24644829  0.29714879  1
  F  F473  1  0.45685151  0.25210442  0.79698785  1
  F  F474  1  0.45391280  0.75410553  0.29754317  1
  F  F475  1  0.45711570  0.74924152  0.79369154  1
  F  F476  1  0.78760453  0.24766807  0.29851934  1
  F  F477  1  0.79004793  0.25255322  0.79600801  1
  F  F478  1  0.78975873  0.74773056  0.29634465  1
  F  F479  1  0.78927631  0.75237668  0.79734848  1
