# generated using pymatgen
data_K24Na3Li5Mg64Fe17Si79(O5F)48
_symmetry_space_group_name_H-M   'P 1'
_cell_length_a   16.10489193
_cell_length_b   18.60123102
_cell_length_c   20.56158220
_cell_angle_alpha   89.99233477
_cell_angle_beta   100.02188787
_cell_angle_gamma   90.00446281
_symmetry_Int_Tables_number   1
_chemical_formula_structural   K24Na3Li5Mg64Fe17Si79(O5F)48
_chemical_formula_sum   'K24 Na3 Li5 Mg64 Fe17 Si79 O240 F48'
_cell_volume   6065.66190635
_cell_formula_units_Z   1
loop_
 _symmetry_equiv_pos_site_id
 _symmetry_equiv_pos_as_xyz
  1  'x, y, z'
loop_
 _atom_site_type_symbol
 _atom_site_label
 _atom_site_symmetry_multiplicity
 _atom_site_fract_x
 _atom_site_fract_y
 _atom_site_fract_z
 _atom_site_occupancy
  K  K0  1  0.00412200  -0.01985499  -0.00424908  1
  K  K1  1  -0.01975277  -0.00145030  0.49918093  1
  K  K2  1  -0.00966133  0.50207724  0.00544443  1
  K  K3  1  -0.01413116  0.50961340  0.48522768  1
  K  K4  1  0.32333048  -0.00162167  -0.00391493  1
  K  K5  1  0.33712488  -0.00639006  0.50130870  1
  K  K6  1  0.33957230  0.50610093  0.00669103  1
  K  K7  1  0.33545938  0.50898407  0.49144773  1
  K  K8  1  0.67476537  -0.00233260  -0.00105200  1
  K  K9  1  0.67757518  -0.01651682  0.49496060  1
  K  K10  1  0.66442532  0.51340214  0.01321794  1
  K  K11  1  0.66536066  0.51214686  0.49037501  1
  K  K12  1  0.16860000  0.24245166  0.00164974  1
  K  K13  1  0.16002082  0.23719945  0.49590346  1
  K  K14  1  0.16848594  0.75933425  -0.00197570  1
  K  K15  1  0.15729096  0.74770740  0.49514380  1
  K  K16  1  0.50031820  0.25009098  0.00488274  1
  K  K17  1  0.49652836  0.24472660  0.49716918  1
  K  K18  1  0.50640935  0.74765294  0.00174034  1
  K  K19  1  0.49886108  0.74899793  0.49103363  1
  K  K20  1  0.83955967  0.24741487  0.00730181  1
  K  K21  1  0.84129965  0.24036765  0.49615851  1
  K  K22  1  0.82668268  0.76219703  0.00186641  1
  K  K23  1  0.83572050  0.75607112  0.49852244  1
  Na  Na24  1  -0.00454131  0.75124716  0.74483788  1
  Na  Na25  1  0.83330109  0.83084926  0.74331641  1
  Na  Na26  1  0.33157724  0.07894978  0.75904650  1
  Li  Li27  1  0.16837340  -0.00265675  0.75112793  1
  Li  Li28  1  0.50542915  0.50445582  0.24571245  1
  Li  Li29  1  0.82394772  0.83375193  0.24576774  1
  Li  Li30  1  -0.00610564  0.42043921  0.24883307  1
  Li  Li31  1  0.66717695  0.91084656  0.24405456  1
  Mg  Mg32  1  0.66642792  0.24928687  0.74879152  1
  Mg  Mg33  1  0.50044685  -0.00043293  0.75275893  1
  Mg  Mg34  1  0.16802465  0.50271923  0.75232097  1
  Mg  Mg35  1  0.67019732  0.75366333  0.24739100  1
  Mg  Mg36  1  0.49938632  0.50012117  0.75115893  1
  Mg  Mg37  1  0.83303158  0.49940359  0.74560262  1
  Mg  Mg38  1  0.82925584  -0.00264091  0.24876587  1
  Mg  Mg39  1  0.33495313  0.74971771  0.25202822  1
  Mg  Mg40  1  -0.00428672  0.75077094  0.24914518  1
  Mg  Mg41  1  0.33361411  0.75110276  0.75376367  1
  Mg  Mg42  1  0.83650759  0.50160352  0.24854651  1
  Mg  Mg43  1  0.33232816  0.24685319  0.75480618  1
  Mg  Mg44  1  0.83654370  -0.00157697  0.74628338  1
  Mg  Mg45  1  0.16732045  -0.00142787  0.25059093  1
  Mg  Mg46  1  0.00154129  0.24826717  0.74656844  1
  Mg  Mg47  1  0.66789667  0.74999007  0.74718313  1
  Mg  Mg48  1  -0.00230400  0.25362373  0.25136913  1
  Mg  Mg49  1  0.66545739  0.25145299  0.24695948  1
  Mg  Mg50  1  0.33279025  0.25240962  0.25188251  1
  Mg  Mg51  1  0.16417050  0.49974783  0.25299092  1
  Mg  Mg52  1  0.50132824  -0.00236826  0.25283018  1
  Mg  Mg53  1  0.16453482  0.16606195  0.25144964  1
  Mg  Mg54  1  0.50148398  0.66583209  0.75226878  1
  Mg  Mg55  1  0.50386312  0.83442163  0.75251836  1
  Mg  Mg56  1  0.66387703  0.08119894  0.24957461  1
  Mg  Mg57  1  0.49908917  0.33241839  0.75161363  1
  Mg  Mg58  1  0.33388370  0.41552066  0.75330457  1
  Mg  Mg59  1  0.83409344  0.33342136  0.74728103  1
  Mg  Mg60  1  0.00058969  0.91618178  0.74710599  1
  Mg  Mg61  1  0.16313064  0.33566808  0.25099050  1
  Mg  Mg62  1  -0.00245455  0.91529675  0.25065704  1
  Mg  Mg63  1  0.66905024  0.08336621  0.74974724  1
  Mg  Mg64  1  0.16629629  0.83607076  0.74985062  1
  Mg  Mg65  1  0.33260390  0.91828745  0.75302496  1
  Mg  Mg66  1  0.16654635  0.83410576  0.25048531  1
  Mg  Mg67  1  0.33705916  0.58179516  0.25235323  1
  Mg  Mg68  1  0.16556131  0.66533429  0.25295817  1
  Mg  Mg69  1  0.67021496  0.91377092  0.74823060  1
  Mg  Mg70  1  -0.00439887  0.58295721  0.24921405  1
  Mg  Mg71  1  0.83363024  0.16632203  0.25128507  1
  Mg  Mg72  1  0.50026905  0.33808279  0.25124549  1
  Mg  Mg73  1  -0.00052178  0.58475033  0.74825503  1
  Mg  Mg74  1  0.66450171  0.41909860  0.24747262  1
  Mg  Mg75  1  0.16957579  0.33311820  0.75271348  1
  Mg  Mg76  1  -0.00149128  0.08507681  0.25236433  1
  Mg  Mg77  1  0.49859612  0.16652336  0.25116459  1
  Mg  Mg78  1  0.33676025  0.41849759  0.25333553  1
  Mg  Mg79  1  0.66581573  0.58567976  0.24655071  1
  Mg  Mg80  1  0.50360967  0.83550942  0.25016832  1
  Mg  Mg81  1  0.00182921  0.41582928  0.74858615  1
  Mg  Mg82  1  0.00083658  0.08105393  0.74684054  1
  Mg  Mg83  1  0.16808928  0.16097730  0.75267904  1
  Mg  Mg84  1  0.82982823  0.66552309  0.74359861  1
  Mg  Mg85  1  0.33450749  0.91430358  0.25011808  1
  Mg  Mg86  1  0.33257567  0.08371798  0.25166491  1
  Mg  Mg87  1  0.16893083  0.66866316  0.75286133  1
  Mg  Mg88  1  0.66594430  0.58391318  0.74748895  1
  Mg  Mg89  1  0.83414483  0.16496923  0.74689612  1
  Mg  Mg90  1  0.50178749  0.66361358  0.24966055  1
  Mg  Mg91  1  0.66618676  0.41538139  0.74935694  1
  Mg  Mg92  1  0.49892575  0.16435610  0.75341743  1
  Mg  Mg93  1  0.83261231  0.66959632  0.24654965  1
  Mg  Mg94  1  0.33486252  0.58595706  0.75393807  1
  Mg  Mg95  1  0.83450619  0.33658391  0.24809607  1
  Fe  Fe96  1  0.85625929  0.58584569  0.10477185  1
  Fe  Fe97  1  0.81527398  0.92243599  0.89012215  1
  Fe  Fe98  1  0.47739603  0.57966632  0.38951261  1
  Fe  Fe99  1  0.64437325  0.83050491  0.89076948  1
  Fe  Fe100  1  0.68816978  0.66293938  0.60534710  1
  Fe  Fe101  1  0.52588956  0.41645914  0.11047192  1
  Fe  Fe102  1  0.52215247  0.91987129  0.11077302  1
  Fe  Fe103  1  0.68845953  0.67866005  0.10620211  1
  Fe  Fe104  1  0.30820456  0.67099580  0.89324478  1
  Fe  Fe105  1  0.19522167  0.91554805  0.11150980  1
  Fe  Fe106  1  0.97528173  0.16726098  0.39155727  1
  Fe  Fe107  1  0.85878511  0.91233791  0.60296066  1
  Fe  Fe108  1  0.85583745  0.08670189  0.60598827  1
  Fe  Fe109  1  0.85845433  0.41437916  0.10885718  1
  Fe  Fe110  1  0.30722012  0.16502732  0.89591169  1
  Fe  Fe111  1  0.47652606  0.91535374  0.39302498  1
  Fe  Fe112  1  0.97260683  0.66951401  0.38978795  1
  Si  Si113  1  0.30702109  0.16686463  0.38670503  1
  Si  Si114  1  0.69349488  0.32624849  0.10961791  1
  Si  Si115  1  0.80615300  0.91676554  0.37960038  1
  Si  Si116  1  0.13982339  0.91661973  0.38577859  1
  Si  Si117  1  0.14312776  0.41741041  0.38649478  1
  Si  Si118  1  0.19854149  0.58283426  0.61539414  1
  Si  Si119  1  0.64690389  0.82911744  0.38551157  1
  Si  Si120  1  0.03434519  0.83048320  0.60932455  1
  Si  Si121  1  0.81027645  0.41366192  0.88293054  1
  Si  Si122  1  0.51547273  0.08721480  0.11416210  1
  Si  Si123  1  0.64306261  0.33325100  0.88497388  1
  Si  Si124  1  0.03132958  0.33335519  0.11363922  1
  Si  Si125  1  0.68523359  0.17317412  0.61068699  1
  Si  Si126  1  0.02478026  0.16902747  0.11549111  1
  Si  Si127  1  0.03068726  0.66514236  0.11421106  1
  Si  Si128  1  0.52116476  0.58787758  0.10927980  1
  Si  Si129  1  0.68749258  0.16097255  0.11535029  1
  Si  Si130  1  0.86442765  0.57977542  0.60893981  1
  Si  Si131  1  0.97880348  0.82938041  0.88620148  1
  Si  Si132  1  0.03383907  0.66115425  0.61465578  1
  Si  Si133  1  0.02497764  0.83040288  0.11364684  1
  Si  Si134  1  0.64374815  0.32986294  0.38608509  1
  Si  Si135  1  0.30296344  0.83133064  0.38940469  1
  Si  Si136  1  0.13747857  0.91464992  0.88318824  1
  Si  Si137  1  0.36166704  0.66911159  0.61633951  1
  Si  Si138  1  0.47750678  0.58067423  0.88808991  1
  Si  Si139  1  0.64475064  0.65946126  0.88547851  1
  Si  Si140  1  0.97382881  0.17139985  0.88344361  1
  Si  Si141  1  0.97573184  0.33715220  0.38847592  1
  Si  Si142  1  0.31012827  0.33712439  0.89085193  1
  Si  Si143  1  0.14091672  0.58173556  0.38885519  1
  Si  Si144  1  0.18970967  0.08547000  0.11424045  1
  Si  Si145  1  0.52500039  0.92115316  0.61497511  1
  Si  Si146  1  0.96659311  0.66202571  0.88199384  1
  Si  Si147  1  0.51941629  0.57738134  0.61334836  1
  Si  Si148  1  0.64417441  0.16805500  0.88655298  1
  Si  Si149  1  0.69169085  0.84540691  0.11066614  1
  Si  Si150  1  0.48409412  0.08132978  0.89040055  1
  Si  Si151  1  0.63986153  0.16699748  0.38374350  1
  Si  Si152  1  0.81214452  0.09198285  0.88649392  1
  Si  Si153  1  0.14175807  0.41959595  0.88591854  1
  Si  Si154  1  0.19290299  0.07988770  0.61702769  1
  Si  Si155  1  0.30599114  0.33193233  0.38860159  1
  Si  Si156  1  0.35724787  0.16583192  0.61759139  1
  Si  Si157  1  0.13149023  0.08184883  0.88829862  1
  Si  Si158  1  0.19385660  0.58274459  0.11876732  1
  Si  Si159  1  0.35488793  0.66544926  0.11683604  1
  Si  Si160  1  0.86383295  0.91920646  0.11549624  1
  Si  Si161  1  0.35583748  0.33473318  0.11554362  1
  Si  Si162  1  0.30566315  0.66551785  0.38902886  1
  Si  Si163  1  0.14561669  0.07955914  0.38845059  1
  Si  Si164  1  0.36110349  0.82743694  0.11198592  1
  Si  Si165  1  0.19407552  0.41804150  0.11806716  1
  Si  Si166  1  0.35410175  0.17169009  0.11810442  1
  Si  Si167  1  0.47630646  0.91700020  0.88785297  1
  Si  Si168  1  0.68733178  0.33858481  0.61316696  1
  Si  Si169  1  0.80150175  0.08178627  0.38550601  1
  Si  Si170  1  0.97617698  0.83932046  0.38701576  1
  Si  Si171  1  0.47527546  0.08784880  0.38848912  1
  Si  Si172  1  0.19712415  0.91436306  0.61416647  1
  Si  Si173  1  0.30969712  0.84241248  0.88753464  1
  Si  Si174  1  0.67993566  0.83140509  0.60614427  1
  Si  Si175  1  0.97761684  0.33389475  0.88310297  1
  Si  Si176  1  0.80662089  0.57746243  0.88178559  1
  Si  Si177  1  0.03077449  0.33495053  0.61418795  1
  Si  Si178  1  0.52266978  0.08654724  0.61552243  1
  Si  Si179  1  0.47586586  0.40818794  0.39141479  1
  Si  Si180  1  0.64299139  0.66733205  0.38547902  1
  Si  Si181  1  0.80393637  0.58101968  0.38551224  1
  Si  Si182  1  0.13485905  0.58465101  0.88835529  1
  Si  Si183  1  0.51886609  0.41456127  0.61583050  1
  Si  Si184  1  0.80532677  0.41564983  0.38474912  1
  Si  Si185  1  0.47782032  0.41630171  0.88591757  1
  Si  Si186  1  0.03326067  0.16893647  0.61144306  1
  Si  Si187  1  0.86041071  0.41289631  0.61164085  1
  Si  Si188  1  0.19591614  0.41862242  0.61628423  1
  Si  Si189  1  0.35655630  0.32860358  0.61674638  1
  Si  Si190  1  0.36272933  0.83475024  0.61682655  1
  Si  Si191  1  0.85854824  0.08391443  0.11487832  1
  O  O192  1  0.27282201  0.12103924  0.08849295  1
  O  O193  1  0.27370596  0.11784285  0.58858293  1
  O  O194  1  0.27782445  0.60817948  0.08963777  1
  O  O195  1  0.27348737  0.62607371  0.58656015  1
  O  O196  1  0.60207959  0.11423910  0.08691313  1
  O  O197  1  0.59670230  0.12821250  0.58430730  1
  O  O198  1  0.59320747  0.62148746  0.07221504  1
  O  O199  1  0.59740883  0.59694879  0.57803040  1
  O  O200  1  0.93569896  0.12643524  0.08639664  1
  O  O201  1  0.94481028  0.13758822  0.57488587  1
  O  O202  1  0.96023388  0.61065613  0.07822882  1
  O  O203  1  0.94796716  0.61564481  0.58433854  1
  O  O204  1  0.11836221  0.36206913  0.08775955  1
  O  O205  1  0.10299306  0.38387246  0.58671518  1
  O  O206  1  0.10056693  0.85929232  0.07803709  1
  O  O207  1  0.11595066  0.86587074  0.57966636  1
  O  O208  1  0.43263575  0.35468248  0.07860072  1
  O  O209  1  0.43907923  0.36050492  0.58796900  1
  O  O210  1  0.44657517  0.84314256  0.08303472  1
  O  O211  1  0.43942618  0.87379225  0.58671566  1
  O  O212  1  0.77822641  0.34148020  0.07956205  1
  O  O213  1  0.76894857  0.37248505  0.58458132  1
  O  O214  1  0.78060956  0.87310126  0.08591433  1
  O  O215  1  0.75938224  0.85812347  0.57367305  1
  O  O216  1  0.27660603  0.39010901  0.08820677  1
  O  O217  1  0.27077120  0.37463156  0.58747454  1
  O  O218  1  0.28772892  0.88232023  0.07684385  1
  O  O219  1  0.27787257  0.87967439  0.58399277  1
  O  O220  1  0.61646826  0.37693302  0.07430682  1
  O  O221  1  0.60334407  0.38873655  0.58653533  1
  O  O222  1  0.62433140  0.90808197  0.08147685  1
  O  O223  1  0.60083169  0.88987350  0.58050552  1
  O  O224  1  0.95617518  0.38224716  0.07567113  1
  O  O225  1  0.93601322  0.36742525  0.58477010  1
  O  O226  1  0.94180077  0.88105270  0.08594503  1
  O  O227  1  0.94945158  0.86635037  0.56961920  1
  O  O228  1  0.10596454  0.13609307  0.08681181  1
  O  O229  1  0.11046310  0.12792578  0.58248952  1
  O  O230  1  0.11953196  0.63968960  0.08872028  1
  O  O231  1  0.10959347  0.62059593  0.58289492  1
  O  O232  1  0.43994805  0.14893065  0.09020652  1
  O  O233  1  0.43556809  0.13127372  0.58572114  1
  O  O234  1  0.43530643  0.63878367  0.08522171  1
  O  O235  1  0.43640296  0.62833362  0.58569474  1
  O  O236  1  0.76876027  0.12605848  0.08597471  1
  O  O237  1  0.75982895  0.14687580  0.57461862  1
  O  O238  1  0.77629048  0.64954512  0.06490055  1
  O  O239  1  0.78065212  0.61984191  0.57285687  1
  O  O240  1  0.07174136  0.11039051  0.42435704  1
  O  O241  1  0.04864537  0.11702113  0.91677727  1
  O  O242  1  0.06615224  0.61017760  0.42496797  1
  O  O243  1  0.04668436  0.60916181  0.91253064  1
  O  O244  1  0.39637799  0.12812338  0.41727079  1
  O  O245  1  0.40721378  0.11123255  0.92391050  1
  O  O246  1  0.38631331  0.62032153  0.42470276  1
  O  O247  1  0.39980520  0.60729681  0.92179716  1
  O  O248  1  0.71675703  0.11254063  0.41254807  1
  O  O249  1  0.73044486  0.12489072  0.91665124  1
  O  O250  1  0.72116915  0.61197242  0.41303111  1
  O  O251  1  0.72069346  0.59943831  0.90855919  1
  O  O252  1  0.22769992  0.36906058  0.41869301  1
  O  O253  1  0.22871070  0.37675734  0.91620796  1
  O  O254  1  0.21623642  0.86072144  0.41457559  1
  O  O255  1  0.22915715  0.87909101  0.91470008  1
  O  O256  1  0.56148231  0.35746145  0.41728585  1
  O  O257  1  0.56103637  0.36581669  0.91262995  1
  O  O258  1  0.57263997  0.85905397  0.42319399  1
  O  O259  1  0.54349270  0.85771149  0.92020225  1
  O  O260  1  0.89488169  0.37565649  0.41611133  1
  O  O261  1  0.89410284  0.36425420  0.91084719  1
  O  O262  1  0.89488203  0.87695371  0.41242351  1
  O  O263  1  0.90950248  0.86387518  0.92547898  1
  O  O264  1  0.06040338  0.38808400  0.41555458  1
  O  O265  1  0.06036549  0.38315553  0.91259987  1
  O  O266  1  0.05669490  0.89411425  0.41655430  1
  O  O267  1  0.07089018  0.86750255  0.91842044  1
  O  O268  1  0.39621945  0.36896365  0.42180648  1
  O  O269  1  0.39519025  0.38792971  0.91492226  1
  O  O270  1  0.38128169  0.87887352  0.42636153  1
  O  O271  1  0.38641884  0.89996113  0.91272024  1
  O  O272  1  0.72822312  0.37710519  0.41651840  1
  O  O273  1  0.72909988  0.37998178  0.91166056  1
  O  O274  1  0.73200306  0.87779179  0.41242822  1
  O  O275  1  0.72726887  0.89223621  0.93059578  1
  O  O276  1  0.23233515  0.12626883  0.41704013  1
  O  O277  1  0.21413162  0.12335948  0.92785938  1
  O  O278  1  0.22429872  0.63108647  0.41748404  1
  O  O279  1  0.21182980  0.63384166  0.92392532  1
  O  O280  1  0.55572599  0.14281625  0.41337783  1
  O  O281  1  0.56811805  0.13262735  0.91895404  1
  O  O282  1  0.56701103  0.64172682  0.42268825  1
  O  O283  1  0.56261353  0.62739699  0.91454534  1
  O  O284  1  0.88063768  0.12892299  0.42165421  1
  O  O285  1  0.88648861  0.15350102  0.91053591  1
  O  O286  1  0.88495551  0.62433434  0.42433234  1
  O  O287  1  0.88553933  0.62973163  0.91268899  1
  O  O288  1  0.17103375  0.00932279  0.07812199  1
  O  O289  1  0.18566933  -0.00215825  0.58543128  1
  O  O290  1  0.17086394  0.50028008  0.08995896  1
  O  O291  1  0.19796668  0.50006302  0.58630984  1
  O  O292  1  0.48125965  0.01318965  0.07964423  1
  O  O293  1  0.50785508  0.00449236  0.58676085  1
  O  O294  1  0.49601545  0.50861460  0.07716146  1
  O  O295  1  0.48838897  0.49429094  0.58901031  1
  O  O296  1  0.85333917  0.00244179  0.08411198  1
  O  O297  1  0.84024774  0.00146400  0.56061609  1
  O  O298  1  0.82562802  0.49812286  0.06347828  1
  O  O299  1  0.86026016  0.49403814  0.58136119  1
  O  O300  1  0.01430366  0.25002415  0.08383877  1
  O  O301  1  0.03906718  0.25419969  0.58585442  1
  O  O302  1  0.00615934  0.74738675  0.08697710  1
  O  O303  1  0.03178557  0.74351413  0.58685094  1
  O  O304  1  0.32405976  0.25236235  0.09149866  1
  O  O305  1  0.34084260  0.24772627  0.58518098  1
  O  O306  1  0.32588125  0.74509951  0.08794817  1
  O  O307  1  0.35313554  0.75158392  0.58737107  1
  O  O308  1  0.66755935  0.24150696  0.08507590  1
  O  O309  1  0.66272349  0.25787400  0.58483120  1
  O  O310  1  0.66339856  0.77104966  0.07118235  1
  O  O311  1  0.64857941  0.75332968  0.57413025  1
  O  O312  1  0.17041888  -0.00308486  0.41401981  1
  O  O313  1  0.13539320  -0.00288176  0.91295933  1
  O  O314  1  0.16478715  0.49859129  0.41634236  1
  O  O315  1  0.15131843  0.50075090  0.91568067  1
  O  O316  1  0.49244928  0.01175333  0.42534818  1
  O  O317  1  0.50743613  -0.00172065  0.91538877  1
  O  O318  1  0.49255574  0.48512320  0.42743204  1
  O  O319  1  0.50144707  0.49699232  0.91311954  1
  O  O320  1  0.81339427  -0.00131190  0.41153365  1
  O  O321  1  0.84278111  0.01833646  0.92301867  1
  O  O322  1  0.81311494  0.49706057  0.41513471  1
  O  O323  1  0.83088853  0.49508968  0.91013317  1
  O  O324  1  0.31194751  0.24883009  0.41725987  1
  O  O325  1  0.32541184  0.26158150  0.92883974  1
  O  O326  1  0.31410298  0.74844679  0.41799887  1
  O  O327  1  0.33084712  0.76537096  0.92424384  1
  O  O328  1  0.66422080  0.24769221  0.41487291  1
  O  O329  1  0.65785471  0.25163877  0.91429100  1
  O  O330  1  0.67383249  0.74759308  0.41383820  1
  O  O331  1  0.67251435  0.73497976  0.91916128  1
  O  O332  1  0.99375491  0.26114565  0.42755421  1
  O  O333  1  0.99963574  0.25324695  0.91276228  1
  O  O334  1  0.99499367  0.76302820  0.42514857  1
  O  O335  1  0.98954697  0.74295517  0.90991390  1
  O  O336  1  0.20791581  0.08513659  0.19553575  1
  O  O337  1  0.20304139  0.08345520  0.69515864  1
  O  O338  1  0.21059810  0.58232941  0.19922224  1
  O  O339  1  0.21386015  0.58068077  0.69567524  1
  O  O340  1  0.53770411  0.08663853  0.19516031  1
  O  O341  1  0.54301758  0.08713665  0.69574789  1
  O  O342  1  0.54494755  0.58804138  0.18965855  1
  O  O343  1  0.53914227  0.57939492  0.69448856  1
  O  O344  1  0.87615095  0.08446937  0.19493010  1
  O  O345  1  0.87793332  0.08699492  0.69855276  1
  O  O346  1  0.87637691  0.58348246  0.19709852  1
  O  O347  1  0.87822112  0.57615508  0.68975306  1
  O  O348  1  0.04658847  0.32935654  0.19376326  1
  O  O349  1  0.04600028  0.33581542  0.69475533  1
  O  O350  1  0.04457806  0.83387473  0.19459368  1
  O  O351  1  0.05128715  0.83902648  0.68852153  1
  O  O352  1  0.37443643  0.33445196  0.19669559  1
  O  O353  1  0.37540670  0.33255210  0.69716841  1
  O  O354  1  0.37382421  0.83069188  0.19356491  1
  O  O355  1  0.37922603  0.83271760  0.69697200  1
  O  O356  1  0.70806599  0.33073736  0.19133217  1
  O  O357  1  0.70852649  0.33573072  0.69373596  1
  O  O358  1  0.70640073  0.83401815  0.18978675  1
  O  O359  1  0.69524873  0.83149430  0.68636232  1
  O  O360  1  0.21089839  0.41641171  0.19839754  1
  O  O361  1  0.21221593  0.41724280  0.69687526  1
  O  O362  1  0.21269083  0.91687952  0.20341015  1
  O  O363  1  0.21600326  0.91135924  0.69339399  1
  O  O364  1  0.54508331  0.41429468  0.20122526  1
  O  O365  1  0.54075076  0.41345171  0.69634451  1
  O  O366  1  0.54193685  0.91963941  0.20114381  1
  O  O367  1  0.54298053  0.91988808  0.69498568  1
  O  O368  1  0.87561521  0.41702218  0.20000437  1
  O  O369  1  0.87741826  0.41372822  0.69235906  1
  O  O370  1  0.88250910  0.92367893  0.19473355  1
  O  O371  1  0.88495461  0.92506458  0.69226786  1
  O  O372  1  0.04374003  0.16725324  0.19581400  1
  O  O373  1  0.04626299  0.16919052  0.69239176  1
  O  O374  1  0.04745229  0.66579350  0.19500943  1
  O  O375  1  0.05328302  0.65576797  0.69399164  1
  O  O376  1  0.37328731  0.16853399  0.19874629  1
  O  O377  1  0.38140596  0.17315577  0.69644148  1
  O  O378  1  0.37343318  0.66623637  0.19714039  1
  O  O379  1  0.37889952  0.66587914  0.69648028  1
  O  O380  1  0.70828454  0.16481281  0.19568657  1
  O  O381  1  0.70641921  0.17085132  0.69193675  1
  O  O382  1  0.71082131  0.66819420  0.19818571  1
  O  O383  1  0.70669905  0.66170032  0.69686545  1
  O  O384  1  0.12530693  0.08372602  0.30748666  1
  O  O385  1  0.11631965  0.09049415  0.80888833  1
  O  O386  1  0.12359783  0.58298186  0.30825604  1
  O  O387  1  0.12306455  0.58244262  0.80712518  1
  O  O388  1  0.45394807  0.08663369  0.30774292  1
  O  O389  1  0.47027078  0.08400149  0.81021728  1
  O  O390  1  0.45556691  0.58251290  0.29934725  1
  O  O391  1  0.45726973  0.58089338  0.80647374  1
  O  O392  1  0.78786222  0.08551383  0.30494924  1
  O  O393  1  0.78845389  0.09105277  0.80572031  1
  O  O394  1  0.79045978  0.58153834  0.30558127  1
  O  O395  1  0.78968667  0.57586335  0.80126991  1
  O  O396  1  0.28902418  0.33286617  0.30830082  1
  O  O397  1  0.29152438  0.33615115  0.80933543  1
  O  O398  1  0.28998578  0.83180106  0.30872087  1
  O  O399  1  0.29248063  0.83354658  0.80680304  1
  O  O400  1  0.62498738  0.33140028  0.30612065  1
  O  O401  1  0.62433969  0.33325075  0.80416601  1
  O  O402  1  0.62244340  0.82888998  0.30604293  1
  O  O403  1  0.62352124  0.83207431  0.79798211  1
  O  O404  1  0.95577060  0.33035367  0.30888111  1
  O  O405  1  0.95822266  0.33437418  0.80246045  1
  O  O406  1  0.96591976  0.83496110  0.30752938  1
  O  O407  1  0.96239263  0.83953275  0.80800116  1
  O  O408  1  0.12930178  0.41559267  0.30722494  1
  O  O409  1  0.12468691  0.41738724  0.80509954  1
  O  O410  1  0.12181378  0.91739726  0.30543921  1
  O  O411  1  0.12033075  0.91311283  0.80390603  1
  O  O412  1  0.45206181  0.40757864  0.31193820  1
  O  O413  1  0.45772176  0.41493804  0.80498658  1
  O  O414  1  0.45193981  0.91642498  0.30205108  1
  O  O415  1  0.45942970  0.91668996  0.80651921  1
  O  O416  1  0.78632531  0.41358545  0.30497512  1
  O  O417  1  0.79078384  0.41329068  0.80216378  1
  O  O418  1  0.78947406  0.91895974  0.30097985  1
  O  O419  1  0.78483005  0.92677101  0.79987467  1
  O  O420  1  0.28858629  0.16766755  0.30640058  1
  O  O421  1  0.28245600  0.17597163  0.80611524  1
  O  O422  1  0.28952031  0.66544280  0.30818234  1
  O  O423  1  0.29029107  0.66600353  0.80134050  1
  O  O424  1  0.62155565  0.16929971  0.30344331  1
  O  O425  1  0.62538637  0.16906544  0.80574523  1
  O  O426  1  0.62209082  0.66609052  0.30514955  1
  O  O427  1  0.62110757  0.66070935  0.80448660  1
  O  O428  1  0.95584590  0.16781680  0.30006072  1
  O  O429  1  0.95729170  0.17223140  0.80312455  1
  O  O430  1  0.95657149  0.66825799  0.29927444  1
  O  O431  1  0.94823015  0.65585583  0.80250007  1
  F  F432  1  0.04582179  0.00279053  0.20434601  1
  F  F433  1  0.04565675  0.00171251  0.70134940  1
  F  F434  1  0.04871565  0.50291237  0.20368090  1
  F  F435  1  0.04824198  0.49770326  0.70173318  1
  F  F436  1  0.37558617  0.00363395  0.20404211  1
  F  F437  1  0.38460709  -0.00708830  0.70086899  1
  F  F438  1  0.36816699  0.49752085  0.20057207  1
  F  F439  1  0.37735496  0.49842613  0.70429928  1
  F  F440  1  0.71335123  0.00898518  0.19887630  1
  F  F441  1  0.70919691  0.00600951  0.69748691  1
  F  F442  1  0.71299371  0.49970039  0.20050876  1
  F  F443  1  0.71055778  0.49508660  0.69941980  1
  F  F444  1  0.21149480  0.25038317  0.20524457  1
  F  F445  1  0.21290508  0.25564934  0.70108405  1
  F  F446  1  0.21262585  0.74883077  0.20567233  1
  F  F447  1  0.21522582  0.74951015  0.70005780  1
  F  F448  1  0.54193636  0.25055881  0.20348533  1
  F  F449  1  0.54449972  0.25078928  0.70320014  1
  F  F450  1  0.54386489  0.74930141  0.20358897  1
  F  F451  1  0.54006172  0.74634628  0.70155854  1
  F  F452  1  0.87735006  0.25011055  0.20101747  1
  F  F453  1  0.87903341  0.25292740  0.69908288  1
  F  F454  1  0.88057383  0.75166007  0.19826247  1
  F  F455  1  0.86848107  0.73324730  0.68445369  1
  F  F456  1  0.28763734  0.00415015  0.30146683  1
  F  F457  1  0.28412374  -0.01201156  0.80576600  1
  F  F458  1  0.28738476  0.49892377  0.30232215  1
  F  F459  1  0.28869169  0.49901419  0.80024350  1
  F  F460  1  0.61610959  0.01254769  0.30454505  1
  F  F461  1  0.62237453  0.00262319  0.79580311  1
  F  F462  1  0.62904491  0.50212139  0.29865828  1
  F  F463  1  0.62128859  0.49658772  0.79618746  1
  F  F464  1  0.95427400  0.00223989  0.29911715  1
  F  F465  1  0.95665695  0.00357459  0.79958489  1
  F  F466  1  0.95449830  0.50377273  0.30331549  1
  F  F467  1  0.95449150  0.49602002  0.79486021  1
  F  F468  1  0.12187953  0.24991037  0.30019791  1
  F  F469  1  0.11910610  0.25375340  0.79741440  1
  F  F470  1  0.12139899  0.75045667  0.29829286  1
  F  F471  1  0.13318932  0.75051231  0.79978069  1
  F  F472  1  0.45333421  0.25019241  0.29967550  1
  F  F473  1  0.45690353  0.25166954  0.80120381  1
  F  F474  1  0.45401402  0.74973911  0.29846714  1
  F  F475  1  0.45547001  0.74851084  0.79919090  1
  F  F476  1  0.78623433  0.25081093  0.29613158  1
  F  F477  1  0.78792059  0.25247745  0.79458598  1
  F  F478  1  0.78890635  0.74957118  0.29829416  1
  F  F479  1  0.78446507  0.73888005  0.79818169  1
