# generated using pymatgen
data_K24Na3Li5Mg64Fe17Si79(O5F)48
_symmetry_space_group_name_H-M   'P 1'
_cell_length_a   16.09554962
_cell_length_b   18.59078660
_cell_length_c   20.55578014
_cell_angle_alpha   89.99513787
_cell_angle_beta   100.01936103
_cell_angle_gamma   90.02133354
_symmetry_Int_Tables_number   1
_chemical_formula_structural   K24Na3Li5Mg64Fe17Si79(O5F)48
_chemical_formula_sum   'K24 Na3 Li5 Mg64 Fe17 Si79 O240 F48'
_cell_volume   6057.07662185
_cell_formula_units_Z   1
loop_
 _symmetry_equiv_pos_site_id
 _symmetry_equiv_pos_as_xyz
  1  'x, y, z'
loop_
 _atom_site_type_symbol
 _atom_site_label
 _atom_site_symmetry_multiplicity
 _atom_site_fract_x
 _atom_site_fract_y
 _atom_site_fract_z
 _atom_site_occupancy
  K  K0  1  0.00053202  -0.00021316  -0.00069928  1
  K  K1  1  -0.00253684  0.00247312  0.50049510  1
  K  K2  1  -0.00887296  0.49253339  0.01033037  1
  K  K3  1  0.00618015  0.49092594  0.49599474  1
  K  K4  1  0.32289403  0.00663565  -0.00246947  1
  K  K5  1  0.34175406  0.00365481  0.50752384  1
  K  K6  1  0.33105832  0.49415324  0.00372554  1
  K  K7  1  0.32517778  0.49381582  0.49639725  1
  K  K8  1  0.65781713  0.00661262  -0.00428717  1
  K  K9  1  0.66452407  0.01037328  0.50270642  1
  K  K10  1  0.66712541  0.49853912  -0.00029177  1
  K  K11  1  0.66502406  0.49062481  0.50338879  1
  K  K12  1  0.15203088  0.24647116  -0.00148573  1
  K  K13  1  0.17112748  0.24968301  0.50184217  1
  K  K14  1  0.15214013  0.75956557  0.00044902  1
  K  K15  1  0.16792624  0.76010360  0.49650553  1
  K  K16  1  0.50199640  0.23644752  -0.00397787  1
  K  K17  1  0.50142483  0.24905141  0.49999824  1
  K  K18  1  0.49824540  0.75760384  -0.00107655  1
  K  K19  1  0.50028896  0.75298915  0.50373562  1
  K  K20  1  0.83550013  0.24794854  0.00227971  1
  K  K21  1  0.83816621  0.24666174  0.50572429  1
  K  K22  1  0.84761026  0.75041814  0.00880084  1
  K  K23  1  0.83642836  0.75337013  0.49675829  1
  Na  Na24  1  -0.00184847  0.25035387  0.74378744  1
  Na  Na25  1  0.83588974  0.66964008  0.24184714  1
  Na  Na26  1  0.66516947  0.58339775  0.75144198  1
  Li  Li27  1  0.50505174  0.00464152  0.25712320  1
  Li  Li28  1  0.66751516  0.74834690  0.75112280  1
  Li  Li29  1  0.83197886  0.33136257  0.24744952  1
  Li  Li30  1  0.66669365  0.08603845  0.75167337  1
  Li  Li31  1  0.16348516  0.66607033  0.24508135  1
  Mg  Mg32  1  0.50186969  0.50012496  0.25458206  1
  Mg  Mg33  1  -0.00313886  0.25079078  0.24471289  1
  Mg  Mg34  1  0.83000059  0.49858872  0.74792156  1
  Mg  Mg35  1  0.16843617  -0.00070704  0.24815756  1
  Mg  Mg36  1  0.33505732  0.24830724  0.75019607  1
  Mg  Mg37  1  0.50191246  0.50156410  0.75068048  1
  Mg  Mg38  1  0.82885787  0.00136584  0.74831091  1
  Mg  Mg39  1  -0.00284803  0.75017514  0.75022897  1
  Mg  Mg40  1  0.67008843  0.75084264  0.24739294  1
  Mg  Mg41  1  0.33420394  0.24941531  0.25579162  1
  Mg  Mg42  1  0.83529954  0.49834218  0.24635904  1
  Mg  Mg43  1  0.50218558  0.00068776  0.75351553  1
  Mg  Mg44  1  0.00603886  0.74913700  0.24187053  1
  Mg  Mg45  1  0.16438782  0.00016290  0.75033801  1
  Mg  Mg46  1  0.16518578  0.49899251  0.74886185  1
  Mg  Mg47  1  0.33142256  0.75210217  0.74964037  1
  Mg  Mg48  1  0.33397989  0.75013491  0.25071018  1
  Mg  Mg49  1  0.66712794  0.24616276  0.75064495  1
  Mg  Mg50  1  0.83486302  0.00062022  0.24563783  1
  Mg  Mg51  1  0.66832844  0.25121317  0.25599160  1
  Mg  Mg52  1  0.16675772  0.50030114  0.24904157  1
  Mg  Mg53  1  0.67117512  0.58408503  0.24854267  1
  Mg  Mg54  1  -0.00449410  0.58348051  0.74938066  1
  Mg  Mg55  1  0.50161754  0.83243571  0.74977082  1
  Mg  Mg56  1  0.16421490  0.66601446  0.75054995  1
  Mg  Mg57  1  0.33045467  0.91668527  0.75088857  1
  Mg  Mg58  1  0.50311660  0.66727839  0.25114153  1
  Mg  Mg59  1  0.50418377  0.33399746  0.25802220  1
  Mg  Mg60  1  0.82704934  0.66684875  0.75015491  1
  Mg  Mg61  1  -0.00114108  0.91504193  0.24256139  1
  Mg  Mg62  1  0.66577837  0.91521975  0.75079333  1
  Mg  Mg63  1  0.00080444  0.58382860  0.24410450  1
  Mg  Mg64  1  -0.00255135  0.41519607  0.74671668  1
  Mg  Mg65  1  0.16730106  0.33366155  0.75043656  1
  Mg  Mg66  1  0.83583277  0.83456108  0.24322294  1
  Mg  Mg67  1  -0.00505799  0.41327985  0.24509192  1
  Mg  Mg68  1  0.83157073  0.16722123  0.24673685  1
  Mg  Mg69  1  0.82865036  0.83191005  0.74947471  1
  Mg  Mg70  1  -0.00244164  0.91576471  0.74852694  1
  Mg  Mg71  1  0.34031435  0.08221660  0.25581239  1
  Mg  Mg72  1  0.16761898  0.83155745  0.24555110  1
  Mg  Mg73  1  0.33283188  0.08566681  0.75047760  1
  Mg  Mg74  1  0.66598818  0.08455884  0.25476991  1
  Mg  Mg75  1  0.67167287  0.41492416  0.25499665  1
  Mg  Mg76  1  0.50387955  0.83703513  0.25330558  1
  Mg  Mg77  1  0.50274412  0.66938630  0.74976751  1
  Mg  Mg78  1  0.50491668  0.16394696  0.25793136  1
  Mg  Mg79  1  -0.00355121  0.08392474  0.24361740  1
  Mg  Mg80  1  0.16396170  0.83624724  0.75018749  1
  Mg  Mg81  1  0.83034536  0.33204807  0.74824980  1
  Mg  Mg82  1  0.50182240  0.16363408  0.75196383  1
  Mg  Mg83  1  0.33427406  0.41674261  0.75004450  1
  Mg  Mg84  1  0.16610645  0.33347532  0.24958959  1
  Mg  Mg85  1  0.16594496  0.16687247  0.74892725  1
  Mg  Mg86  1  0.33957027  0.91780447  0.25310249  1
  Mg  Mg87  1  0.66606242  0.41534318  0.75157216  1
  Mg  Mg88  1  0.66792785  0.91804194  0.24955832  1
  Mg  Mg89  1  0.33436768  0.41518812  0.25405293  1
  Mg  Mg90  1  0.33403544  0.58541798  0.75043810  1
  Mg  Mg91  1  0.82966117  0.16385342  0.74837907  1
  Mg  Mg92  1  0.50188847  0.33394949  0.75150108  1
  Mg  Mg93  1  0.16684896  0.16554418  0.24952237  1
  Mg  Mg94  1  0.33260020  0.58527993  0.25090542  1
  Mg  Mg95  1  -0.00302900  0.08513596  0.74918647  1
  Fe  Fe96  1  0.13910786  0.91910702  0.89084182  1
  Fe  Fe97  1  0.69034238  0.33010941  0.61279865  1
  Fe  Fe98  1  0.64884272  0.34001257  0.39639964  1
  Fe  Fe99  1  0.30624941  0.17195336  0.89011907  1
  Fe  Fe100  1  0.85998809  0.08037729  0.60790265  1
  Fe  Fe101  1  0.84901592  0.91484916  0.10263641  1
  Fe  Fe102  1  0.36242527  0.16713876  0.61042517  1
  Fe  Fe103  1  0.02503171  0.33363206  0.10721148  1
  Fe  Fe104  1  0.30652877  0.33297311  0.39165060  1
  Fe  Fe105  1  0.02935129  0.33822781  0.60808595  1
  Fe  Fe106  1  0.84928281  0.08665751  0.10567238  1
  Fe  Fe107  1  0.47410569  0.07671489  0.39609037  1
  Fe  Fe108  1  0.18608897  0.91591809  0.60913258  1
  Fe  Fe109  1  0.02881315  0.83421086  0.10409329  1
  Fe  Fe110  1  0.64806129  0.16655300  0.39812600  1
  Fe  Fe111  1  0.85062492  0.58157858  0.10540246  1
  Fe  Fe112  1  0.64126314  0.16487256  0.89169366  1
  Si  Si113  1  0.85876994  0.41955875  0.61041871  1
  Si  Si114  1  0.96926357  0.33247429  0.38151386  1
  Si  Si115  1  0.02765732  0.65973407  0.10584856  1
  Si  Si116  1  0.47960807  0.59091440  0.38728831  1
  Si  Si117  1  0.30831887  0.66305233  0.88620841  1
  Si  Si118  1  0.30820189  0.66566043  0.38466886  1
  Si  Si119  1  0.68767962  0.66750951  0.61462833  1
  Si  Si120  1  0.80763168  0.41984182  0.88715153  1
  Si  Si121  1  0.68462434  0.17266232  0.11435412  1
  Si  Si122  1  0.68432567  0.82991673  0.11036400  1
  Si  Si123  1  0.84757768  0.41209761  0.10874786  1
  Si  Si124  1  0.64242121  0.67125039  0.88564067  1
  Si  Si125  1  0.52963396  0.91930008  0.11732799  1
  Si  Si126  1  0.81400857  0.91344984  0.38245299  1
  Si  Si127  1  0.31133700  0.34195190  0.88840984  1
  Si  Si128  1  0.47862377  0.58782463  0.88645662  1
  Si  Si129  1  0.52737459  0.08346896  0.11870945  1
  Si  Si130  1  0.47922636  0.90564799  0.39164830  1
  Si  Si131  1  0.47457533  0.91045255  0.88589776  1
  Si  Si132  1  0.19923804  0.58268364  0.11445165  1
  Si  Si133  1  0.30334909  0.16090815  0.38943548  1
  Si  Si134  1  0.35613817  0.66921499  0.61442571  1
  Si  Si135  1  0.67917636  0.66878872  0.11019887  1
  Si  Si136  1  0.52760597  0.91398172  0.61606960  1
  Si  Si137  1  0.30717416  0.83079856  0.38594058  1
  Si  Si138  1  0.30849496  0.82853851  0.88904769  1
  Si  Si139  1  0.02981511  0.16070816  0.10881569  1
  Si  Si140  1  0.36067717  0.67013867  0.11551343  1
  Si  Si141  1  0.19954808  0.42155092  0.61318964  1
  Si  Si142  1  0.81694254  0.58559251  0.38278701  1
  Si  Si143  1  0.68430040  0.33348601  0.11783337  1
  Si  Si144  1  0.64108545  0.33685431  0.89016061  1
  Si  Si145  1  0.85000652  0.58343637  0.61350671  1
  Si  Si146  1  0.96806726  0.83065754  0.88547173  1
  Si  Si147  1  0.13475787  0.08433792  0.38251581  1
  Si  Si148  1  0.13540577  0.09089367  0.88975776  1
  Si  Si149  1  0.01853717  0.66133141  0.61457185  1
  Si  Si150  1  0.36549932  0.33243464  0.11852685  1
  Si  Si151  1  0.19997656  0.41818896  0.11210980  1
  Si  Si152  1  0.80625521  0.91449124  0.88400072  1
  Si  Si153  1  0.01938058  0.82555140  0.61110330  1
  Si  Si154  1  0.97964631  0.83287163  0.38214159  1
  Si  Si155  1  0.51871881  0.58530148  0.61474592  1
  Si  Si156  1  0.19053549  0.08354123  0.61142149  1
  Si  Si157  1  0.98299230  0.67005989  0.38148173  1
  Si  Si158  1  0.14341767  0.91900021  0.38276908  1
  Si  Si159  1  0.52146042  0.58241434  0.11506119  1
  Si  Si160  1  0.20408247  0.91816348  0.11394795  1
  Si  Si161  1  0.47638464  0.42331735  0.88619315  1
  Si  Si162  1  0.81354941  0.42514332  0.38645463  1
  Si  Si163  1  0.80895998  0.07865205  0.88717043  1
  Si  Si164  1  0.47334652  0.42439225  0.39257695  1
  Si  Si165  1  0.52563335  0.42136777  0.61443143  1
  Si  Si166  1  0.36481513  0.16812070  0.11957927  1
  Si  Si167  1  0.36039574  0.83450374  0.61291901  1
  Si  Si168  1  0.64181497  0.83367966  0.88520566  1
  Si  Si169  1  0.03008444  0.16422106  0.61080600  1
  Si  Si170  1  0.97005131  0.33599357  0.88406602  1
  Si  Si171  1  0.13928857  0.41732420  0.88633966  1
  Si  Si172  1  0.85340051  0.90918792  0.61117903  1
  Si  Si173  1  0.97137273  0.16711851  0.38229716  1
  Si  Si174  1  0.96583005  0.16775007  0.88416049  1
  Si  Si175  1  0.13995476  0.58241914  0.88602396  1
  Si  Si176  1  0.14157420  0.58170288  0.38270660  1
  Si  Si177  1  0.52917783  0.07861195  0.61615104  1
  Si  Si178  1  0.65066615  0.66596060  0.38539874  1
  Si  Si179  1  0.46988507  0.07660940  0.89191636  1
  Si  Si180  1  0.18980671  0.58695333  0.61480332  1
  Si  Si181  1  0.68979199  0.16348989  0.61444768  1
  Si  Si182  1  0.81152426  0.07740950  0.38578904  1
  Si  Si183  1  0.80929422  0.58429032  0.88554041  1
  Si  Si184  1  0.20152183  0.08397645  0.11731161  1
  Si  Si185  1  0.64880692  0.83082616  0.38550751  1
  Si  Si186  1  0.36186605  0.33849503  0.61530543  1
  Si  Si187  1  0.52525917  0.41870935  0.11796778  1
  Si  Si188  1  0.36815843  0.83520769  0.11736439  1
  Si  Si189  1  0.97368252  0.66508651  0.88520570  1
  Si  Si190  1  0.68960952  0.82930654  0.61528392  1
  Si  Si191  1  0.13501341  0.41641853  0.38671676  1
  O  O192  1  0.27915329  0.12346990  0.08847660  1
  O  O193  1  0.27423960  0.10270509  0.58042836  1
  O  O194  1  0.27372697  0.62786998  0.08484052  1
  O  O195  1  0.26685689  0.62699597  0.58525273  1
  O  O196  1  0.60410399  0.11836617  0.08562662  1
  O  O197  1  0.61905344  0.09851594  0.59350399  1
  O  O198  1  0.59874245  0.61363077  0.08134110  1
  O  O199  1  0.60105397  0.61952227  0.58690270  1
  O  O200  1  0.95254168  0.10873720  0.07759689  1
  O  O201  1  0.95879728  0.10693081  0.57643342  1
  O  O202  1  0.94654076  0.61236883  0.07132283  1
  O  O203  1  0.93493240  0.61254149  0.58541350  1
  O  O204  1  0.11485162  0.38087746  0.07412128  1
  O  O205  1  0.12584555  0.37180339  0.57425624  1
  O  O206  1  0.12597178  0.87305249  0.07571947  1
  O  O207  1  0.09607713  0.85175858  0.57583300  1
  O  O208  1  0.44354939  0.36855524  0.08728551  1
  O  O209  1  0.44471440  0.36916091  0.58689395  1
  O  O210  1  0.44834270  0.86734689  0.08705425  1
  O  O211  1  0.44663215  0.86190111  0.58671211  1
  O  O212  1  0.76623218  0.35586920  0.08532393  1
  O  O213  1  0.78567197  0.36357278  0.57966035  1
  O  O214  1  0.76327034  0.84388243  0.07436297  1
  O  O215  1  0.77175661  0.85542069  0.58391791  1
  O  O216  1  0.28149064  0.37875716  0.08680120  1
  O  O217  1  0.28976329  0.40100113  0.59084980  1
  O  O218  1  0.28860888  0.88613384  0.08756643  1
  O  O219  1  0.28201380  0.88113658  0.57566399  1
  O  O220  1  0.60707197  0.39076846  0.08768229  1
  O  O221  1  0.60512172  0.39838580  0.58213086  1
  O  O222  1  0.60753303  0.88802698  0.08352235  1
  O  O223  1  0.60721525  0.87966764  0.58538984  1
  O  O224  1  0.92413153  0.38148867  0.07350117  1
  O  O225  1  0.94358904  0.40645419  0.57929128  1
  O  O226  1  0.93964749  0.88852925  0.06277644  1
  O  O227  1  0.93242794  0.86991727  0.58237938  1
  O  O228  1  0.11612023  0.12659417  0.08529455  1
  O  O229  1  0.12029480  0.14659141  0.58480212  1
  O  O230  1  0.11037978  0.61917320  0.08130842  1
  O  O231  1  0.10098217  0.62928338  0.58605746  1
  O  O232  1  0.44181935  0.13051928  0.08895788  1
  O  O233  1  0.45600792  0.13043687  0.57736048  1
  O  O234  1  0.43727667  0.63072654  0.08512769  1
  O  O235  1  0.43391328  0.63317908  0.58312430  1
  O  O236  1  0.76340375  0.15628514  0.07795370  1
  O  O237  1  0.76950018  0.14213589  0.57885217  1
  O  O238  1  0.75820143  0.64649022  0.07617162  1
  O  O239  1  0.76811623  0.63440876  0.58252903  1
  O  O240  1  0.05392527  0.11684721  0.41190327  1
  O  O241  1  0.05096181  0.12354420  0.91630656  1
  O  O242  1  0.06870216  0.62511478  0.41548597  1
  O  O243  1  0.06344907  0.62347491  0.91447492  1
  O  O244  1  0.36878469  0.09893758  0.41978248  1
  O  O245  1  0.38949720  0.10384872  0.92364127  1
  O  O246  1  0.40219047  0.63155249  0.41690057  1
  O  O247  1  0.39587018  0.61904853  0.91547707  1
  O  O248  1  0.73572462  0.09802090  0.42323561  1
  O  O249  1  0.73277946  0.10407011  0.92333944  1
  O  O250  1  0.73583161  0.61888194  0.41484829  1
  O  O251  1  0.72831193  0.62269915  0.91162773  1
  O  O252  1  0.21416535  0.37155933  0.42562155  1
  O  O253  1  0.22981282  0.37906073  0.91672344  1
  O  O254  1  0.23136389  0.87514986  0.41376525  1
  O  O255  1  0.23661921  0.86303524  0.92453209  1
  O  O256  1  0.55247345  0.37679683  0.42669298  1
  O  O257  1  0.56113582  0.37824601  0.91765290  1
  O  O258  1  0.56600246  0.85569534  0.41655082  1
  O  O259  1  0.56093589  0.86536911  0.91612335  1
  O  O260  1  0.89160746  0.36823999  0.41289924  1
  O  O261  1  0.89557192  0.37629011  0.91759929  1
  O  O262  1  0.89768333  0.86364732  0.41223516  1
  O  O263  1  0.88137564  0.85666519  0.91080100  1
  O  O264  1  0.05105712  0.38305212  0.41215095  1
  O  O265  1  0.06162603  0.37626273  0.91402279  1
  O  O266  1  0.06520037  0.88000788  0.41240748  1
  O  O267  1  0.04664824  0.87724637  0.92195379  1
  O  O268  1  0.38956701  0.40230805  0.42151383  1
  O  O269  1  0.39230576  0.39707077  0.91522917  1
  O  O270  1  0.40054951  0.86170017  0.41915900  1
  O  O271  1  0.39998198  0.86796804  0.91645732  1
  O  O272  1  0.73461908  0.40899818  0.42258638  1
  O  O273  1  0.72701514  0.38647919  0.91632446  1
  O  O274  1  0.73390983  0.87894462  0.41388387  1
  O  O275  1  0.72307277  0.88534094  0.91332522  1
  O  O276  1  0.21242704  0.13734239  0.41239302  1
  O  O277  1  0.20938779  0.14595141  0.92285044  1
  O  O278  1  0.23463163  0.61919776  0.41281447  1
  O  O279  1  0.23054874  0.62291085  0.91498691  1
  O  O280  1  0.55776467  0.13711885  0.43695427  1
  O  O281  1  0.55184463  0.12181542  0.92669332  1
  O  O282  1  0.56771543  0.63604796  0.41508789  1
  O  O283  1  0.56281133  0.63493780  0.91771400  1
  O  O284  1  0.89409063  0.12972251  0.41248847  1
  O  O285  1  0.89018241  0.13139628  0.91735471  1
  O  O286  1  0.89881986  0.63897055  0.40881813  1
  O  O287  1  0.89717546  0.62746984  0.91660502  1
  O  O288  1  0.19731398  0.00219835  0.08751682  1
  O  O289  1  0.15215049  0.00745817  0.57879667  1
  O  O290  1  0.20394458  0.50142189  0.08327879  1
  O  O291  1  0.18108090  0.50567558  0.58513968  1
  O  O292  1  0.50989359  0.00118795  0.08850376  1
  O  O293  1  0.50868816  -0.00517454  0.58704564  1
  O  O294  1  0.50173815  0.50007310  0.08699098  1
  O  O295  1  0.49906760  0.50402733  0.58575225  1
  O  O296  1  0.80470737  0.00157428  0.06919260  1
  O  O297  1  0.83369680  -0.01461306  0.57510906  1
  O  O298  1  0.81665276  0.48880777  0.07370643  1
  O  O299  1  0.82676442  0.50303332  0.58538984  1
  O  O300  1  0.01836668  0.23950001  0.07373433  1
  O  O301  1  0.00080466  0.24371578  0.58146846  1
  O  O302  1  0.02189994  0.73871523  0.07127994  1
  O  O303  1  -0.00225433  0.74164018  0.58431311  1
  O  O304  1  0.35394206  0.25027680  0.08937933  1
  O  O305  1  0.33332260  0.26264236  0.58098878  1
  O  O306  1  0.35356932  0.75285208  0.08689721  1
  O  O307  1  0.34540188  0.75065302  0.58449796  1
  O  O308  1  0.64906412  0.25423569  0.09015060  1
  O  O309  1  0.64986325  0.23935577  0.58340808  1
  O  O310  1  0.64311083  0.74997983  0.08646818  1
  O  O311  1  0.66680414  0.74841092  0.58231135  1
  O  O312  1  0.15186223  0.00152740  0.41197743  1
  O  O313  1  0.15506283  0.01234515  0.92468571  1
  O  O314  1  0.14471807  0.50074804  0.41551115  1
  O  O315  1  0.14634969  0.50050962  0.91641810  1
  O  O316  1  0.49474689  -0.01939284  0.42986924  1
  O  O317  1  0.48526447  -0.00910973  0.91715942  1
  O  O318  1  0.49318475  0.51022227  0.41733242  1
  O  O319  1  0.49435438  0.50594286  0.91552296  1
  O  O320  1  0.83943292  -0.00613279  0.41109804  1
  O  O321  1  0.83433730  -0.00555056  0.91272426  1
  O  O322  1  0.84668378  0.50703063  0.41501359  1
  O  O323  1  0.81917233  0.50261539  0.91706772  1
  O  O324  1  0.32975581  0.23891137  0.42254610  1
  O  O325  1  0.33516515  0.26611988  0.92413810  1
  O  O326  1  0.30436001  0.74775554  0.41505682  1
  O  O327  1  0.32203162  0.74399777  0.91661236  1
  O  O328  1  0.68764311  0.25415644  0.43325472  1
  O  O329  1  0.65482992  0.26048027  0.92717002  1
  O  O330  1  0.67017226  0.74822631  0.41414555  1
  O  O331  1  0.65898872  0.75232500  0.91808305  1
  O  O332  1  0.98494239  0.24972167  0.41190321  1
  O  O333  1  0.97756250  0.25259534  0.91120936  1
  O  O334  1  0.99733386  0.75169296  0.41409202  1
  O  O335  1  0.98408728  0.74697881  0.91324606  1
  O  O336  1  0.21555570  0.08322503  0.19773040  1
  O  O337  1  0.20922422  0.08060612  0.69322208  1
  O  O338  1  0.21604948  0.58087960  0.19413984  1
  O  O339  1  0.20882009  0.58645498  0.69543598  1
  O  O340  1  0.54664043  0.08490493  0.19782423  1
  O  O341  1  0.53602399  0.07903684  0.69587989  1
  O  O342  1  0.54052466  0.58405243  0.19543121  1
  O  O343  1  0.53046942  0.58572056  0.69399692  1
  O  O344  1  0.87604405  0.08398928  0.19826787  1
  O  O345  1  0.87694464  0.08052563  0.69937645  1
  O  O346  1  0.88222832  0.57517063  0.19486609  1
  O  O347  1  0.87258437  0.58538184  0.69392958  1
  O  O348  1  0.04689541  0.33345073  0.19867885  1
  O  O349  1  0.05313858  0.34521550  0.69830603  1
  O  O350  1  0.04920664  0.83500569  0.19644682  1
  O  O351  1  0.03970357  0.82774353  0.69207710  1
  O  O352  1  0.38207637  0.33496925  0.19863429  1
  O  O353  1  0.37890832  0.33662357  0.69673789  1
  O  O354  1  0.38291371  0.83306029  0.19761216  1
  O  O355  1  0.37422946  0.83317624  0.69390406  1
  O  O356  1  0.70358919  0.33478979  0.19722322  1
  O  O357  1  0.70844618  0.33328583  0.70461295  1
  O  O358  1  0.70687775  0.83367832  0.19138606  1
  O  O359  1  0.70882989  0.83215542  0.69472408  1
  O  O360  1  0.21259303  0.41845167  0.19279006  1
  O  O361  1  0.21286832  0.42173394  0.69444139  1
  O  O362  1  0.21667946  0.91629612  0.19482940  1
  O  O363  1  0.21165123  0.91398116  0.70064274  1
  O  O364  1  0.54117673  0.41990890  0.19795784  1
  O  O365  1  0.54132079  0.42009214  0.69560803  1
  O  O366  1  0.54744353  0.91391958  0.19681595  1
  O  O367  1  0.54298207  0.91343291  0.69618138  1
  O  O368  1  0.87383627  0.41625069  0.18906694  1
  O  O369  1  0.87602235  0.41931327  0.69229585  1
  O  O370  1  0.87745771  0.91791575  0.19598205  1
  O  O371  1  0.87415677  0.91092864  0.69216435  1
  O  O372  1  0.04589379  0.16465980  0.19050308  1
  O  O373  1  0.04860820  0.15808872  0.69139488  1
  O  O374  1  0.04182529  0.66336530  0.18649117  1
  O  O375  1  0.04038360  0.66378824  0.69515191  1
  O  O376  1  0.37901140  0.16842721  0.19946798  1
  O  O377  1  0.38203022  0.16665064  0.70211552  1
  O  O378  1  0.37974710  0.66761159  0.19576921  1
  O  O379  1  0.37261873  0.66760242  0.69485121  1
  O  O380  1  0.70689164  0.16759340  0.19478178  1
  O  O381  1  0.71130943  0.16746542  0.69490980  1
  O  O382  1  0.69549870  0.66661941  0.19032248  1
  O  O383  1  0.71270670  0.67075543  0.69278739  1
  O  O384  1  0.12049867  0.08227139  0.30202455  1
  O  O385  1  0.12080171  0.08503824  0.80825190  1
  O  O386  1  0.12357552  0.58047508  0.30332268  1
  O  O387  1  0.12294797  0.58359975  0.80550657  1
  O  O388  1  0.45702871  0.08382772  0.30508078  1
  O  O389  1  0.45559928  0.07883422  0.81077453  1
  O  O390  1  0.45927231  0.58828884  0.30675754  1
  O  O391  1  0.45677587  0.58732511  0.80621913  1
  O  O392  1  0.79136116  0.08073476  0.30523670  1
  O  O393  1  0.79137832  0.08028158  0.80725725  1
  O  O394  1  0.78865384  0.58078714  0.30421558  1
  O  O395  1  0.79986189  0.58248382  0.80652488  1
  O  O396  1  0.28704476  0.33382550  0.29952380  1
  O  O397  1  0.29175085  0.33990168  0.80751308  1
  O  O398  1  0.29223645  0.83254294  0.30579430  1
  O  O399  1  0.28961486  0.82918238  0.80806976  1
  O  O400  1  0.62332284  0.33652165  0.30398158  1
  O  O401  1  0.62072359  0.33549896  0.80967794  1
  O  O402  1  0.62725517  0.83219057  0.30537596  1
  O  O403  1  0.62047677  0.83327167  0.80564579  1
  O  O404  1  0.95648294  0.33203764  0.30213424  1
  O  O405  1  0.94959689  0.34294810  0.80523889  1
  O  O406  1  0.96058632  0.83287235  0.30272187  1
  O  O407  1  0.95451700  0.83097906  0.80433989  1
  O  O408  1  0.12492101  0.41731131  0.30623033  1
  O  O409  1  0.12447346  0.42072634  0.80645164  1
  O  O410  1  0.12718743  0.91715013  0.30293086  1
  O  O411  1  0.11790508  0.91468923  0.79938833  1
  O  O412  1  0.45743384  0.42150994  0.31057458  1
  O  O413  1  0.45632911  0.42090881  0.80583895  1
  O  O414  1  0.45728383  0.90838804  0.31157907  1
  O  O415  1  0.45451250  0.91128096  0.80553262  1
  O  O416  1  0.79170972  0.42397583  0.30644605  1
  O  O417  1  0.79081445  0.41948060  0.80718921  1
  O  O418  1  0.79169107  0.91406435  0.30257880  1
  O  O419  1  0.78826913  0.91387266  0.80360785  1
  O  O420  1  0.28821337  0.16471208  0.30761347  1
  O  O421  1  0.28688725  0.16774419  0.79889956  1
  O  O422  1  0.29721072  0.66697259  0.30547195  1
  O  O423  1  0.28880034  0.66489026  0.80568551  1
  O  O424  1  0.62533326  0.16740269  0.30499523  1
  O  O425  1  0.61930467  0.16857576  0.80141705  1
  O  O426  1  0.62749874  0.66644692  0.30520646  1
  O  O427  1  0.61587319  0.67336840  0.80743683  1
  O  O428  1  0.95761702  0.16718631  0.30225944  1
  O  O429  1  0.94962011  0.16271676  0.80517298  1
  O  O430  1  0.97194618  0.66932616  0.30266718  1
  O  O431  1  0.95694431  0.66454462  0.80471433  1
  F  F432  1  0.04949206  -0.00005296  0.19890353  1
  F  F433  1  0.04277756  -0.00109796  0.70197593  1
  F  F434  1  0.04887596  0.49726175  0.19947548  1
  F  F435  1  0.04589465  0.50523828  0.70164143  1
  F  F436  1  0.37568695  -0.00149058  0.20352947  1
  F  F437  1  0.37956719  -0.00238041  0.70581314  1
  F  F438  1  0.38109484  0.50148431  0.20548689  1
  F  F439  1  0.37771570  0.50329733  0.70421041  1
  F  F440  1  0.71087625  0.00078659  0.20254606  1
  F  F441  1  0.71100349  -0.00768024  0.70112994  1
  F  F442  1  0.70834127  0.49945785  0.20119381  1
  F  F443  1  0.71342091  0.49262959  0.70015610  1
  F  F444  1  0.21387234  0.24759367  0.20128825  1
  F  F445  1  0.21478729  0.25545486  0.70077657  1
  F  F446  1  0.22089976  0.75396349  0.19781719  1
  F  F447  1  0.21003030  0.74789150  0.70291592  1
  F  F448  1  0.54108778  0.25089518  0.20591862  1
  F  F449  1  0.54260868  0.25295697  0.70368533  1
  F  F450  1  0.54452897  0.75089246  0.20454422  1
  F  F451  1  0.53349766  0.75037744  0.69703852  1
  F  F452  1  0.88005847  0.24519899  0.19683529  1
  F  F453  1  0.86408308  0.25040131  0.69858982  1
  F  F454  1  0.88728352  0.76020385  0.19364542  1
  F  F455  1  0.87844712  0.74744614  0.70144103  1
  F  F456  1  0.28726927  -0.00283188  0.30035293  1
  F  F457  1  0.28721568  -0.00009443  0.79991313  1
  F  F458  1  0.28884765  0.50171063  0.29901794  1
  F  F459  1  0.28711841  0.50354846  0.79861902  1
  F  F460  1  0.62908885  -0.00301731  0.30171515  1
  F  F461  1  0.61757289  -0.00924059  0.80251097  1
  F  F462  1  0.62158474  0.50464700  0.29883696  1
  F  F463  1  0.61592835  0.49285572  0.80364201  1
  F  F464  1  0.96005350  -0.00130383  0.29630525  1
  F  F465  1  0.95250010  -0.00502103  0.79728152  1
  F  F466  1  0.95846867  0.49756210  0.29595401  1
  F  F467  1  0.95479168  0.50108608  0.79616057  1
  F  F468  1  0.12062510  0.24716778  0.29650819  1
  F  F469  1  0.13372723  0.25149610  0.80123533  1
  F  F470  1  0.12608131  0.75049662  0.29562273  1
  F  F471  1  0.11950831  0.74760582  0.79769549  1
  F  F472  1  0.45426716  0.25182517  0.30319944  1
  F  F473  1  0.45485707  0.25481758  0.80174369  1
  F  F474  1  0.45720926  0.74901672  0.30005758  1
  F  F475  1  0.45038485  0.74954802  0.79836942  1
  F  F476  1  0.78993344  0.24646227  0.29750395  1
  F  F477  1  0.78929698  0.24893468  0.80244215  1
  F  F478  1  0.78638903  0.75911866  0.29671843  1
  F  F479  1  0.79374414  0.74884877  0.80081567  1
