# generated using pymatgen
data_K24Na3Li5Mg64Fe17Si79(O5F)48
_symmetry_space_group_name_H-M   'P 1'
_cell_length_a   16.09874104
_cell_length_b   18.59722710
_cell_length_c   20.57868725
_cell_angle_alpha   90.00903084
_cell_angle_beta   100.01489546
_cell_angle_gamma   90.01148209
_symmetry_Int_Tables_number   1
_chemical_formula_structural   K24Na3Li5Mg64Fe17Si79(O5F)48
_chemical_formula_sum   'K24 Na3 Li5 Mg64 Fe17 Si79 O240 F48'
_cell_volume   6067.21373370
_cell_formula_units_Z   1
loop_
 _symmetry_equiv_pos_site_id
 _symmetry_equiv_pos_as_xyz
  1  'x, y, z'
loop_
 _atom_site_type_symbol
 _atom_site_label
 _atom_site_symmetry_multiplicity
 _atom_site_fract_x
 _atom_site_fract_y
 _atom_site_fract_z
 _atom_site_occupancy
  K  K0  1  0.00395103  0.00349057  0.00167456  1
  K  K1  1  -0.00116244  0.00521025  0.49521132  1
  K  K2  1  0.00905234  0.49210818  -0.00698175  1
  K  K3  1  0.00700492  0.49266044  0.50046087  1
  K  K4  1  0.33775573  -0.00023976  0.00361130  1
  K  K5  1  0.33521459  0.00555786  0.49603894  1
  K  K6  1  0.33232389  0.49158037  0.00071201  1
  K  K7  1  0.32066595  0.49267539  0.49796957  1
  K  K8  1  0.66666039  0.00593531  0.01588416  1
  K  K9  1  0.66586962  0.00976407  0.48661638  1
  K  K10  1  0.66245100  0.49758175  0.00382500  1
  K  K11  1  0.66674093  0.48439949  0.49835161  1
  K  K12  1  0.16780220  0.25626174  -0.00088766  1
  K  K13  1  0.16992938  0.25380568  0.49102346  1
  K  K14  1  0.17558573  0.74820985  0.00721970  1
  K  K15  1  0.17661224  0.73667034  0.50643187  1
  K  K16  1  0.50073424  0.24995772  0.00590128  1
  K  K17  1  0.49786008  0.26177802  0.48777114  1
  K  K18  1  0.50441714  0.75328091  0.00972844  1
  K  K19  1  0.49178864  0.74474602  0.49283768  1
  K  K20  1  0.83497497  0.25788146  0.00387048  1
  K  K21  1  0.83887698  0.26652865  0.49681286  1
  K  K22  1  0.82849579  0.74486200  0.00664560  1
  K  K23  1  0.83563000  0.74158833  0.49649410  1
  Na  Na24  1  0.33405464  0.75160484  0.24261116  1
  Na  Na25  1  0.66780286  0.08139989  0.24828241  1
  Na  Na26  1  0.49922021  0.16984984  0.74657825  1
  Li  Li27  1  0.82745048  0.00335747  0.24733355  1
  Li  Li28  1  0.34638173  0.24956808  0.24765203  1
  Li  Li29  1  0.32317249  0.58055971  0.75367282  1
  Li  Li30  1  0.50180194  0.17251976  0.24746977  1
  Li  Li31  1  0.83384280  0.33061942  0.25086960  1
  Mg  Mg32  1  0.83561141  0.49698830  0.25050205  1
  Mg  Mg33  1  0.33287253  0.25034849  0.74931854  1
  Mg  Mg34  1  0.16773441  0.49967972  0.75089294  1
  Mg  Mg35  1  0.66682069  0.25175932  0.74962644  1
  Mg  Mg36  1  0.16955951  0.49899664  0.24962589  1
  Mg  Mg37  1  0.66835348  0.25011904  0.25044495  1
  Mg  Mg38  1  -0.00028634  0.24988134  0.75280022  1
  Mg  Mg39  1  0.32891411  0.74598812  0.74836675  1
  Mg  Mg40  1  0.50271554  0.00397930  0.24693175  1
  Mg  Mg41  1  0.49721603  0.00085645  0.74885421  1
  Mg  Mg42  1  0.66955687  0.75144690  0.24759616  1
  Mg  Mg43  1  0.83362305  0.49858401  0.74934592  1
  Mg  Mg44  1  0.50093589  0.49673044  0.24913167  1
  Mg  Mg45  1  0.66131181  0.74856592  0.75074811  1
  Mg  Mg46  1  0.82974705  -0.00092992  0.75113346  1
  Mg  Mg47  1  0.49614568  0.49948295  0.74979261  1
  Mg  Mg48  1  0.00131060  0.75224549  0.25043239  1
  Mg  Mg49  1  0.16843325  0.00169108  0.25095047  1
  Mg  Mg50  1  0.16473521  -0.00120760  0.75233792  1
  Mg  Mg51  1  -0.00172144  0.74936299  0.74958202  1
  Mg  Mg52  1  -0.00038661  0.25083218  0.25428637  1
  Mg  Mg53  1  0.33234066  0.91445165  0.75097781  1
  Mg  Mg54  1  0.16367395  0.33570726  0.74939063  1
  Mg  Mg55  1  0.83276561  0.83842200  0.24884788  1
  Mg  Mg56  1  0.49929406  0.66691936  0.24746205  1
  Mg  Mg57  1  0.17235634  0.33325732  0.25350646  1
  Mg  Mg58  1  0.33290812  0.08391900  0.74979283  1
  Mg  Mg59  1  0.66758509  0.41306450  0.24913073  1
  Mg  Mg60  1  0.66677672  0.58279902  0.24739271  1
  Mg  Mg61  1  0.66313917  0.08415833  0.74893821  1
  Mg  Mg62  1  0.16565472  0.16395021  0.75119132  1
  Mg  Mg63  1  0.33532189  0.91792980  0.24815045  1
  Mg  Mg64  1  0.83208932  0.16761637  0.25184320  1
  Mg  Mg65  1  0.49977809  0.33329446  0.74843896  1
  Mg  Mg66  1  0.00136860  0.58414297  0.74878412  1
  Mg  Mg67  1  0.16905455  0.83205670  0.75289114  1
  Mg  Mg68  1  0.66194095  0.91534524  0.74935584  1
  Mg  Mg69  1  0.83181123  0.66562747  0.75092952  1
  Mg  Mg70  1  0.33836422  0.08819482  0.24887502  1
  Mg  Mg71  1  0.50171832  0.83598197  0.24572309  1
  Mg  Mg72  1  0.17001688  0.16807201  0.25158218  1
  Mg  Mg73  1  0.83408255  0.66669361  0.24889277  1
  Mg  Mg74  1  0.33624975  0.41136888  0.25133708  1
  Mg  Mg75  1  0.00301886  0.58475083  0.25212008  1
  Mg  Mg76  1  0.49553209  0.83304227  0.74934214  1
  Mg  Mg77  1  0.82979811  0.83343521  0.75074640  1
  Mg  Mg78  1  0.00096603  0.08268457  0.75263235  1
  Mg  Mg79  1  0.66881585  0.41600832  0.75067895  1
  Mg  Mg80  1  -0.00315016  0.08357039  0.25314909  1
  Mg  Mg81  1  0.33013112  0.41762429  0.74763971  1
  Mg  Mg82  1  0.83601376  0.33678216  0.75205355  1
  Mg  Mg83  1  0.16961795  0.66192053  0.75113003  1
  Mg  Mg84  1  0.33325966  0.58385658  0.24966814  1
  Mg  Mg85  1  0.49199571  0.66259591  0.74970939  1
  Mg  Mg86  1  0.49888660  0.33086519  0.25069564  1
  Mg  Mg87  1  0.00162158  0.41484522  0.75043926  1
  Mg  Mg88  1  0.00289210  0.41473153  0.25428962  1
  Mg  Mg89  1  -0.00215386  0.91983512  0.25149503  1
  Mg  Mg90  1  0.83209377  0.16552811  0.75182408  1
  Mg  Mg91  1  0.00017916  0.91535595  0.75354432  1
  Mg  Mg92  1  0.16806438  0.83565018  0.25002536  1
  Mg  Mg93  1  0.66981087  0.91861993  0.24497352  1
  Mg  Mg94  1  0.16884235  0.66723082  0.24922163  1
  Mg  Mg95  1  0.66444587  0.58318120  0.75138112  1
  Fe  Fe96  1  0.35906094  0.83758336  0.10760876  1
  Fe  Fe97  1  0.69867949  0.83359302  0.10887048  1
  Fe  Fe98  1  0.13836383  0.58737315  0.89311418  1
  Fe  Fe99  1  0.52713529  0.41220155  0.10896081  1
  Fe  Fe100  1  0.18681467  0.58436930  0.60685888  1
  Fe  Fe101  1  0.47618430  0.41978204  0.39275714  1
  Fe  Fe102  1  0.31320920  0.83186751  0.88980238  1
  Fe  Fe103  1  0.86196522  0.42071255  0.60876107  1
  Fe  Fe104  1  0.02508670  0.32277969  0.60845148  1
  Fe  Fe105  1  0.19018427  0.58284798  0.11056499  1
  Fe  Fe106  1  0.35357178  0.32796649  0.10809834  1
  Fe  Fe107  1  0.14697750  0.08245048  0.89173465  1
  Fe  Fe108  1  0.14252681  0.41847370  0.39121231  1
  Fe  Fe109  1  0.31618830  0.66499776  0.89108151  1
  Fe  Fe110  1  0.80642643  0.42102013  0.89188336  1
  Fe  Fe111  1  0.14600139  0.41165287  0.89288543  1
  Fe  Fe112  1  0.19457449  0.40958263  0.60719655  1
  Si  Si113  1  0.68800483  0.16591750  0.61376409  1
  Si  Si114  1  0.31469751  0.32888436  0.88442345  1
  Si  Si115  1  0.80661348  0.41821158  0.38390463  1
  Si  Si116  1  0.80162701  0.91448572  0.88524364  1
  Si  Si117  1  0.80835803  0.91916991  0.38586919  1
  Si  Si118  1  0.47632806  0.59111487  0.38804583  1
  Si  Si119  1  0.19012064  0.91549955  0.61376861  1
  Si  Si120  1  0.52208969  0.91819138  0.61181890  1
  Si  Si121  1  0.97014484  0.83640137  0.88515697  1
  Si  Si122  1  0.52227629  0.08937777  0.11415557  1
  Si  Si123  1  0.36714148  0.33052501  0.61116012  1
  Si  Si124  1  0.70133049  0.33444821  0.11346589  1
  Si  Si125  1  0.18635461  0.08161491  0.11624648  1
  Si  Si126  1  0.31088064  0.16048963  0.38607233  1
  Si  Si127  1  0.35434596  0.16491630  0.61248877  1
  Si  Si128  1  0.02353467  0.16638612  0.11801609  1
  Si  Si129  1  0.01837849  0.67461672  0.61093391  1
  Si  Si130  1  0.14085718  0.91802797  0.38735985  1
  Si  Si131  1  0.47816977  0.08312211  0.88257892  1
  Si  Si132  1  0.36318566  0.66883621  0.60946905  1
  Si  Si133  1  0.47644898  0.92286166  0.88522021  1
  Si  Si134  1  0.52652133  0.58375135  0.11335120  1
  Si  Si135  1  0.86364569  0.58087486  0.11612125  1
  Si  Si136  1  0.36307344  0.66152019  0.11190225  1
  Si  Si137  1  0.30890752  0.32753424  0.39064722  1
  Si  Si138  1  0.52350882  0.08096025  0.61260626  1
  Si  Si139  1  0.63867247  0.33182517  0.88696132  1
  Si  Si140  1  0.02293743  0.67304037  0.11510011  1
  Si  Si141  1  0.14047595  0.91074298  0.88899758  1
  Si  Si142  1  0.14376521  0.59219101  0.38852415  1
  Si  Si143  1  0.97381111  0.66993247  0.38613853  1
  Si  Si144  1  0.64548684  0.16825930  0.38542600  1
  Si  Si145  1  0.96652524  0.67192638  0.88615093  1
  Si  Si146  1  0.18739626  0.41515045  0.11419494  1
  Si  Si147  1  0.31677341  0.16684367  0.88671650  1
  Si  Si148  1  0.47556083  0.41217046  0.88205773  1
  Si  Si149  1  0.35086897  0.16045238  0.11108349  1
  Si  Si150  1  0.85299813  0.59101833  0.61201317  1
  Si  Si151  1  0.86900678  0.41618493  0.11855623  1
  Si  Si152  1  0.52601559  0.58112904  0.61419093  1
  Si  Si153  1  0.47719913  0.57456520  0.88623906  1
  Si  Si154  1  0.96922945  0.15980971  0.88849428  1
  Si  Si155  1  0.80855723  0.58389842  0.38476485  1
  Si  Si156  1  0.80475360  0.59128179  0.88649582  1
  Si  Si157  1  0.30834033  0.84115479  0.38576952  1
  Si  Si158  1  0.64411619  0.67036587  0.38332392  1
  Si  Si159  1  0.01965018  0.83978319  0.61498962  1
  Si  Si160  1  0.63533350  0.83219416  0.88443204  1
  Si  Si161  1  0.02870822  0.32931911  0.11910144  1
  Si  Si162  1  0.85064628  0.07823783  0.61581770  1
  Si  Si163  1  0.01699232  0.15505483  0.61223758  1
  Si  Si164  1  0.97259830  0.33314255  0.38845158  1
  Si  Si165  1  0.86641188  0.92013608  0.11372782  1
  Si  Si166  1  0.69424167  0.33095689  0.61332410  1
  Si  Si167  1  0.69533376  0.66154117  0.11238842  1
  Si  Si168  1  0.80079275  0.08023334  0.88587064  1
  Si  Si169  1  0.64235098  0.16779155  0.88371499  1
  Si  Si170  1  0.64574235  0.33157902  0.38945555  1
  Si  Si171  1  0.69383336  0.17075664  0.11462442  1
  Si  Si172  1  0.35808408  0.83390729  0.61165557  1
  Si  Si173  1  0.47846623  0.91876006  0.38522841  1
  Si  Si174  1  0.02633634  0.83706774  0.11771196  1
  Si  Si175  1  0.30844855  0.67430480  0.38486379  1
  Si  Si176  1  0.53001331  0.92361442  0.10761880  1
  Si  Si177  1  0.18830853  0.91901714  0.11385760  1
  Si  Si178  1  0.68555582  0.83211537  0.61424459  1
  Si  Si179  1  0.85833477  0.08514017  0.11689401  1
  Si  Si180  1  0.14179217  0.08382985  0.38763709  1
  Si  Si181  1  0.97338211  0.83589144  0.38664585  1
  Si  Si182  1  0.97109996  0.32620366  0.89252181  1
  Si  Si183  1  0.53090417  0.41512658  0.61639720  1
  Si  Si184  1  0.47937086  0.08305444  0.38541484  1
  Si  Si185  1  0.85054344  0.91512253  0.61553222  1
  Si  Si186  1  0.81135315  0.08397569  0.38661301  1
  Si  Si187  1  0.63425512  0.66595738  0.88501200  1
  Si  Si188  1  0.97491933  0.16644190  0.38903853  1
  Si  Si189  1  0.68727423  0.66826171  0.61546211  1
  Si  Si190  1  0.64358712  0.83580653  0.38365768  1
  Si  Si191  1  0.19044551  0.08090618  0.61267381  1
  O  O192  1  0.26976252  0.10309263  0.08540150  1
  O  O193  1  0.26554958  0.12187596  0.58048562  1
  O  O194  1  0.29150453  0.60332447  0.08050677  1
  O  O195  1  0.27965238  0.62888898  0.57328609  1
  O  O196  1  0.60232775  0.13092454  0.08650034  1
  O  O197  1  0.60204573  0.11926763  0.58346179  1
  O  O198  1  0.61326406  0.61076389  0.08690777  1
  O  O199  1  0.60794278  0.61560584  0.58574069  1
  O  O200  1  0.93787296  0.12087005  0.08612323  1
  O  O201  1  0.93664964  0.09768207  0.58770194  1
  O  O202  1  0.93811370  0.62376855  0.08681347  1
  O  O203  1  0.92900756  0.63226121  0.58202694  1
  O  O204  1  0.11155455  0.35408562  0.09018511  1
  O  O205  1  0.12532766  0.33274517  0.57857971  1
  O  O206  1  0.11001647  0.86203715  0.08836817  1
  O  O207  1  0.09842140  0.87669101  0.58444098  1
  O  O208  1  0.44235457  0.35405126  0.06667594  1
  O  O209  1  0.45486470  0.35965440  0.58748081  1
  O  O210  1  0.44837855  0.87829878  0.07236046  1
  O  O211  1  0.43228917  0.87868133  0.58114579  1
  O  O212  1  0.78807417  0.36588005  0.08873090  1
  O  O213  1  0.76885191  0.35820185  0.57713972  1
  O  O214  1  0.79275979  0.86916496  0.07495282  1
  O  O215  1  0.76888855  0.86308369  0.58601591  1
  O  O216  1  0.26463541  0.39292062  0.07790102  1
  O  O217  1  0.29397696  0.38160157  0.57498388  1
  O  O218  1  0.26468698  0.89814105  0.07712171  1
  O  O219  1  0.26545974  0.87236902  0.58387933  1
  O  O220  1  0.62522319  0.38292889  0.07519955  1
  O  O221  1  0.61215791  0.38365045  0.58718652  1
  O  O222  1  0.60971965  0.89430734  0.07560487  1
  O  O223  1  0.60162800  0.87996061  0.58367704  1
  O  O224  1  0.94883146  0.38171371  0.08869596  1
  O  O225  1  0.94638096  0.38882099  0.56666860  1
  O  O226  1  0.95420541  0.89580118  0.08708826  1
  O  O227  1  0.93435746  0.88878553  0.58627488  1
  O  O228  1  0.10438983  0.13377688  0.08795155  1
  O  O229  1  0.09785121  0.11630140  0.58396303  1
  O  O230  1  0.10138931  0.64992064  0.08156675  1
  O  O231  1  0.09270813  0.64712473  0.57474295  1
  O  O232  1  0.43345312  0.12896225  0.07992812  1
  O  O233  1  0.43278697  0.12116996  0.58591476  1
  O  O234  1  0.45400481  0.64392000  0.08646167  1
  O  O235  1  0.44597388  0.63189014  0.58245530  1
  O  O236  1  0.76931594  0.12618683  0.08468205  1
  O  O237  1  0.76825343  0.12848862  0.58521308  1
  O  O238  1  0.77496932  0.62126193  0.08565321  1
  O  O239  1  0.77092701  0.64561325  0.58610038  1
  O  O240  1  0.06691254  0.12637491  0.41822824  1
  O  O241  1  0.04641115  0.10919708  0.92168169  1
  O  O242  1  0.06480675  0.63421941  0.41658703  1
  O  O243  1  0.03522607  0.61672169  0.92178691  1
  O  O244  1  0.39964901  0.11717780  0.41725724  1
  O  O245  1  0.39718132  0.11154187  0.91363150  1
  O  O246  1  0.39999118  0.63713105  0.41568115  1
  O  O247  1  0.39844044  0.59277582  0.92110972  1
  O  O248  1  0.73227766  0.12103390  0.41682160  1
  O  O249  1  0.72077004  0.11355459  0.91578966  1
  O  O250  1  0.73182864  0.62581211  0.41401553  1
  O  O251  1  0.72027693  0.62154079  0.91401453  1
  O  O252  1  0.23189799  0.35788193  0.42463474  1
  O  O253  1  0.23650123  0.34638697  0.92047201  1
  O  O254  1  0.23247739  0.88078924  0.41914271  1
  O  O255  1  0.20699281  0.84832019  0.91584041  1
  O  O256  1  0.57574848  0.36756535  0.42686240  1
  O  O257  1  0.54875948  0.35267685  0.91014597  1
  O  O258  1  0.56491486  0.87202017  0.41522794  1
  O  O259  1  0.55688905  0.86835341  0.91285114  1
  O  O260  1  0.89066166  0.37145658  0.41299734  1
  O  O261  1  0.89110557  0.35518875  0.92425214  1
  O  O262  1  0.89854317  0.87776388  0.41760964  1
  O  O263  1  0.88678779  0.86824352  0.91325494  1
  O  O264  1  0.05342670  0.37620855  0.42606682  1
  O  O265  1  0.05468840  0.36890513  0.92638162  1
  O  O266  1  0.06444660  0.87544568  0.41649108  1
  O  O267  1  0.04785059  0.89052905  0.91242650  1
  O  O268  1  0.39422906  0.36772666  0.42738128  1
  O  O269  1  0.39157205  0.38704274  0.91037642  1
  O  O270  1  0.39859198  0.88255122  0.41588607  1
  O  O271  1  0.39366864  0.90694443  0.91578469  1
  O  O272  1  0.73277226  0.37899855  0.41680738  1
  O  O273  1  0.71029592  0.38566072  0.92361005  1
  O  O274  1  0.73066154  0.87985694  0.41658800  1
  O  O275  1  0.72237093  0.87729343  0.91297673  1
  O  O276  1  0.23452443  0.11889063  0.41859566  1
  O  O277  1  0.23891361  0.14388016  0.92249338  1
  O  O278  1  0.22920391  0.64125536  0.41658293  1
  O  O279  1  0.21782822  0.65614655  0.92497310  1
  O  O280  1  0.56742151  0.12679506  0.41606665  1
  O  O281  1  0.55720393  0.13836166  0.90887426  1
  O  O282  1  0.56431056  0.63912495  0.41430887  1
  O  O283  1  0.55830134  0.62898421  0.91596175  1
  O  O284  1  0.90242334  0.12222515  0.42123029  1
  O  O285  1  0.88402595  0.12737962  0.91503030  1
  O  O286  1  0.89653502  0.62831493  0.41458918  1
  O  O287  1  0.87454661  0.65543097  0.90901251  1
  O  O288  1  0.15429728  0.00078371  0.08980838  1
  O  O289  1  0.18692508  -0.00244136  0.58253244  1
  O  O290  1  0.14596061  0.49155060  0.08716718  1
  O  O291  1  0.16104435  0.49656841  0.56705863  1
  O  O292  1  0.51815248  0.00843671  0.08083754  1
  O  O293  1  0.51387660  -0.00059836  0.57984496  1
  O  O294  1  0.50137402  0.50767656  0.07859350  1
  O  O295  1  0.51319409  0.49787784  0.58694272  1
  O  O296  1  0.84884022  0.00341814  0.08611348  1
  O  O297  1  0.82418488  -0.00377343  0.58751613  1
  O  O298  1  0.85593064  0.49838531  0.08742893  1
  O  O299  1  0.82937260  0.51521723  0.57645941  1
  O  O300  1  0.00501377  0.24804075  0.08903382  1
  O  O301  1  -0.01108666  0.22852068  0.57494092  1
  O  O302  1  -0.00468031  0.75671107  0.09056903  1
  O  O303  1  -0.00180612  0.75976901  0.58427048  1
  O  O304  1  0.32173879  0.23496215  0.07399723  1
  O  O305  1  0.35386397  0.24612702  0.58201477  1
  O  O306  1  0.33410361  0.74134015  0.08411600  1
  O  O307  1  0.35837729  0.75376150  0.57902745  1
  O  O308  1  0.69133489  0.25137010  0.08139038  1
  O  O309  1  0.67016050  0.24740744  0.58583988  1
  O  O310  1  0.68248043  0.73838202  0.07552441  1
  O  O311  1  0.66422966  0.75045845  0.58610666  1
  O  O312  1  0.14355168  0.00060322  0.41764838  1
  O  O313  1  0.16969173  -0.01211333  0.92216867  1
  O  O314  1  0.15769102  0.51450392  0.42207218  1
  O  O315  1  0.16955189  0.49973707  0.93284219  1
  O  O316  1  0.49254945  0.00010634  0.41821227  1
  O  O317  1  0.51136509  0.00374281  0.91159784  1
  O  O318  1  0.48836170  0.51567691  0.42685972  1
  O  O319  1  0.50923604  0.49167142  0.91006901  1
  O  O320  1  0.81731252  0.00067175  0.41815319  1
  O  O321  1  0.81386060  -0.00303093  0.91399097  1
  O  O322  1  0.81722361  0.50181298  0.41448539  1
  O  O323  1  0.83299950  0.51628436  0.92272259  1
  O  O324  1  0.32035278  0.24120423  0.41651546  1
  O  O325  1  0.35193772  0.24788191  0.90869849  1
  O  O326  1  0.31811762  0.75830817  0.41410291  1
  O  O327  1  0.36803574  0.75058286  0.92381315  1
  O  O328  1  0.66093563  0.24844718  0.42041787  1
  O  O329  1  0.66220749  0.24847964  0.91425344  1
  O  O330  1  0.65895168  0.75314086  0.41337185  1
  O  O331  1  0.64823308  0.74967740  0.91226150  1
  O  O332  1  0.97719002  0.24866188  0.41722201  1
  O  O333  1  0.98273035  0.24088505  0.91799836  1
  O  O334  1  0.97543895  0.75310075  0.41562516  1
  O  O335  1  0.98841813  0.75539503  0.91385136  1
  O  O336  1  0.20661451  0.08336648  0.19658719  1
  O  O337  1  0.20949461  0.08051155  0.69261789  1
  O  O338  1  0.21063959  0.58443310  0.20273952  1
  O  O339  1  0.20545229  0.58207117  0.69687742  1
  O  O340  1  0.53477861  0.08489477  0.19245379  1
  O  O341  1  0.54618192  0.07503912  0.69159719  1
  O  O342  1  0.54630992  0.58332139  0.19492770  1
  O  O343  1  0.54312337  0.58377074  0.69444246  1
  O  O344  1  0.87911557  0.08708247  0.19622916  1
  O  O345  1  0.86945177  0.08027327  0.69621114  1
  O  O346  1  0.87950138  0.58356597  0.19677217  1
  O  O347  1  0.87212963  0.58815610  0.69308908  1
  O  O348  1  0.04342014  0.33001461  0.19899781  1
  O  O349  1  0.04026902  0.32806037  0.70109969  1
  O  O350  1  0.04320785  0.83743276  0.19844832  1
  O  O351  1  0.03871168  0.83756452  0.69503935  1
  O  O352  1  0.37922981  0.33370223  0.19826515  1
  O  O353  1  0.37890884  0.32972794  0.69161197  1
  O  O354  1  0.38494760  0.84499586  0.19777938  1
  O  O355  1  0.37794494  0.83619666  0.69135600  1
  O  O356  1  0.71115043  0.33386752  0.19323191  1
  O  O357  1  0.71188409  0.33117141  0.69408416  1
  O  O358  1  0.71505731  0.83177806  0.20041375  1
  O  O359  1  0.70485176  0.83396320  0.69454168  1
  O  O360  1  0.21127698  0.41461816  0.19546809  1
  O  O361  1  0.21150255  0.41423479  0.69895505  1
  O  O362  1  0.20804792  0.91867417  0.19503296  1
  O  O363  1  0.20660413  0.91729254  0.69351009  1
  O  O364  1  0.54909989  0.41604269  0.20092544  1
  O  O365  1  0.54719643  0.41750908  0.69655733  1
  O  O366  1  0.54611267  0.91962761  0.18921513  1
  O  O367  1  0.54079371  0.91623700  0.69208213  1
  O  O368  1  0.88481618  0.42006789  0.19801088  1
  O  O369  1  0.87962849  0.41673264  0.70095234  1
  O  O370  1  0.88199457  0.91489519  0.19377793  1
  O  O371  1  0.87001325  0.91510651  0.69575705  1
  O  O372  1  0.04286937  0.16437233  0.19824690  1
  O  O373  1  0.03784214  0.16027071  0.69288983  1
  O  O374  1  0.04005491  0.66957783  0.19627188  1
  O  O375  1  0.03522454  0.67167885  0.69136230  1
  O  O376  1  0.37069950  0.16301164  0.19031398  1
  O  O377  1  0.36492320  0.16441799  0.69144776  1
  O  O378  1  0.38318763  0.65741095  0.19258398  1
  O  O379  1  0.38094207  0.67394017  0.68888167  1
  O  O380  1  0.71632852  0.17398184  0.19325605  1
  O  O381  1  0.70831580  0.16349586  0.69403985  1
  O  O382  1  0.71392667  0.66582910  0.19358735  1
  O  O383  1  0.70548560  0.66871095  0.69584957  1
  O  O384  1  0.12382750  0.08323818  0.30781748  1
  O  O385  1  0.12143545  0.08095011  0.79924243  1
  O  O386  1  0.12167024  0.59051071  0.30815927  1
  O  O387  1  0.11742265  0.58525568  0.80010099  1
  O  O388  1  0.45708948  0.07889893  0.30690111  1
  O  O389  1  0.45365073  0.07753538  0.80318327  1
  O  O390  1  0.45948245  0.58690181  0.30773896  1
  O  O391  1  0.46303939  0.58086582  0.80605875  1
  O  O392  1  0.80130126  0.08499144  0.30857592  1
  O  O393  1  0.78513060  0.07983956  0.80517862  1
  O  O394  1  0.79195295  0.58506051  0.30464165  1
  O  O395  1  0.78585417  0.58660849  0.80515246  1
  O  O396  1  0.28978671  0.33393830  0.31077268  1
  O  O397  1  0.29188016  0.33064055  0.80367931  1
  O  O398  1  0.28539613  0.84488635  0.30709336  1
  O  O399  1  0.28989036  0.83309383  0.79641251  1
  O  O400  1  0.62885761  0.33286629  0.30937972  1
  O  O401  1  0.62534445  0.33263951  0.80595610  1
  O  O402  1  0.62573320  0.83491028  0.30409640  1
  O  O403  1  0.62005718  0.83365403  0.80354981  1
  O  O404  1  0.96204054  0.33255335  0.30879222  1
  O  O405  1  0.95393073  0.32788811  0.81114131  1
  O  O406  1  0.95695010  0.83565908  0.30671228  1
  O  O407  1  0.95084667  0.83503127  0.80417405  1
  O  O408  1  0.12344231  0.41770786  0.29975917  1
  O  O409  1  0.12015022  0.41669002  0.80102160  1
  O  O410  1  0.12364553  0.91810965  0.30745466  1
  O  O411  1  0.12114937  0.91480045  0.80662948  1
  O  O412  1  0.45761311  0.41831609  0.30248194  1
  O  O413  1  0.45739698  0.41451344  0.80159733  1
  O  O414  1  0.45991495  0.91885880  0.30592136  1
  O  O415  1  0.45938164  0.91771010  0.80361727  1
  O  O416  1  0.78778568  0.42151194  0.30468407  1
  O  O417  1  0.78624824  0.41839887  0.80020437  1
  O  O418  1  0.79168716  0.91546131  0.30710212  1
  O  O419  1  0.78446986  0.91549858  0.80444620  1
  O  O420  1  0.28804342  0.15757155  0.30727775  1
  O  O421  1  0.29219438  0.16311145  0.80561475  1
  O  O422  1  0.28825435  0.66678194  0.30633910  1
  O  O423  1  0.28927490  0.66891461  0.79940800  1
  O  O424  1  0.62712604  0.17261934  0.30758114  1
  O  O425  1  0.63345550  0.16658019  0.80448327  1
  O  O426  1  0.62858549  0.66778758  0.30334031  1
  O  O427  1  0.61864731  0.66711911  0.80421588  1
  O  O428  1  0.95918059  0.16504885  0.30920950  1
  O  O429  1  0.95236277  0.16053869  0.80705852  1
  O  O430  1  0.95625361  0.66949561  0.30592349  1
  O  O431  1  0.95193530  0.67128381  0.80465401  1
  F  F432  1  0.04632034  0.00181067  0.20464785  1
  F  F433  1  0.04020705  -0.00389236  0.70162995  1
  F  F434  1  0.04346592  0.50312538  0.20487326  1
  F  F435  1  0.03795765  0.50069281  0.69912071  1
  F  F436  1  0.37832729  0.00201223  0.20290964  1
  F  F437  1  0.37672476  -0.00193427  0.69883254  1
  F  F438  1  0.37916369  0.50055273  0.20461045  1
  F  F439  1  0.38259092  0.49451200  0.69829910  1
  F  F440  1  0.71750441  -0.00905657  0.19409247  1
  F  F441  1  0.70924340  -0.00236022  0.70074940  1
  F  F442  1  0.71593406  0.50166973  0.20137561  1
  F  F443  1  0.70905462  0.50368668  0.70041060  1
  F  F444  1  0.20413346  0.24915853  0.20360212  1
  F  F445  1  0.21056465  0.24548954  0.70451424  1
  F  F446  1  0.19652072  0.75330018  0.19974775  1
  F  F447  1  0.20639734  0.75247658  0.69645012  1
  F  F448  1  0.55158130  0.25538404  0.20030288  1
  F  F449  1  0.55234628  0.25869302  0.69709020  1
  F  F450  1  0.55003667  0.75047304  0.19995430  1
  F  F451  1  0.54448286  0.75153810  0.70007886  1
  F  F452  1  0.88440445  0.24543332  0.20365473  1
  F  F453  1  0.87703719  0.24609375  0.70491878  1
  F  F454  1  0.88030707  0.75124740  0.20370354  1
  F  F455  1  0.87297480  0.75260408  0.70147459  1
  F  F456  1  0.28834613  0.00075259  0.29849488  1
  F  F457  1  0.28706684  -0.00075307  0.79492655  1
  F  F458  1  0.29048738  0.49896444  0.30022997  1
  F  F459  1  0.28912179  0.49551432  0.79987029  1
  F  F460  1  0.61862093  -0.01097824  0.30094493  1
  F  F461  1  0.62071783  -0.00143310  0.79692293  1
  F  F462  1  0.62610205  0.50338095  0.29931579  1
  F  F463  1  0.62093617  0.50032372  0.79710697  1
  F  F464  1  0.96455700  -0.00028559  0.30460260  1
  F  F465  1  0.94924597  -0.00217171  0.79798085  1
  F  F466  1  0.95555168  0.50332086  0.30194718  1
  F  F467  1  0.95213101  0.50499087  0.79792455  1
  F  F468  1  0.12122370  0.24646193  0.30281097  1
  F  F469  1  0.11980686  0.24321407  0.79947338  1
  F  F470  1  0.12004445  0.75397144  0.30137578  1
  F  F471  1  0.11652454  0.75135672  0.79408282  1
  F  F472  1  0.46040707  0.24962250  0.30147508  1
  F  F473  1  0.45150436  0.25694542  0.79778639  1
  F  F474  1  0.47161975  0.75165825  0.30058869  1
  F  F475  1  0.45542254  0.75061009  0.79491238  1
  F  F476  1  0.78926282  0.24814296  0.30131750  1
  F  F477  1  0.78681581  0.24773649  0.79776406  1
  F  F478  1  0.79207786  0.74826934  0.30040352  1
  F  F479  1  0.78240610  0.75211747  0.79711047  1
