# generated using pymatgen
data_K24Na3Li5Mg64Fe17Si79(O5F)48
_symmetry_space_group_name_H-M   'P 1'
_cell_length_a   16.08018732
_cell_length_b   18.56928634
_cell_length_c   20.54831512
_cell_angle_alpha   89.99783476
_cell_angle_beta   100.00781900
_cell_angle_gamma   90.00286838
_symmetry_Int_Tables_number   1
_chemical_formula_structural   K24Na3Li5Mg64Fe17Si79(O5F)48
_chemical_formula_sum   'K24 Na3 Li5 Mg64 Fe17 Si79 O240 F48'
_cell_volume   6042.31744077
_cell_formula_units_Z   1
loop_
 _symmetry_equiv_pos_site_id
 _symmetry_equiv_pos_as_xyz
  1  'x, y, z'
loop_
 _atom_site_type_symbol
 _atom_site_label
 _atom_site_symmetry_multiplicity
 _atom_site_fract_x
 _atom_site_fract_y
 _atom_site_fract_z
 _atom_site_occupancy
  K  K0  1  -0.01220923  0.00377862  -0.00701280  1
  K  K1  1  0.00059294  0.00446914  0.49747355  1
  K  K2  1  -0.00714984  0.50154877  0.00025113  1
  K  K3  1  -0.00149857  0.50119898  0.49763471  1
  K  K4  1  0.33175305  -0.00005923  -0.00343361  1
  K  K5  1  0.33293229  -0.00359532  0.50184951  1
  K  K6  1  0.32864507  0.50701650  0.00115979  1
  K  K7  1  0.33784197  0.48911709  0.49259417  1
  K  K8  1  0.67172539  -0.00292713  -0.00213841  1
  K  K9  1  0.67313316  -0.00055445  0.49956137  1
  K  K10  1  0.66819182  0.50544736  -0.00014805  1
  K  K11  1  0.65125192  0.50580665  0.50100046  1
  K  K12  1  0.15307962  0.24267014  -0.00577888  1
  K  K13  1  0.16641132  0.24913162  0.49901734  1
  K  K14  1  0.16580689  0.75494598  0.00045142  1
  K  K15  1  0.16254466  0.75939997  0.49452344  1
  K  K16  1  0.49825040  0.23951618  -0.00689504  1
  K  K17  1  0.49959369  0.24783735  0.50405681  1
  K  K18  1  0.49798005  0.75215913  0.00063384  1
  K  K19  1  0.50475367  0.74765147  0.49429375  1
  K  K20  1  0.84720294  0.23881150  -0.00531921  1
  K  K21  1  0.82960272  0.24271456  0.50267585  1
  K  K22  1  0.84874495  0.75498296  0.00380421  1
  K  K23  1  0.83757554  0.75296516  0.49079141  1
  Na  Na24  1  0.33387095  0.75187845  0.25510887  1
  Na  Na25  1  0.33384791  0.41822758  0.24939389  1
  Na  Na26  1  0.83257487  0.67402622  0.25455072  1
  Li  Li27  1  0.83427155  0.00197069  0.75032480  1
  Li  Li28  1  0.00016851  0.24528540  0.75060215  1
  Li  Li29  1  0.83524209  0.83098190  0.25648770  1
  Li  Li30  1  0.49304356  0.83714321  0.75068141  1
  Li  Li31  1  0.33680702  0.91616451  0.75178106  1
  Mg  Mg32  1  0.16958662  -0.00018819  0.75354768  1
  Mg  Mg33  1  0.33392920  0.24704866  0.74606791  1
  Mg  Mg34  1  0.83340511  0.49940134  0.75207407  1
  Mg  Mg35  1  0.33283520  0.25058318  0.24774589  1
  Mg  Mg36  1  0.66306477  0.75269160  0.75033661  1
  Mg  Mg37  1  0.83228235  -0.00119946  0.25101851  1
  Mg  Mg38  1  0.83370803  0.50292235  0.25042660  1
  Mg  Mg39  1  0.16505373  -0.00048652  0.24919191  1
  Mg  Mg40  1  0.49850645  0.50147490  0.24960066  1
  Mg  Mg41  1  0.00116970  0.25106955  0.24561001  1
  Mg  Mg42  1  0.33400776  0.75374404  0.75547035  1
  Mg  Mg43  1  0.16720227  0.50058222  0.75336915  1
  Mg  Mg44  1  -0.00397985  0.75288497  0.25361094  1
  Mg  Mg45  1  0.66714196  0.24889780  0.24869931  1
  Mg  Mg46  1  0.66685557  0.75096404  0.25293494  1
  Mg  Mg47  1  0.66759185  0.24760525  0.74425169  1
  Mg  Mg48  1  0.16780310  0.50221347  0.25312639  1
  Mg  Mg49  1  0.49968201  0.50061907  0.74645687  1
  Mg  Mg50  1  0.49653078  -0.00423574  0.74695114  1
  Mg  Mg51  1  0.49999780  -0.00111273  0.25151918  1
  Mg  Mg52  1  -0.00223611  0.75124404  0.75680259  1
  Mg  Mg53  1  0.49885441  0.33377087  0.74277429  1
  Mg  Mg54  1  0.50068627  0.16491986  0.24981451  1
  Mg  Mg55  1  0.67111667  0.91325245  0.25291823  1
  Mg  Mg56  1  0.16721082  0.83480122  0.25442754  1
  Mg  Mg57  1  0.49937993  0.33366129  0.24568536  1
  Mg  Mg58  1  0.33304236  0.08222431  0.74790019  1
  Mg  Mg59  1  0.00013759  0.08558325  0.24738234  1
  Mg  Mg60  1  -0.00092892  0.08482253  0.75144359  1
  Mg  Mg61  1  0.33476900  0.08349835  0.24794329  1
  Mg  Mg62  1  0.00368129  0.41822285  0.24806993  1
  Mg  Mg63  1  0.83463458  0.16366692  0.74680922  1
  Mg  Mg64  1  0.33485999  0.91549848  0.25395831  1
  Mg  Mg65  1  0.00136680  0.41340299  0.75188024  1
  Mg  Mg66  1  0.83448715  0.83727241  0.75526141  1
  Mg  Mg67  1  0.16805668  0.66694021  0.75616787  1
  Mg  Mg68  1  0.83537413  0.33475493  0.24642506  1
  Mg  Mg69  1  0.16887896  0.83528137  0.75635516  1
  Mg  Mg70  1  0.83561927  0.33064777  0.74825372  1
  Mg  Mg71  1  0.66697740  0.41674043  0.24675883  1
  Mg  Mg72  1  0.50226818  0.66677836  0.25435408  1
  Mg  Mg73  1  -0.00158423  0.91547438  0.25358204  1
  Mg  Mg74  1  0.83450616  0.66730375  0.75461687  1
  Mg  Mg75  1  0.50228274  0.83296987  0.25355180  1
  Mg  Mg76  1  0.83425307  0.16507353  0.24680009  1
  Mg  Mg77  1  0.66450523  0.41524150  0.74475655  1
  Mg  Mg78  1  0.66471939  0.58540255  0.74925566  1
  Mg  Mg79  1  -0.00181575  0.91774244  0.75639860  1
  Mg  Mg80  1  0.66902854  0.58580514  0.25178599  1
  Mg  Mg81  1  0.16845099  0.33675221  0.24740254  1
  Mg  Mg82  1  0.33410168  0.58462720  0.25255468  1
  Mg  Mg83  1  0.33264584  0.58655881  0.75214155  1
  Mg  Mg84  1  0.16642243  0.66833350  0.25381344  1
  Mg  Mg85  1  0.66874101  0.08308901  0.25036482  1
  Mg  Mg86  1  0.33339414  0.41543307  0.74680036  1
  Mg  Mg87  1  0.16697213  0.16624497  0.75129079  1
  Mg  Mg88  1  0.16668352  0.33136437  0.75153997  1
  Mg  Mg89  1  0.16558705  0.16653183  0.24635424  1
  Mg  Mg90  1  0.66506384  0.91595961  0.75160343  1
  Mg  Mg91  1  0.49705484  0.67016226  0.74914145  1
  Mg  Mg92  1  0.66841101  0.08095209  0.74518265  1
  Mg  Mg93  1  0.00067263  0.58494287  0.75704146  1
  Mg  Mg94  1  0.49866061  0.16245334  0.74483609  1
  Mg  Mg95  1  0.00036681  0.58644002  0.25376933  1
  Fe  Fe96  1  0.69551174  0.16295809  0.60700199  1
  Fe  Fe97  1  0.14203764  0.92222492  0.39181653  1
  Fe  Fe98  1  0.02501881  0.16649650  0.10609869  1
  Fe  Fe99  1  0.31186748  0.16743744  0.88853056  1
  Fe  Fe100  1  0.64516469  0.83032517  0.39224617  1
  Fe  Fe101  1  0.52326904  0.42119367  0.60609444  1
  Fe  Fe102  1  0.47287357  0.08454374  0.38841884  1
  Fe  Fe103  1  0.97860439  0.83844188  0.89765436  1
  Fe  Fe104  1  0.30759297  0.66860170  0.39164741  1
  Fe  Fe105  1  0.80949476  0.08609350  0.38818141  1
  Fe  Fe106  1  0.97417625  0.66277290  0.89623735  1
  Fe  Fe107  1  0.97153611  0.16492218  0.88760229  1
  Fe  Fe108  1  0.97420553  0.66463857  0.39345239  1
  Fe  Fe109  1  0.35622567  0.16207092  0.60638002  1
  Fe  Fe110  1  0.14779347  0.41691864  0.38958500  1
  Fe  Fe111  1  0.64355225  0.65878064  0.39317203  1
  Fe  Fe112  1  0.30898843  0.66823263  0.89415672  1
  Si  Si113  1  0.14247743  0.58470944  0.39149102  1
  Si  Si114  1  0.63568865  0.16593420  0.88183602  1
  Si  Si115  1  0.02585181  0.83369692  0.11737712  1
  Si  Si116  1  0.97524519  0.17283521  0.38352316  1
  Si  Si117  1  0.97516637  0.33533855  0.38251580  1
  Si  Si118  1  0.79921962  0.08234645  0.88553275  1
  Si  Si119  1  0.97484252  0.33851701  0.88711800  1
  Si  Si120  1  0.80407733  0.41518213  0.88413483  1
  Si  Si121  1  0.85443144  0.07928322  0.10958461  1
  Si  Si122  1  0.02635894  0.66695877  0.11600494  1
  Si  Si123  1  0.79864601  0.58148230  0.88889347  1
  Si  Si124  1  0.02928134  0.33283852  0.61640983  1
  Si  Si125  1  0.19500491  0.91247559  0.11494168  1
  Si  Si126  1  0.19095208  0.42060691  0.11088376  1
  Si  Si127  1  0.69091865  0.16712475  0.11061993  1
  Si  Si128  1  0.14884542  0.92177933  0.89127310  1
  Si  Si129  1  0.36018931  0.16679300  0.11090095  1
  Si  Si130  1  0.69490148  0.66898749  0.61701557  1
  Si  Si131  1  0.52344611  0.41536192  0.10959526  1
  Si  Si132  1  0.86784548  0.08168738  0.61144775  1
  Si  Si133  1  0.47650529  0.91689336  0.88384736  1
  Si  Si134  1  0.69140455  0.33368291  0.10999826  1
  Si  Si135  1  0.47720802  0.07801507  0.88617438  1
  Si  Si136  1  0.18895908  0.07745071  0.61193725  1
  Si  Si137  1  0.85857488  0.58170585  0.61748233  1
  Si  Si138  1  0.02345947  0.34000880  0.10736814  1
  Si  Si139  1  0.86095746  0.91602079  0.61770836  1
  Si  Si140  1  0.30438895  0.16569804  0.38217198  1
  Si  Si141  1  0.52642314  0.91787214  0.11306933  1
  Si  Si142  1  0.14607938  0.41396616  0.88605584  1
  Si  Si143  1  0.19711779  0.07891714  0.10997058  1
  Si  Si144  1  0.47697868  0.91674466  0.38935980  1
  Si  Si145  1  0.52143465  0.59308111  0.61237565  1
  Si  Si146  1  0.35279139  0.83350806  0.61873181  1
  Si  Si147  1  0.63543980  0.66695217  0.88492146  1
  Si  Si148  1  0.36361526  0.83370390  0.11628484  1
  Si  Si149  1  0.14099486  0.57752674  0.89211204  1
  Si  Si150  1  0.86431478  0.41595676  0.61519360  1
  Si  Si151  1  0.31287712  0.83717177  0.89139430  1
  Si  Si152  1  0.02385901  0.83005946  0.61916485  1
  Si  Si153  1  0.52169901  0.91005172  0.61608294  1
  Si  Si154  1  0.63811166  0.17060870  0.38542903  1
  Si  Si155  1  0.80583734  0.57208477  0.38988411  1
  Si  Si156  1  0.68894065  0.66729547  0.11309332  1
  Si  Si157  1  0.19304190  0.58618596  0.11396287  1
  Si  Si158  1  0.69326835  0.83513814  0.61679320  1
  Si  Si159  1  0.69033393  0.83217200  0.11422621  1
  Si  Si160  1  0.03166113  0.16622115  0.61519938  1
  Si  Si161  1  0.64499989  0.33355581  0.38147274  1
  Si  Si162  1  0.52731932  0.07499404  0.60868174  1
  Si  Si163  1  0.18636747  0.91392232  0.61882881  1
  Si  Si164  1  0.47083870  0.57641783  0.39049496  1
  Si  Si165  1  0.52684434  0.08414329  0.11208100  1
  Si  Si166  1  0.14101450  0.09117265  0.38428507  1
  Si  Si167  1  0.35365134  0.67086933  0.61567393  1
  Si  Si168  1  0.35168728  0.33377644  0.60808306  1
  Si  Si169  1  0.81039691  0.91981212  0.38855662  1
  Si  Si170  1  0.85610426  0.42102290  0.11102730  1
  Si  Si171  1  0.85777840  0.91378546  0.11691930  1
  Si  Si172  1  0.63926370  0.33003294  0.88142169  1
  Si  Si173  1  0.31282544  0.32626678  0.38452877  1
  Si  Si174  1  0.35675186  0.33176718  0.10987836  1
  Si  Si175  1  0.47743091  0.41812660  0.88196813  1
  Si  Si176  1  0.69564944  0.33644200  0.60835887  1
  Si  Si177  1  0.79875561  0.91538933  0.89030202  1
  Si  Si178  1  0.97447224  0.83588618  0.39186156  1
  Si  Si179  1  0.02498434  0.66536869  0.61948119  1
  Si  Si180  1  0.31138240  0.83996989  0.39154084  1
  Si  Si181  1  0.52566374  0.58187354  0.11226840  1
  Si  Si182  1  0.81013811  0.41126391  0.38175874  1
  Si  Si183  1  0.48005748  0.41112422  0.38194632  1
  Si  Si184  1  0.47523886  0.58056752  0.88577483  1
  Si  Si185  1  0.63642999  0.83101392  0.88583114  1
  Si  Si186  1  0.14323281  0.08460799  0.88852386  1
  Si  Si187  1  0.19036935  0.41952205  0.61540245  1
  Si  Si188  1  0.85800610  0.58565288  0.11449148  1
  Si  Si189  1  0.36339912  0.66569704  0.11668306  1
  Si  Si190  1  0.31468778  0.33649957  0.88553897  1
  Si  Si191  1  0.19016019  0.58443589  0.61675662  1
  O  O192  1  0.27875316  0.11626127  0.08248329  1
  O  O193  1  0.26634541  0.09904444  0.57542105  1
  O  O194  1  0.27042923  0.62905743  0.08619839  1
  O  O195  1  0.27087291  0.61912559  0.58834440  1
  O  O196  1  0.60108918  0.12661829  0.08038142  1
  O  O197  1  0.61035901  0.09622082  0.57787835  1
  O  O198  1  0.60240565  0.62091778  0.08018301  1
  O  O199  1  0.60372994  0.63163468  0.58737455  1
  O  O200  1  0.92451909  0.11619449  0.07308592  1
  O  O201  1  0.94991512  0.11721208  0.58337735  1
  O  O202  1  0.93643563  0.62489485  0.08507959  1
  O  O203  1  0.93855557  0.61949752  0.59025881  1
  O  O204  1  0.09937832  0.38418381  0.07797027  1
  O  O205  1  0.10742931  0.37011522  0.58542357  1
  O  O206  1  0.10405294  0.87224308  0.08688679  1
  O  O207  1  0.10376426  0.86304654  0.58856296  1
  O  O208  1  0.43413797  0.37338551  0.07964681  1
  O  O209  1  0.42904672  0.36364455  0.57403698  1
  O  O210  1  0.43690253  0.87611576  0.08214312  1
  O  O211  1  0.43491630  0.86357854  0.58816114  1
  O  O212  1  0.76730995  0.37681140  0.08112291  1
  O  O213  1  0.78345789  0.36692918  0.58414986  1
  O  O214  1  0.77092388  0.86831167  0.08566816  1
  O  O215  1  0.76858579  0.87823259  0.58794351  1
  O  O216  1  0.26852445  0.37679344  0.08286824  1
  O  O217  1  0.27126237  0.39066581  0.58537995  1
  O  O218  1  0.27013920  0.86851777  0.08525632  1
  O  O219  1  0.26862734  0.88291112  0.58906933  1
  O  O220  1  0.60101322  0.37435955  0.07984667  1
  O  O221  1  0.62227858  0.39282300  0.57698294  1
  O  O222  1  0.60309505  0.87806214  0.08178731  1
  O  O223  1  0.60115777  0.87146635  0.58669202  1
  O  O224  1  0.93460133  0.38603507  0.08028026  1
  O  O225  1  0.94515186  0.38154646  0.58630229  1
  O  O226  1  0.93683266  0.87608823  0.08670539  1
  O  O227  1  0.93571019  0.87173278  0.58785583  1
  O  O228  1  0.11412660  0.12083194  0.07380300  1
  O  O229  1  0.10969662  0.13248024  0.58247273  1
  O  O230  1  0.10248719  0.62673520  0.08394467  1
  O  O231  1  0.10379070  0.63028457  0.58864091  1
  O  O232  1  0.44046333  0.12971326  0.08262276  1
  O  O233  1  0.45070416  0.12721461  0.57431848  1
  O  O234  1  0.43612286  0.62315975  0.08189577  1
  O  O235  1  0.43772328  0.64412761  0.58696376  1
  O  O236  1  0.76382920  0.12257542  0.08127030  1
  O  O237  1  0.78776623  0.12594312  0.57270783  1
  O  O238  1  0.76943876  0.62945275  0.08463703  1
  O  O239  1  0.77032895  0.62471056  0.58839314  1
  O  O240  1  0.05542593  0.11952042  0.41101084  1
  O  O241  1  0.05931504  0.10076278  0.91995028  1
  O  O242  1  0.05619312  0.59442598  0.42279921  1
  O  O243  1  0.05472862  0.58926356  0.92103147  1
  O  O244  1  0.36848166  0.10387914  0.41507407  1
  O  O245  1  0.40084173  0.10334488  0.92280949  1
  O  O246  1  0.38698130  0.59517829  0.42088062  1
  O  O247  1  0.39761698  0.60112048  0.92221258  1
  O  O248  1  0.71000059  0.11428055  0.41810950  1
  O  O249  1  0.71802732  0.11912239  0.91435492  1
  O  O250  1  0.72100670  0.58327068  0.42118001  1
  O  O251  1  0.71359651  0.61309312  0.91462975  1
  O  O252  1  0.23823434  0.35342005  0.42242391  1
  O  O253  1  0.22886642  0.36339643  0.91377452  1
  O  O254  1  0.23266225  0.86236887  0.42823239  1
  O  O255  1  0.23195419  0.87128877  0.92087794  1
  O  O256  1  0.56291454  0.36074725  0.41226001  1
  O  O257  1  0.55886504  0.36561824  0.91083164  1
  O  O258  1  0.54294689  0.85474483  0.42020864  1
  O  O259  1  0.55377629  0.86079516  0.91543947  1
  O  O260  1  0.88369468  0.35122885  0.40751805  1
  O  O261  1  0.89539134  0.37944550  0.91612626  1
  O  O262  1  0.88373522  0.85882784  0.41370523  1
  O  O263  1  0.88223686  0.87539464  0.92907646  1
  O  O264  1  0.04461924  0.39186246  0.41814033  1
  O  O265  1  0.06212513  0.38654387  0.91479318  1
  O  O266  1  0.04550670  0.89448081  0.42555256  1
  O  O267  1  0.07181927  0.89974951  0.92827150  1
  O  O268  1  0.39844699  0.37627367  0.40842305  1
  O  O269  1  0.39277011  0.39509031  0.91189676  1
  O  O270  1  0.38611746  0.90149208  0.41439113  1
  O  O271  1  0.39369903  0.89258588  0.91603730  1
  O  O272  1  0.72427626  0.38728629  0.40972020  1
  O  O273  1  0.72689739  0.37325400  0.91263627  1
  O  O274  1  0.72871480  0.89977629  0.42199638  1
  O  O275  1  0.71691405  0.88035285  0.92004918  1
  O  O276  1  0.21202591  0.15530774  0.40590771  1
  O  O277  1  0.21503815  0.14206897  0.92178568  1
  O  O278  1  0.20572000  0.65021914  0.42159526  1
  O  O279  1  0.21441774  0.63217496  0.92672731  1
  O  O280  1  0.55085810  0.15975958  0.41359140  1
  O  O281  1  0.55734951  0.13295009  0.91406255  1
  O  O282  1  0.54763015  0.62648165  0.42667558  1
  O  O283  1  0.55462014  0.63496922  0.91469112  1
  O  O284  1  0.89623158  0.15322617  0.41890936  1
  O  O285  1  0.88080559  0.12550694  0.92294760  1
  O  O286  1  0.87766542  0.62824988  0.42380006  1
  O  O287  1  0.87759485  0.62548304  0.92771265  1
  O  O288  1  0.19397589  -0.00576351  0.08370751  1
  O  O289  1  0.16102298  -0.00576456  0.58770727  1
  O  O290  1  0.19067848  0.50395692  0.08137851  1
  O  O291  1  0.17199528  0.50234005  0.58767472  1
  O  O292  1  0.51845588  0.00132893  0.08231029  1
  O  O293  1  0.50391786  -0.00945062  0.58418059  1
  O  O294  1  0.51778673  0.49855102  0.08064776  1
  O  O295  1  0.50392742  0.51676373  0.57533496  1
  O  O296  1  0.84042507  -0.00497909  0.08318890  1
  O  O297  1  0.86047139  -0.00325407  0.58549948  1
  O  O298  1  0.84347395  0.50355876  0.08058644  1
  O  O299  1  0.85091236  0.49936672  0.58708283  1
  O  O300  1  0.01291170  0.26197680  0.07255934  1
  O  O301  1  0.01670842  0.25037044  0.58677205  1
  O  O302  1  0.01728745  0.75044844  0.08792223  1
  O  O303  1  0.01048545  0.74709560  0.59046528  1
  O  O304  1  0.34752619  0.24898658  0.07864385  1
  O  O305  1  0.32156767  0.25591323  0.57750372  1
  O  O306  1  0.36157901  0.74962867  0.08918057  1
  O  O307  1  0.33081565  0.75194379  0.58660747  1
  O  O308  1  0.68509617  0.25059280  0.08048066  1
  O  O309  1  0.67534229  0.25805156  0.57481410  1
  O  O310  1  0.67740207  0.74973182  0.08195573  1
  O  O311  1  0.69303221  0.75158996  0.58922491  1
  O  O312  1  0.17123583  0.01731216  0.42198346  1
  O  O313  1  0.18022685  0.00387861  0.91360276  1
  O  O314  1  0.18476275  0.50776415  0.41996640  1
  O  O315  1  0.17347427  0.49419413  0.91473953  1
  O  O316  1  0.51291050  -0.00563749  0.41931267  1
  O  O317  1  0.50714979  -0.00315438  0.91527966  1
  O  O318  1  0.49683556  0.49126196  0.41390070  1
  O  O319  1  0.50768313  0.49828921  0.91081518  1
  O  O320  1  0.84841874  -0.00350173  0.42077536  1
  O  O321  1  0.80146032  -0.00016106  0.91603567  1
  O  O322  1  0.84195987  0.48878108  0.41339081  1
  O  O323  1  0.80393513  0.49669278  0.91499919  1
  O  O324  1  0.34164228  0.24433270  0.41100381  1
  O  O325  1  0.34581793  0.26129925  0.92028041  1
  O  O326  1  0.34794260  0.76170850  0.41878243  1
  O  O327  1  0.33791136  0.76086451  0.92907699  1
  O  O328  1  0.67311368  0.25323254  0.40847800  1
  O  O329  1  0.64946542  0.24857201  0.91232290  1
  O  O330  1  0.67899994  0.74425818  0.43460612  1
  O  O331  1  0.65354854  0.74804561  0.91562319  1
  O  O332  1  1.00672984  0.25454096  0.40861900  1
  O  O333  1  0.98798419  0.26071018  0.92179042  1
  O  O334  1  0.99893434  0.75810857  0.42756242  1
  O  O335  1  1.00477879  0.74926704  0.93756633  1
  O  O336  1  0.21131541  0.08269113  0.19078980  1
  O  O337  1  0.20764391  0.08121959  0.69254698  1
  O  O338  1  0.20806408  0.58324903  0.19343659  1
  O  O339  1  0.20775937  0.58305492  0.69726163  1
  O  O340  1  0.54638722  0.08489800  0.19188101  1
  O  O341  1  0.54293375  0.07975029  0.69046470  1
  O  O342  1  0.54459265  0.58016242  0.19193838  1
  O  O343  1  0.54129465  0.58649541  0.69354874  1
  O  O344  1  0.87525071  0.08429362  0.18995889  1
  O  O345  1  0.88047487  0.08474102  0.69110375  1
  O  O346  1  0.87825706  0.57792430  0.19304599  1
  O  O347  1  0.87521918  0.58142539  0.69787961  1
  O  O348  1  0.04025598  0.33651932  0.18795711  1
  O  O349  1  0.04691293  0.33676150  0.69590974  1
  O  O350  1  0.04322447  0.83555396  0.19691364  1
  O  O351  1  0.04320897  0.83183274  0.69937954  1
  O  O352  1  0.38040529  0.32712358  0.18886606  1
  O  O353  1  0.37427540  0.33475057  0.69011234  1
  O  O354  1  0.38338483  0.84115215  0.19510449  1
  O  O355  1  0.37140270  0.83001548  0.69754518  1
  O  O356  1  0.70899902  0.33373799  0.19017307  1
  O  O357  1  0.71104579  0.33539507  0.69036405  1
  O  O358  1  0.70352711  0.83279261  0.19289919  1
  O  O359  1  0.71039418  0.83357978  0.69710549  1
  O  O360  1  0.20223078  0.41875722  0.18969606  1
  O  O361  1  0.20856081  0.41802630  0.69605256  1
  O  O362  1  0.21282857  0.91565654  0.19478178  1
  O  O363  1  0.20315952  0.91482580  0.69838790  1
  O  O364  1  0.54354060  0.41442885  0.18952081  1
  O  O365  1  0.54391458  0.41849918  0.69818174  1
  O  O366  1  0.54330197  0.91947933  0.19273946  1
  O  O367  1  0.54430993  0.91444560  0.69548719  1
  O  O368  1  0.87433381  0.41760478  0.19109271  1
  O  O369  1  0.87906496  0.41729652  0.69572532  1
  O  O370  1  0.87793877  0.92041941  0.19596211  1
  O  O371  1  0.87856016  0.91404783  0.69720932  1
  O  O372  1  0.04408523  0.16770257  0.19744450  1
  O  O373  1  0.04971926  0.16406676  0.69455846  1
  O  O374  1  0.04458197  0.66511944  0.19547045  1
  O  O375  1  0.04455262  0.66452630  0.69974594  1
  O  O376  1  0.37724504  0.16843513  0.19093566  1
  O  O377  1  0.37985397  0.16528228  0.69789198  1
  O  O378  1  0.38496752  0.66009575  0.19532192  1
  O  O379  1  0.37423814  0.66733431  0.69596485  1
  O  O380  1  0.70763166  0.16925757  0.19055865  1
  O  O381  1  0.71231039  0.16558856  0.69880436  1
  O  O382  1  0.70092089  0.66616923  0.19177284  1
  O  O383  1  0.71176062  0.66649085  0.69760173  1
  O  O384  1  0.12348436  0.08535552  0.30311457  1
  O  O385  1  0.12526615  0.08469508  0.80706812  1
  O  O386  1  0.12282064  0.58322873  0.30893269  1
  O  O387  1  0.12510510  0.58139993  0.81014998  1
  O  O388  1  0.45517816  0.08393525  0.29583442  1
  O  O389  1  0.45935467  0.08098598  0.80571015  1
  O  O390  1  0.45859878  0.58032764  0.30876938  1
  O  O391  1  0.45729287  0.58248320  0.80483677  1
  O  O392  1  0.78870564  0.08640875  0.29577146  1
  O  O393  1  0.78548740  0.08499953  0.80586787  1
  O  O394  1  0.78625173  0.57258093  0.30895868  1
  O  O395  1  0.78699359  0.58262154  0.80790063  1
  O  O396  1  0.28712729  0.32524657  0.30452202  1
  O  O397  1  0.29386083  0.33549550  0.80451426  1
  O  O398  1  0.28531182  0.84395834  0.31090718  1
  O  O399  1  0.28902153  0.83041663  0.81177989  1
  O  O400  1  0.62541115  0.33374911  0.30037158  1
  O  O401  1  0.62356075  0.33189049  0.80140914  1
  O  O402  1  0.62142724  0.83507095  0.29991346  1
  O  O403  1  0.62417695  0.83138090  0.80650608  1
  O  O404  1  0.95701801  0.33536153  0.30084089  1
  O  O405  1  0.95372885  0.33965312  0.80717419  1
  O  O406  1  0.96392910  0.83552059  0.31127337  1
  O  O407  1  0.95496538  0.83373864  0.80528140  1
  O  O408  1  0.12279534  0.41594770  0.29756128  1
  O  O409  1  0.12563339  0.41523168  0.80547360  1
  O  O410  1  0.12099646  0.92046361  0.29981869  1
  O  O411  1  0.12531929  0.91633593  0.81044753  1
  O  O412  1  0.46937206  0.41408382  0.30243217  1
  O  O413  1  0.45673375  0.41663193  0.80176607  1
  O  O414  1  0.45824339  0.91776293  0.30706517  1
  O  O415  1  0.45901251  0.91832432  0.80523116  1
  O  O416  1  0.78981924  0.41340730  0.30070015  1
  O  O417  1  0.78746997  0.41585024  0.80364107  1
  O  O418  1  0.78876736  0.92381780  0.30772467  1
  O  O419  1  0.78355371  0.91032984  0.81057940  1
  O  O420  1  0.28925481  0.16610453  0.30046921  1
  O  O421  1  0.28909155  0.16738141  0.79742247  1
  O  O422  1  0.28366167  0.66025009  0.30162306  1
  O  O423  1  0.28890528  0.66618438  0.80256794  1
  O  O424  1  0.62344939  0.16835630  0.30312403  1
  O  O425  1  0.61889438  0.16683162  0.80182932  1
  O  O426  1  0.62290788  0.66420876  0.30049888  1
  O  O427  1  0.62081484  0.66622754  0.80465339  1
  O  O428  1  0.95485650  0.16998037  0.30224257  1
  O  O429  1  0.95227921  0.16646710  0.79762693  1
  O  O430  1  0.96500739  0.66761315  0.30352931  1
  O  O431  1  0.95363127  0.66590837  0.80341067  1
  F  F432  1  0.04400163  0.00272044  0.19859816  1
  F  F433  1  0.04685173  -0.00167040  0.70642135  1
  F  F434  1  0.04430457  0.50410060  0.20064410  1
  F  F435  1  0.04498168  0.50111893  0.70602192  1
  F  F436  1  0.37835056  -0.00165322  0.19921866  1
  F  F437  1  0.37906214  0.00242808  0.69907481  1
  F  F438  1  0.38397991  0.50807916  0.19691294  1
  F  F439  1  0.37663047  0.50232071  0.70132933  1
  F  F440  1  0.70960987  -0.00103944  0.19853279  1
  F  F441  1  0.70977703  -0.00450499  0.70200653  1
  F  F442  1  0.71215551  0.49880264  0.19799057  1
  F  F443  1  0.71303747  0.50212669  0.70193001  1
  F  F444  1  0.21194532  0.25071157  0.19692208  1
  F  F445  1  0.21099104  0.25350411  0.69954737  1
  F  F446  1  0.19846101  0.75272833  0.19895932  1
  F  F447  1  0.20854529  0.75084599  0.70565373  1
  F  F448  1  0.54684635  0.24936755  0.19811560  1
  F  F449  1  0.54540921  0.24971067  0.69775289  1
  F  F450  1  0.54150470  0.74967850  0.19848537  1
  F  F451  1  0.54767054  0.74467933  0.69933885  1
  F  F452  1  0.87724693  0.25149238  0.19691544  1
  F  F453  1  0.87286044  0.25227358  0.69767140  1
  F  F454  1  0.88519473  0.76044961  0.19605918  1
  F  F455  1  0.87563347  0.74969886  0.70333359  1
  F  F456  1  0.28701289  0.00284590  0.29417037  1
  F  F457  1  0.28798770  0.00389537  0.79881497  1
  F  F458  1  0.28521511  0.50571732  0.29925894  1
  F  F459  1  0.28985780  0.49883276  0.79757534  1
  F  F460  1  0.62122616  0.00150441  0.29494097  1
  F  F461  1  0.61921564  0.00093117  0.79682716  1
  F  F462  1  0.62092769  0.49709273  0.29270858  1
  F  F463  1  0.62235994  0.50129500  0.79699358  1
  F  F464  1  0.95493094  0.00465705  0.29565010  1
  F  F465  1  0.95657568  0.00174781  0.80062727  1
  F  F466  1  0.95372917  0.49729364  0.29572064  1
  F  F467  1  0.95356286  0.49841362  0.80002950  1
  F  F468  1  0.12120467  0.25319218  0.29256672  1
  F  F469  1  0.12764739  0.25100994  0.80011624  1
  F  F470  1  0.11989989  0.75215106  0.29937729  1
  F  F471  1  0.12071003  0.74956638  0.80248590  1
  F  F472  1  0.45572796  0.25105075  0.29340949  1
  F  F473  1  0.45765055  0.25292206  0.79466509  1
  F  F474  1  0.46779970  0.74957322  0.30258564  1
  F  F475  1  0.45407108  0.74464286  0.80217133  1
  F  F476  1  0.78826346  0.25153109  0.29186829  1
  F  F477  1  0.78568091  0.25400266  0.79845271  1
  F  F478  1  0.77955995  0.76023459  0.30460848  1
  F  F479  1  0.78467776  0.74891049  0.79999711  1
