# generated using pymatgen
data_K24Na3Li5Mg64Fe17Si79(O5F)48
_symmetry_space_group_name_H-M   'P 1'
_cell_length_a   16.10457740
_cell_length_b   18.59351039
_cell_length_c   20.55831187
_cell_angle_alpha   89.98980499
_cell_angle_beta   100.03132217
_cell_angle_gamma   89.99289915
_symmetry_Int_Tables_number   1
_chemical_formula_structural   K24Na3Li5Mg64Fe17Si79(O5F)48
_chemical_formula_sum   'K24 Na3 Li5 Mg64 Fe17 Si79 O240 F48'
_cell_volume   6061.88496323
_cell_formula_units_Z   1
loop_
 _symmetry_equiv_pos_site_id
 _symmetry_equiv_pos_as_xyz
  1  'x, y, z'
loop_
 _atom_site_type_symbol
 _atom_site_label
 _atom_site_symmetry_multiplicity
 _atom_site_fract_x
 _atom_site_fract_y
 _atom_site_fract_z
 _atom_site_occupancy
  K  K0  1  0.00110575  0.00706577  0.01074713  1
  K  K1  1  -0.00203960  0.00492162  0.48573607  1
  K  K2  1  0.01096266  0.50154089  0.01033931  1
  K  K3  1  0.01310337  0.48881354  0.49146770  1
  K  K4  1  0.33500696  0.00350025  0.00604730  1
  K  K5  1  0.33375815  0.00805209  0.49096296  1
  K  K6  1  0.33078279  0.50167864  0.00748647  1
  K  K7  1  0.32754076  0.49567982  0.49243213  1
  K  K8  1  0.66763040  -0.00350112  0.00729800  1
  K  K9  1  0.67699970  0.01370845  0.48958775  1
  K  K10  1  0.66229051  0.49245034  0.00213282  1
  K  K11  1  0.66943858  0.49225472  0.49290821  1
  K  K12  1  0.16023601  0.25295424  0.01582998  1
  K  K13  1  0.16445099  0.25133841  0.49329601  1
  K  K14  1  0.17858171  0.74225730  0.01507776  1
  K  K15  1  0.16673923  0.73422654  0.48448865  1
  K  K16  1  0.50546058  0.25417146  0.00239218  1
  K  K17  1  0.50825788  0.25292743  0.49479513  1
  K  K18  1  0.50532721  0.74631574  0.00451895  1
  K  K19  1  0.49580773  0.74892478  0.49120094  1
  K  K20  1  0.83623864  0.25078490  0.00550995  1
  K  K21  1  0.82651856  0.25237388  0.48901716  1
  K  K22  1  0.83231195  0.74597543  0.00913196  1
  K  K23  1  0.83199064  0.75522242  0.48765322  1
  Na  Na24  1  0.00278311  0.75094421  0.25586736  1
  Na  Na25  1  0.83525815  0.17029298  0.25106142  1
  Na  Na26  1  0.16394227  0.17240501  0.24247529  1
  Li  Li27  1  0.16071341  0.00615937  0.24535222  1
  Li  Li28  1  0.16649019  0.50020011  0.24867432  1
  Li  Li29  1  0.33117122  0.41530002  0.74935237  1
  Li  Li30  1  0.16339168  0.33641325  0.24761472  1
  Li  Li31  1  0.66952412  0.41435499  0.25543280  1
  Mg  Mg32  1  0.83309850  0.00034867  0.25110105  1
  Mg  Mg33  1  0.33171674  0.74907761  0.75055397  1
  Mg  Mg34  1  0.66679281  0.25384431  0.25338613  1
  Mg  Mg35  1  0.83263095  0.49941768  0.75138638  1
  Mg  Mg36  1  0.16726292  0.49923124  0.75056219  1
  Mg  Mg37  1  0.66870414  0.74846579  0.25157875  1
  Mg  Mg38  1  0.83289970  0.00156133  0.75104788  1
  Mg  Mg39  1  0.83502310  0.50100085  0.25357201  1
  Mg  Mg40  1  0.49531476  0.49838179  0.75492942  1
  Mg  Mg41  1  0.33299466  0.74873315  0.24592302  1
  Mg  Mg42  1  0.49923726  0.00053519  0.74790021  1
  Mg  Mg43  1  0.32940477  0.25034026  0.24580791  1
  Mg  Mg44  1  0.66686348  0.25087099  0.75034817  1
  Mg  Mg45  1  0.00153214  0.25298987  0.24763570  1
  Mg  Mg46  1  0.16587483  -0.00084212  0.74753225  1
  Mg  Mg47  1  -0.00284075  0.74849717  0.75198038  1
  Mg  Mg48  1  0.50092083  0.49680700  0.25138370  1
  Mg  Mg49  1  0.00078986  0.24980793  0.74767275  1
  Mg  Mg50  1  0.33387163  0.25151544  0.74489114  1
  Mg  Mg51  1  0.50133218  0.00165482  0.24981942  1
  Mg  Mg52  1  0.66298851  0.74932837  0.75672106  1
  Mg  Mg53  1  0.83399787  0.16745169  0.74963595  1
  Mg  Mg54  1  0.00035469  0.58319727  0.75185442  1
  Mg  Mg55  1  0.83585212  0.66621259  0.25289767  1
  Mg  Mg56  1  0.50045578  0.66504361  0.75625976  1
  Mg  Mg57  1  0.16657782  0.16464465  0.74569834  1
  Mg  Mg58  1  0.66737333  0.57870112  0.25207950  1
  Mg  Mg59  1  0.83424741  0.83447132  0.25286241  1
  Mg  Mg60  1  -0.00197008  0.91496180  0.74956542  1
  Mg  Mg61  1  0.83068483  0.83446302  0.75311183  1
  Mg  Mg62  1  0.00656159  0.41758985  0.24970811  1
  Mg  Mg63  1  0.50096897  0.33467833  0.25263805  1
  Mg  Mg64  1  0.83094483  0.66554014  0.75402486  1
  Mg  Mg65  1  0.50035008  0.83391837  0.24661606  1
  Mg  Mg66  1  0.66577963  0.41559674  0.75341682  1
  Mg  Mg67  1  0.66457610  0.58434206  0.75570600  1
  Mg  Mg68  1  0.00188374  0.41447070  0.74761300  1
  Mg  Mg69  1  0.33204890  0.58153405  0.75309500  1
  Mg  Mg70  1  0.33091230  0.91829842  0.24650577  1
  Mg  Mg71  1  0.16648240  0.83697436  0.24855613  1
  Mg  Mg72  1  0.32658888  0.41694985  0.24967293  1
  Mg  Mg73  1  0.16451271  0.83230739  0.74847490  1
  Mg  Mg74  1  0.66667102  0.08572015  0.74812855  1
  Mg  Mg75  1  -0.00046662  0.08477538  0.74824516  1
  Mg  Mg76  1  0.00030501  0.08530942  0.24661901  1
  Mg  Mg77  1  0.50197549  0.16784713  0.25173858  1
  Mg  Mg78  1  0.67058504  0.08743739  0.25429748  1
  Mg  Mg79  1  0.33278607  0.91573507  0.74930233  1
  Mg  Mg80  1  0.33090620  0.58332461  0.24864655  1
  Mg  Mg81  1  0.83443733  0.33534324  0.74998306  1
  Mg  Mg82  1  0.32995957  0.08236980  0.24859324  1
  Mg  Mg83  1  0.83253919  0.33697355  0.25295327  1
  Mg  Mg84  1  0.50179130  0.83368204  0.75443647  1
  Mg  Mg85  1  0.00488760  0.58341928  0.24907721  1
  Mg  Mg86  1  0.16624029  0.66537838  0.24960759  1
  Mg  Mg87  1  0.49856122  0.33494652  0.75126571  1
  Mg  Mg88  1  0.33315679  0.08529526  0.74484304  1
  Mg  Mg89  1  0.16684217  0.33420999  0.74601926  1
  Mg  Mg90  1  0.66921547  0.91593928  0.25116402  1
  Mg  Mg91  1  0.49829047  0.66406249  0.24711431  1
  Mg  Mg92  1  0.16520332  0.66423763  0.75199975  1
  Mg  Mg93  1  0.66601927  0.91519009  0.75456414  1
  Mg  Mg94  1  0.49882615  0.16636701  0.74639074  1
  Mg  Mg95  1  0.00186207  0.91953637  0.25016708  1
  Fe  Fe96  1  0.19078869  0.58372662  0.10763176  1
  Fe  Fe97  1  0.81063525  0.91311390  0.39259835  1
  Fe  Fe98  1  0.64465674  0.83539329  0.89579167  1
  Fe  Fe99  1  0.64287646  0.17038761  0.39241635  1
  Fe  Fe100  1  0.36039793  0.16936625  0.60548906  1
  Fe  Fe101  1  0.97753096  0.16774750  0.88821618  1
  Fe  Fe102  1  0.36784384  0.66725639  0.10652766  1
  Fe  Fe103  1  0.69630814  0.16705596  0.61031184  1
  Fe  Fe104  1  0.14131675  0.58503603  0.89065861  1
  Fe  Fe105  1  0.01734459  0.16550062  0.10444810  1
  Fe  Fe106  1  0.64275636  0.65982986  0.89695358  1
  Fe  Fe107  1  0.98164598  0.66413446  0.39276369  1
  Fe  Fe108  1  0.64273143  0.34349870  0.39236067  1
  Fe  Fe109  1  0.68911103  0.82681334  0.11183598  1
  Fe  Fe110  1  0.14847467  0.57411567  0.39152858  1
  Fe  Fe111  1  0.64353899  0.33390473  0.89217207  1
  Fe  Fe112  1  0.02471816  0.33073216  0.60638093  1
  Si  Si113  1  0.53303025  0.57380483  0.11368773  1
  Si  Si114  1  0.14252730  0.08662933  0.38237959  1
  Si  Si115  1  0.81004239  0.58755795  0.38963149  1
  Si  Si116  1  0.98128415  0.33680487  0.88568723  1
  Si  Si117  1  0.52131775  0.91394201  0.61500085  1
  Si  Si118  1  0.30446089  0.83695472  0.38254432  1
  Si  Si119  1  0.30129181  0.32692741  0.88181541  1
  Si  Si120  1  0.81821090  0.42229222  0.38979567  1
  Si  Si121  1  0.14394047  0.07605903  0.88465343  1
  Si  Si122  1  0.35661746  0.66663642  0.61664208  1
  Si  Si123  1  0.01903717  0.33648946  0.11105765  1
  Si  Si124  1  0.14530321  0.41657390  0.88514817  1
  Si  Si125  1  0.02692113  0.15841538  0.60997412  1
  Si  Si126  1  0.68908752  0.33942209  0.61470128  1
  Si  Si127  1  0.46584775  0.41371084  0.88794180  1
  Si  Si128  1  0.35686944  0.33083195  0.11459748  1
  Si  Si129  1  0.14311768  0.92377816  0.38405891  1
  Si  Si130  1  0.86398268  0.07880708  0.61255182  1
  Si  Si131  1  0.86018133  0.58565186  0.11605455  1
  Si  Si132  1  0.35907916  0.16534010  0.11392123  1
  Si  Si133  1  0.46454520  0.58089312  0.89072541  1
  Si  Si134  1  0.64061050  0.16082216  0.88659224  1
  Si  Si135  1  0.18800317  0.91226221  0.61314785  1
  Si  Si136  1  0.68887385  0.83287914  0.61677292  1
  Si  Si137  1  0.85460998  0.58627013  0.61628591  1
  Si  Si138  1  0.52978073  0.07832956  0.60981571  1
  Si  Si139  1  0.81532977  0.08261370  0.39102921  1
  Si  Si140  1  0.85567018  0.42086857  0.61264350  1
  Si  Si141  1  0.02399071  0.67066749  0.11177962  1
  Si  Si142  1  0.98083309  0.16804918  0.38480386  1
  Si  Si143  1  0.19067227  0.41346041  0.11285358  1
  Si  Si144  1  0.52268688  0.58589507  0.61765317  1
  Si  Si145  1  0.47274286  0.08291338  0.88338972  1
  Si  Si146  1  0.69103861  0.16934835  0.11554518  1
  Si  Si147  1  0.30556887  0.67277044  0.88570797  1
  Si  Si148  1  0.47170611  0.91349288  0.38296774  1
  Si  Si149  1  0.30680168  0.83433751  0.88304869  1
  Si  Si150  1  0.47066823  0.58573081  0.38437519  1
  Si  Si151  1  0.31100200  0.67200072  0.38670722  1
  Si  Si152  1  0.85889032  0.91330272  0.11299706  1
  Si  Si153  1  0.96814672  0.66759851  0.88823633  1
  Si  Si154  1  0.19280868  0.07749221  0.60942311  1
  Si  Si155  1  0.52550128  0.92423161  0.11253890  1
  Si  Si156  1  0.31124422  0.16433430  0.38181518  1
  Si  Si157  1  0.85502387  0.91397201  0.61554012  1
  Si  Si158  1  0.30988489  0.32676954  0.38259557  1
  Si  Si159  1  0.81690262  0.41798677  0.88766807  1
  Si  Si160  1  0.02117157  0.83099919  0.61424824  1
  Si  Si161  1  0.63827853  0.66041460  0.38520727  1
  Si  Si162  1  0.36075255  0.83929433  0.10993568  1
  Si  Si163  1  0.19279472  0.91571690  0.11179109  1
  Si  Si164  1  0.52315211  0.41028001  0.11621382  1
  Si  Si165  1  0.69466871  0.33383665  0.11714804  1
  Si  Si166  1  0.69205075  0.65794668  0.11751223  1
  Si  Si167  1  0.85132761  0.07700067  0.11137646  1
  Si  Si168  1  0.47322996  0.07917281  0.38638919  1
  Si  Si169  1  0.36012988  0.33959871  0.61239288  1
  Si  Si170  1  0.14167745  0.91147747  0.88346239  1
  Si  Si171  1  0.19005040  0.58575022  0.61530345  1
  Si  Si172  1  0.97386997  0.83388471  0.88627155  1
  Si  Si173  1  0.98336192  0.83820999  0.39066562  1
  Si  Si174  1  0.81293617  0.92313274  0.88866998  1
  Si  Si175  1  0.02681959  0.83837633  0.11475500  1
  Si  Si176  1  0.35623527  0.83168527  0.61507073  1
  Si  Si177  1  0.46800433  0.91817250  0.88654368  1
  Si  Si178  1  0.52675789  0.08965226  0.11473978  1
  Si  Si179  1  0.02153446  0.66650240  0.61514302  1
  Si  Si180  1  0.80704018  0.08551175  0.88572069  1
  Si  Si181  1  0.68924324  0.66820907  0.61755475  1
  Si  Si182  1  0.81030758  0.57891728  0.88810999  1
  Si  Si183  1  0.19570806  0.08005371  0.11020110  1
  Si  Si184  1  0.14666269  0.40745337  0.38472696  1
  Si  Si185  1  0.30581806  0.16328325  0.88246514  1
  Si  Si186  1  0.97780807  0.33323297  0.38513855  1
  Si  Si187  1  0.63565716  0.82804360  0.38820566  1
  Si  Si188  1  0.19504866  0.42042942  0.61281040  1
  Si  Si189  1  0.85711444  0.42151982  0.11568245  1
  Si  Si190  1  0.52498100  0.42232390  0.61636917  1
  Si  Si191  1  0.46581414  0.42142505  0.38845700  1
  O  O192  1  0.27752819  0.11669648  0.08075314  1
  O  O193  1  0.27069998  0.10380215  0.57599361  1
  O  O194  1  0.27334575  0.62066570  0.06382045  1
  O  O195  1  0.26921687  0.62385242  0.58629862  1
  O  O196  1  0.59929276  0.13251778  0.08262468  1
  O  O197  1  0.61682095  0.09396537  0.58320243  1
  O  O198  1  0.62439159  0.59305109  0.09220417  1
  O  O199  1  0.60204335  0.62364360  0.58862764  1
  O  O200  1  0.92035123  0.11006452  0.07097001  1
  O  O201  1  0.95376502  0.09646590  0.58784600  1
  O  O202  1  0.93520470  0.62517978  0.08444670  1
  O  O203  1  0.93478574  0.62150108  0.58727221  1
  O  O204  1  0.10221500  0.36926444  0.08349169  1
  O  O205  1  0.11925093  0.37025717  0.57502761  1
  O  O206  1  0.10597136  0.87071078  0.08117273  1
  O  O207  1  0.10239692  0.86500240  0.58614764  1
  O  O208  1  0.43641449  0.36601122  0.08328114  1
  O  O209  1  0.44302882  0.37423574  0.58468308  1
  O  O210  1  0.43025578  0.89299661  0.08430310  1
  O  O211  1  0.43648646  0.86542755  0.58566417  1
  O  O212  1  0.76807729  0.37795570  0.08592469  1
  O  O213  1  0.76816887  0.37636512  0.58551692  1
  O  O214  1  0.78541672  0.85838998  0.07970265  1
  O  O215  1  0.76920021  0.86710404  0.58753871  1
  O  O216  1  0.26887079  0.37119996  0.08248411  1
  O  O217  1  0.28405494  0.39848521  0.58832722  1
  O  O218  1  0.26883832  0.87699115  0.08009761  1
  O  O219  1  0.26902227  0.87609881  0.58557204  1
  O  O220  1  0.60213872  0.37122985  0.08746373  1
  O  O221  1  0.60851865  0.39408126  0.58893106  1
  O  O222  1  0.59518420  0.88541917  0.07728017  1
  O  O223  1  0.60163407  0.87686866  0.58704459  1
  O  O224  1  0.93457139  0.38793101  0.08275036  1
  O  O225  1  0.93095723  0.39150619  0.57766559  1
  O  O226  1  0.94558172  0.88941807  0.08435778  1
  O  O227  1  0.93477831  0.87671102  0.58717336  1
  O  O228  1  0.11310817  0.12402570  0.07562960  1
  O  O229  1  0.10923757  0.12598602  0.58145163  1
  O  O230  1  0.09378684  0.63934664  0.07163095  1
  O  O231  1  0.10351799  0.63253287  0.58860431  1
  O  O232  1  0.43858591  0.13102810  0.08293166  1
  O  O233  1  0.45499670  0.13132137  0.57514555  1
  O  O234  1  0.46166757  0.62646454  0.07537227  1
  O  O235  1  0.43700473  0.63241645  0.58739346  1
  O  O236  1  0.76201592  0.12275436  0.08547185  1
  O  O237  1  0.79343162  0.13454541  0.57864496  1
  O  O238  1  0.77640752  0.63380010  0.08754329  1
  O  O239  1  0.76923900  0.63415286  0.58785456  1
  O  O240  1  0.06900119  0.12545449  0.41823699  1
  O  O241  1  0.06547020  0.10078392  0.91787209  1
  O  O242  1  0.06781318  0.60855442  0.43893043  1
  O  O243  1  0.04201104  0.61408108  0.92055830  1
  O  O244  1  0.38875103  0.10977175  0.41344017  1
  O  O245  1  0.39245234  0.11819885  0.91173868  1
  O  O246  1  0.40736901  0.64062631  0.41466952  1
  O  O247  1  0.37962857  0.61509266  0.91430951  1
  O  O248  1  0.74433937  0.12320680  0.42488730  1
  O  O249  1  0.71610243  0.10099111  0.91054466  1
  O  O250  1  0.72256479  0.61455253  0.41633188  1
  O  O251  1  0.72864450  0.58999096  0.92205326  1
  O  O252  1  0.22589071  0.35113398  0.41154008  1
  O  O253  1  0.21803414  0.35477031  0.91090849  1
  O  O254  1  0.22933719  0.87664902  0.41401566  1
  O  O255  1  0.22031957  0.85670389  0.91076013  1
  O  O256  1  0.55450065  0.39106621  0.42718384  1
  O  O257  1  0.54877326  0.37066679  0.92530349  1
  O  O258  1  0.55189371  0.86214749  0.41480903  1
  O  O259  1  0.54178913  0.86634385  0.92141366  1
  O  O260  1  0.90540255  0.37573210  0.41821210  1
  O  O261  1  0.89689045  0.36410738  0.91410789  1
  O  O262  1  0.90808381  0.86183571  0.43054280  1
  O  O263  1  0.89606196  0.87117833  0.91521261  1
  O  O264  1  0.06733654  0.37158718  0.41624361  1
  O  O265  1  0.05741776  0.39511252  0.91151468  1
  O  O266  1  0.06501222  0.89328714  0.41779039  1
  O  O267  1  0.05969407  0.88139418  0.91269913  1
  O  O268  1  0.38845113  0.37936435  0.41655019  1
  O  O269  1  0.38295593  0.37640155  0.91282788  1
  O  O270  1  0.39185930  0.88027743  0.41347185  1
  O  O271  1  0.37782737  0.89502909  0.91018877  1
  O  O272  1  0.74450147  0.39202720  0.42651138  1
  O  O273  1  0.73793636  0.39458245  0.92212324  1
  O  O274  1  0.71796057  0.86967795  0.42570860  1
  O  O275  1  0.73345017  0.90234531  0.92229546  1
  O  O276  1  0.22863069  0.13388060  0.41058848  1
  O  O277  1  0.22991016  0.12332984  0.91265743  1
  O  O278  1  0.24802604  0.62936700  0.42554584  1
  O  O279  1  0.22104994  0.65887497  0.91520934  1
  O  O280  1  0.55392552  0.12183308  0.42413010  1
  O  O281  1  0.55657621  0.12909744  0.91435576  1
  O  O282  1  0.56409420  0.61849812  0.41625019  1
  O  O283  1  0.54491541  0.62569061  0.92702322  1
  O  O284  1  0.90502993  0.12809226  0.41472770  1
  O  O285  1  0.87521444  0.14507248  0.91689479  1
  O  O286  1  0.88068914  0.64262710  0.42557931  1
  O  O287  1  0.88026590  0.64283976  0.91287170  1
  O  O288  1  0.18531542  -0.00330600  0.07853224  1
  O  O289  1  0.17079600  -0.00676921  0.58379055  1
  O  O290  1  0.17799319  0.48954399  0.07379928  1
  O  O291  1  0.17697113  0.50482062  0.58549012  1
  O  O292  1  0.51973055  0.00812226  0.08426184  1
  O  O293  1  0.50163617  -0.00592198  0.58490663  1
  O  O294  1  0.51291168  0.49135250  0.08417542  1
  O  O295  1  0.50864185  0.50498155  0.58661216  1
  O  O296  1  0.83152338  -0.00607409  0.08242314  1
  O  O297  1  0.84002032  -0.00484797  0.58636567  1
  O  O298  1  0.84414705  0.50390983  0.08481728  1
  O  O299  1  0.83534771  0.50538611  0.58731702  1
  O  O300  1  -0.00055923  0.26053417  0.07239593  1
  O  O301  1  0.00087660  0.23503963  0.57562030  1
  O  O302  1  0.00535283  0.75604782  0.08692623  1
  O  O303  1  0.00698487  0.74884804  0.58541380  1
  O  O304  1  0.34758690  0.24781675  0.08479611  1
  O  O305  1  0.33529968  0.26403260  0.57438157  1
  O  O306  1  0.36299119  0.76328451  0.07325430  1
  O  O307  1  0.34392120  0.74911993  0.58667296  1
  O  O308  1  0.69004336  0.25185061  0.08464007  1
  O  O309  1  0.66529898  0.26150887  0.58292316  1
  O  O310  1  0.65774144  0.73276935  0.08320282  1
  O  O311  1  0.67477138  0.75037275  0.58755128  1
  O  O312  1  0.16122546  0.00531493  0.41610382  1
  O  O313  1  0.16854770  -0.00777892  0.91060390  1
  O  O314  1  0.17219938  0.48083482  0.42648125  1
  O  O315  1  0.17901094  0.49235191  0.91803688  1
  O  O316  1  0.48488677  -0.00537404  0.41345671  1
  O  O317  1  0.48457809  0.00138695  0.91393853  1
  O  O318  1  0.45964283  0.50589692  0.41501862  1
  O  O319  1  0.46918962  0.49699190  0.91660389  1
  O  O320  1  0.83206527  0.00508384  0.42878745  1
  O  O321  1  0.84256235  0.00529073  0.91236984  1
  O  O322  1  0.83545973  0.50596211  0.41807497  1
  O  O323  1  0.85201771  0.49968737  0.91060207  1
  O  O324  1  0.33317412  0.24515595  0.41303817  1
  O  O325  1  0.31992840  0.24474899  0.91254667  1
  O  O326  1  0.31649635  0.75630536  0.41527496  1
  O  O327  1  0.33967471  0.75495726  0.90967954  1
  O  O328  1  0.65289419  0.25666007  0.43636815  1
  O  O329  1  0.66456320  0.23740311  0.92223980  1
  O  O330  1  0.64200333  0.74304314  0.41545944  1
  O  O331  1  0.67943125  0.74791702  0.93234795  1
  O  O332  1  0.98539829  0.25060015  0.41529228  1
  O  O333  1  1.01252948  0.26009697  0.91786552  1
  O  O334  1  1.01663554  0.75919316  0.41690279  1
  O  O335  1  0.98722006  0.75170043  0.91441612  1
  O  O336  1  0.21779570  0.07641514  0.18890634  1
  O  O337  1  0.20985732  0.07887598  0.69091363  1
  O  O338  1  0.21507381  0.58872384  0.19764972  1
  O  O339  1  0.21056856  0.58661655  0.69540092  1
  O  O340  1  0.54269311  0.08541628  0.19462034  1
  O  O341  1  0.54239792  0.08067622  0.69185300  1
  O  O342  1  0.54354575  0.57872171  0.19446845  1
  O  O343  1  0.54061739  0.58461352  0.69770392  1
  O  O344  1  0.87535276  0.07543688  0.19081920  1
  O  O345  1  0.87717653  0.07884399  0.69363525  1
  O  O346  1  0.87636549  0.58302537  0.19584844  1
  O  O347  1  0.87416884  0.58642027  0.69691982  1
  O  O348  1  0.03551904  0.33623246  0.19054410  1
  O  O349  1  0.04484045  0.33207581  0.69837013  1
  O  O350  1  0.04866950  0.84215590  0.19389642  1
  O  O351  1  0.04031189  0.83187461  0.69494867  1
  O  O352  1  0.37855598  0.33399795  0.19442153  1
  O  O353  1  0.38026703  0.33205542  0.69252513  1
  O  O354  1  0.37760680  0.83561113  0.19105810  1
  O  O355  1  0.37449418  0.83294243  0.69550725  1
  O  O356  1  0.71268123  0.33244667  0.19615911  1
  O  O357  1  0.71076623  0.33792109  0.69570810  1
  O  O358  1  0.70787720  0.83142709  0.20284480  1
  O  O359  1  0.70883505  0.83314670  0.69702607  1
  O  O360  1  0.21313322  0.41748172  0.19177605  1
  O  O361  1  0.20504616  0.41861286  0.69285093  1
  O  O362  1  0.21334848  0.91388470  0.19122444  1
  O  O363  1  0.20798392  0.91340711  0.69385696  1
  O  O364  1  0.53665005  0.41477548  0.19524950  1
  O  O365  1  0.54111678  0.42123428  0.69668072  1
  O  O366  1  0.54387554  0.91929269  0.19363992  1
  O  O367  1  0.53972084  0.91458262  0.69539548  1
  O  O368  1  0.87491904  0.42037332  0.19546895  1
  O  O369  1  0.87546264  0.41917643  0.69392725  1
  O  O370  1  0.87700089  0.91460960  0.19358498  1
  O  O371  1  0.87479682  0.91374620  0.69622430  1
  O  O372  1  0.02897887  0.16834128  0.19301526  1
  O  O373  1  0.04683545  0.16196877  0.69117805  1
  O  O374  1  0.04779329  0.66406497  0.19081722  1
  O  O375  1  0.03883675  0.66873041  0.69554623  1
  O  O376  1  0.37927362  0.16398906  0.19383911  1
  O  O377  1  0.37790668  0.16626011  0.69773183  1
  O  O378  1  0.37980335  0.66701196  0.19871089  1
  O  O379  1  0.37547525  0.66728599  0.69692097  1
  O  O380  1  0.70136756  0.16920564  0.19438539  1
  O  O381  1  0.71269045  0.16767365  0.70234585  1
  O  O382  1  0.70990142  0.66258383  0.19840903  1
  O  O383  1  0.70878309  0.66755763  0.69774992  1
  O  O384  1  0.11853463  0.08021631  0.30455707  1
  O  O385  1  0.12551410  0.07905649  0.80329279  1
  O  O386  1  0.12242763  0.58712660  0.30239040  1
  O  O387  1  0.11987354  0.58380705  0.79843487  1
  O  O388  1  0.45845637  0.08157789  0.30554838  1
  O  O389  1  0.45564045  0.08135777  0.80287813  1
  O  O390  1  0.45754900  0.58409636  0.30459529  1
  O  O391  1  0.45340918  0.58370641  0.80928504  1
  O  O392  1  0.78897892  0.07668856  0.31108765  1
  O  O393  1  0.79051022  0.08282483  0.80451495  1
  O  O394  1  0.78960537  0.58500962  0.30893736  1
  O  O395  1  0.78960929  0.58270753  0.80640706  1
  O  O396  1  0.29703954  0.33044818  0.30349441  1
  O  O397  1  0.28573906  0.32638936  0.80196411  1
  O  O398  1  0.29178402  0.83594962  0.30261763  1
  O  O399  1  0.28706717  0.83427559  0.80206697  1
  O  O400  1  0.61864964  0.33356991  0.30247399  1
  O  O401  1  0.62130646  0.33339856  0.80039136  1
  O  O402  1  0.61982202  0.83138234  0.30768231  1
  O  O403  1  0.62126018  0.83407097  0.80216852  1
  O  O404  1  0.95662907  0.33609904  0.30544632  1
  O  O405  1  0.95808141  0.33518502  0.80448394  1
  O  O406  1  0.95480078  0.84539679  0.31095854  1
  O  O407  1  0.95589016  0.83354946  0.80518282  1
  O  O408  1  0.12309081  0.41787217  0.30637246  1
  O  O409  1  0.12535133  0.41682202  0.80403730  1
  O  O410  1  0.12433051  0.91757652  0.30489160  1
  O  O411  1  0.12203114  0.91308531  0.80261728  1
  O  O412  1  0.45404548  0.41765514  0.30800985  1
  O  O413  1  0.45725237  0.41499667  0.80783199  1
  O  O414  1  0.45695102  0.91465045  0.30269068  1
  O  O415  1  0.45339355  0.91736237  0.80505344  1
  O  O416  1  0.79848425  0.42047195  0.30995279  1
  O  O417  1  0.79232890  0.41717019  0.80619845  1
  O  O418  1  0.78813913  0.91728038  0.30135943  1
  O  O419  1  0.79239803  0.91756854  0.80714085  1
  O  O420  1  0.29980873  0.16591618  0.30285302  1
  O  O421  1  0.28747174  0.16290856  0.80207425  1
  O  O422  1  0.29351516  0.67037968  0.30670626  1
  O  O423  1  0.28859726  0.66962356  0.80426473  1
  O  O424  1  0.62114735  0.16806991  0.30058394  1
  O  O425  1  0.61978113  0.16434708  0.80556651  1
  O  O426  1  0.62087797  0.66383310  0.30500844  1
  O  O427  1  0.62035203  0.66575924  0.80342519  1
  O  O428  1  0.96724585  0.16829129  0.30610110  1
  O  O429  1  0.95665372  0.16616801  0.79598448  1
  O  O430  1  0.95248603  0.65636791  0.30332151  1
  O  O431  1  0.95362336  0.66801636  0.80655494  1
  F  F432  1  0.03991621  0.00064420  0.19819640  1
  F  F433  1  0.04507854  -0.00406808  0.70103102  1
  F  F434  1  0.03713477  0.50020067  0.19713326  1
  F  F435  1  0.04264236  0.50066726  0.69970690  1
  F  F436  1  0.38254904  -0.00030673  0.19994595  1
  F  F437  1  0.37704942  -0.00292330  0.69977614  1
  F  F438  1  0.38071635  0.49915689  0.20208439  1
  F  F439  1  0.38098757  0.50717774  0.70182994  1
  F  F440  1  0.70847634  0.00319509  0.20238370  1
  F  F441  1  0.71167899  -0.00363820  0.70409156  1
  F  F442  1  0.71546452  0.50112966  0.20558350  1
  F  F443  1  0.70983156  0.50215059  0.70504852  1
  F  F444  1  0.22366117  0.25343673  0.18549649  1
  F  F445  1  0.21161998  0.24732753  0.69776728  1
  F  F446  1  0.21392795  0.75312998  0.19860730  1
  F  F447  1  0.20929029  0.74965529  0.70056672  1
  F  F448  1  0.54093205  0.25113775  0.19925758  1
  F  F449  1  0.54454800  0.24981085  0.70153458  1
  F  F450  1  0.54626528  0.74899143  0.20263715  1
  F  F451  1  0.54065553  0.74930991  0.70198595  1
  F  F452  1  0.87948172  0.26313628  0.19981276  1
  F  F453  1  0.87730533  0.25315127  0.70033052  1
  F  F454  1  0.86551876  0.75090424  0.20247692  1
  F  F455  1  0.87563058  0.75035969  0.70362332  1
  F  F456  1  0.29889977  -0.00163614  0.29999638  1
  F  F457  1  0.28702403  -0.00073398  0.79460191  1
  F  F458  1  0.29750030  0.50110997  0.30127899  1
  F  F459  1  0.28536083  0.50289705  0.79846838  1
  F  F460  1  0.61972776  -0.00047196  0.29857739  1
  F  F461  1  0.61873057  0.00055917  0.79633412  1
  F  F462  1  0.61739637  0.50364507  0.30281639  1
  F  F463  1  0.61877802  0.49990525  0.79994676  1
  F  F464  1  0.95422729  0.00229020  0.29748227  1
  F  F465  1  0.95619975  -0.00203441  0.79652764  1
  F  F466  1  0.95684554  0.49881381  0.29853632  1
  F  F467  1  0.95416878  0.49964387  0.79544394  1
  F  F468  1  0.11649425  0.26108123  0.29875893  1
  F  F469  1  0.12385341  0.24552030  0.79486157  1
  F  F470  1  0.13960832  0.75291920  0.30086547  1
  F  F471  1  0.11903491  0.75127742  0.79685217  1
  F  F472  1  0.45317744  0.24969865  0.29658085  1
  F  F473  1  0.45424975  0.24932656  0.79811060  1
  F  F474  1  0.45580452  0.75271243  0.29697288  1
  F  F475  1  0.45134808  0.75100568  0.79849099  1
  F  F476  1  0.78421523  0.26109986  0.30543001  1
  F  F477  1  0.79005250  0.25349190  0.79846315  1
  F  F478  1  0.78666715  0.74759426  0.30432168  1
  F  F479  1  0.78765015  0.75095277  0.79953675  1
