# generated using pymatgen
data_K24Na3Li5Mg64Fe17Si79(O5F)48
_symmetry_space_group_name_H-M   'P 1'
_cell_length_a   16.10137718
_cell_length_b   18.60291841
_cell_length_c   20.58164890
_cell_angle_alpha   89.99607747
_cell_angle_beta   100.01915276
_cell_angle_gamma   90.03519236
_symmetry_Int_Tables_number   1
_chemical_formula_structural   K24Na3Li5Mg64Fe17Si79(O5F)48
_chemical_formula_sum   'K24 Na3 Li5 Mg64 Fe17 Si79 O240 F48'
_cell_volume   6070.85728663
_cell_formula_units_Z   1
loop_
 _symmetry_equiv_pos_site_id
 _symmetry_equiv_pos_as_xyz
  1  'x, y, z'
loop_
 _atom_site_type_symbol
 _atom_site_label
 _atom_site_symmetry_multiplicity
 _atom_site_fract_x
 _atom_site_fract_y
 _atom_site_fract_z
 _atom_site_occupancy
  K  K0  1  -0.00967380  -0.00096951  -0.00079907  1
  K  K1  1  0.00112049  -0.00311616  0.49965207  1
  K  K2  1  0.00715234  0.50280698  0.00787464  1
  K  K3  1  -0.00007358  0.50022862  0.49772961  1
  K  K4  1  0.34344495  -0.00549386  -0.00522238  1
  K  K5  1  0.33828062  0.00335957  0.50925451  1
  K  K6  1  0.34427623  0.50989448  0.00384833  1
  K  K7  1  0.33955547  0.50898621  0.49455310  1
  K  K8  1  0.66929601  -0.00558880  -0.00425925  1
  K  K9  1  0.66514447  -0.00553459  0.50488838  1
  K  K10  1  0.65754370  0.49359819  0.00135191  1
  K  K11  1  0.65014579  0.51234258  0.49361368  1
  K  K12  1  0.16870351  0.24878628  -0.00672501  1
  K  K13  1  0.18045242  0.23046338  0.50319890  1
  K  K14  1  0.18668532  0.75887397  0.00217197  1
  K  K15  1  0.17667633  0.75983716  0.49410229  1
  K  K16  1  0.49711178  0.24552684  -0.00479999  1
  K  K17  1  0.49943199  0.24309451  0.50485342  1
  K  K18  1  0.49318967  0.76207767  -0.00037484  1
  K  K19  1  0.49242406  0.74853542  0.49475115  1
  K  K20  1  0.84268077  0.22751691  -0.00269649  1
  K  K21  1  0.83253965  0.23841187  0.50390097  1
  K  K22  1  0.83767153  0.75413514  -0.00247897  1
  K  K23  1  0.82376297  0.76529107  0.49248145  1
  Na  Na24  1  0.16897391  0.50217854  0.25411018  1
  Na  Na25  1  0.00013074  0.91936710  0.74928238  1
  Na  Na26  1  0.66328371  0.08011881  0.74375724  1
  Li  Li27  1  0.65703441  0.75394141  0.74831975  1
  Li  Li28  1  0.83587240  -0.00532945  0.24130146  1
  Li  Li29  1  0.82676212  0.15915377  0.74634979  1
  Li  Li30  1  0.50526441  0.83524450  0.75173103  1
  Li  Li31  1  0.49839116  0.66429784  0.24956249  1
  Mg  Mg32  1  0.50139465  0.49933242  0.75312222  1
  Mg  Mg33  1  0.50377120  0.00081895  0.25114786  1
  Mg  Mg34  1  0.16726709  -0.00032655  0.74716493  1
  Mg  Mg35  1  -0.00095839  0.24922782  0.24601971  1
  Mg  Mg36  1  -0.00135818  0.75148008  0.74926149  1
  Mg  Mg37  1  -0.00437500  0.24760744  0.74523095  1
  Mg  Mg38  1  0.16565943  0.49971270  0.75058344  1
  Mg  Mg39  1  0.83244578  0.50047088  0.74875848  1
  Mg  Mg40  1  0.16690237  0.00081180  0.24583004  1
  Mg  Mg41  1  0.66562463  0.75067666  0.25203843  1
  Mg  Mg42  1  0.66866104  0.24525877  0.74869079  1
  Mg  Mg43  1  0.83062042  -0.00024084  0.74680221  1
  Mg  Mg44  1  0.83163212  0.50211926  0.25321821  1
  Mg  Mg45  1  0.00114233  0.75042650  0.25044105  1
  Mg  Mg46  1  0.33397546  0.24778195  0.74960797  1
  Mg  Mg47  1  0.66782104  0.24978009  0.25090204  1
  Mg  Mg48  1  0.33086212  0.24850907  0.24902321  1
  Mg  Mg49  1  0.33745063  0.74945957  0.25357762  1
  Mg  Mg50  1  0.49882075  -0.00315521  0.74773847  1
  Mg  Mg51  1  0.33651129  0.75167674  0.75386009  1
  Mg  Mg52  1  0.49809147  0.50427225  0.25262807  1
  Mg  Mg53  1  0.00169595  0.58341827  0.25433810  1
  Mg  Mg54  1  0.33031410  0.08356896  0.24652317  1
  Mg  Mg55  1  0.66721464  0.58582414  0.74993162  1
  Mg  Mg56  1  0.67315011  0.91672277  0.25003846  1
  Mg  Mg57  1  0.16765620  0.66657404  0.75248613  1
  Mg  Mg58  1  -0.00347919  0.08348120  0.74680047  1
  Mg  Mg59  1  0.83144018  0.33051805  0.74633554  1
  Mg  Mg60  1  0.50089054  0.33347502  0.75071256  1
  Mg  Mg61  1  0.49787104  0.33447913  0.25161719  1
  Mg  Mg62  1  0.83198335  0.33492195  0.25173514  1
  Mg  Mg63  1  0.66278803  0.41794581  0.25084198  1
  Mg  Mg64  1  0.17147838  0.66634804  0.25472170  1
  Mg  Mg65  1  0.33247004  0.91727610  0.24975388  1
  Mg  Mg66  1  0.33585557  0.08244739  0.74769940  1
  Mg  Mg67  1  0.67298678  0.08308289  0.25204869  1
  Mg  Mg68  1  0.50231447  0.83339127  0.25189800  1
  Mg  Mg69  1  -0.00147391  0.58442630  0.74928714  1
  Mg  Mg70  1  0.16632445  0.33310407  0.75029666  1
  Mg  Mg71  1  -0.00387983  0.08232950  0.24515203  1
  Mg  Mg72  1  0.50406294  0.66977769  0.75315242  1
  Mg  Mg73  1  0.66737656  0.41482491  0.75002942  1
  Mg  Mg74  1  0.82922433  0.83239083  0.74887199  1
  Mg  Mg75  1  0.16807714  0.83462975  0.75055795  1
  Mg  Mg76  1  0.50031405  0.16648299  0.25014480  1
  Mg  Mg77  1  -0.00223012  0.91681299  0.24850816  1
  Mg  Mg78  1  -0.00057669  0.41755616  0.25072253  1
  Mg  Mg79  1  0.16156395  0.16433649  0.24308088  1
  Mg  Mg80  1  0.16452331  0.33487731  0.24821260  1
  Mg  Mg81  1  0.33675785  0.58412627  0.75501935  1
  Mg  Mg82  1  0.49891366  0.16177335  0.74867517  1
  Mg  Mg83  1  0.83439769  0.16262188  0.24872366  1
  Mg  Mg84  1  0.33621723  0.41534019  0.75180388  1
  Mg  Mg85  1  0.33666184  0.58754236  0.25275351  1
  Mg  Mg86  1  0.33648645  0.91256304  0.75008985  1
  Mg  Mg87  1  0.33304593  0.41778527  0.25335012  1
  Mg  Mg88  1  0.16724817  0.16338727  0.74737083  1
  Mg  Mg89  1  0.83083916  0.66826760  0.74984211  1
  Mg  Mg90  1  0.83251881  0.83702623  0.24972988  1
  Mg  Mg91  1  0.83058015  0.66764359  0.25130134  1
  Mg  Mg92  1  0.66176946  0.91169307  0.74706522  1
  Mg  Mg93  1  0.16779127  0.83571336  0.24867278  1
  Mg  Mg94  1  -0.00250451  0.41492286  0.74813241  1
  Mg  Mg95  1  0.66099697  0.58709057  0.25213579  1
  Fe  Fe96  1  0.52728676  0.07762710  0.60302277  1
  Fe  Fe97  1  0.18994699  0.91460465  0.10861316  1
  Fe  Fe98  1  0.47925184  0.41292443  0.89136809  1
  Fe  Fe99  1  0.18990481  0.07758578  0.60728757  1
  Fe  Fe100  1  0.19194539  0.08361703  0.10457243  1
  Fe  Fe101  1  0.81395363  0.92011409  0.39130735  1
  Fe  Fe102  1  0.85716873  0.08084831  0.10682399  1
  Fe  Fe103  1  0.68799931  0.82735075  0.11004324  1
  Fe  Fe104  1  0.48078311  0.08989453  0.89281417  1
  Fe  Fe105  1  0.47330747  0.58311394  0.39327576  1
  Fe  Fe106  1  0.30572698  0.83262093  0.89209297  1
  Fe  Fe107  1  0.30533519  0.67303850  0.39654748  1
  Fe  Fe108  1  0.02632860  0.17559224  0.10432360  1
  Fe  Fe109  1  0.36091747  0.16941710  0.60576715  1
  Fe  Fe110  1  0.48336192  0.91583012  0.89041771  1
  Fe  Fe111  1  0.86243694  0.90777314  0.10612429  1
  Fe  Fe112  1  0.52393604  0.58190652  0.11192891  1
  Si  Si113  1  0.52392314  0.90721028  0.60887178  1
  Si  Si114  1  0.18871614  0.90729284  0.60946485  1
  Si  Si115  1  0.64004617  0.83667846  0.38990694  1
  Si  Si116  1  0.69467276  0.66505603  0.61453842  1
  Si  Si117  1  0.36383455  0.16459961  0.11380963  1
  Si  Si118  1  0.85556401  0.91588205  0.61343959  1
  Si  Si119  1  0.30455332  0.16325235  0.38314966  1
  Si  Si120  1  0.81034959  0.09029739  0.38990120  1
  Si  Si121  1  0.97372528  0.17355754  0.38548702  1
  Si  Si122  1  0.30103015  0.33530522  0.88756148  1
  Si  Si123  1  0.64278483  0.16854302  0.38689319  1
  Si  Si124  1  0.51940158  0.41301956  0.11566047  1
  Si  Si125  1  0.69769352  0.16959874  0.60902024  1
  Si  Si126  1  0.80636777  0.41920173  0.38767648  1
  Si  Si127  1  0.80804301  0.07999847  0.87919033  1
  Si  Si128  1  0.02086261  0.34580549  0.11141796  1
  Si  Si129  1  0.69067433  0.66025942  0.11376432  1
  Si  Si130  1  0.81069385  0.58265633  0.88511552  1
  Si  Si131  1  0.85787836  0.41766630  0.61307045  1
  Si  Si132  1  0.52941141  0.08723498  0.11855067  1
  Si  Si133  1  0.19656031  0.41918004  0.11583560  1
  Si  Si134  1  0.35635725  0.34178073  0.61149401  1
  Si  Si135  1  0.97003842  0.16546991  0.87948670  1
  Si  Si136  1  0.64660004  0.66558916  0.88500317  1
  Si  Si137  1  0.85683806  0.58480465  0.11900867  1
  Si  Si138  1  0.35857087  0.66160742  0.61797090  1
  Si  Si139  1  0.03181963  0.82236864  0.11169775  1
  Si  Si140  1  0.02307843  0.16814846  0.60981122  1
  Si  Si141  1  0.47540030  0.08668084  0.38438798  1
  Si  Si142  1  0.47567725  0.92136489  0.38570075  1
  Si  Si143  1  0.97502787  0.66300720  0.38781580  1
  Si  Si144  1  0.64493544  0.66985271  0.39045500  1
  Si  Si145  1  0.30775644  0.65954465  0.88902595  1
  Si  Si146  1  0.19677883  0.58701625  0.11615250  1
  Si  Si147  1  0.69349799  0.82939511  0.61337270  1
  Si  Si148  1  0.35693930  0.67316928  0.11321247  1
  Si  Si149  1  0.13502628  0.08438931  0.88289306  1
  Si  Si150  1  0.64775063  0.82809240  0.88434659  1
  Si  Si151  1  0.13297932  0.41584833  0.88426151  1
  Si  Si152  1  0.52797102  0.41918764  0.61448885  1
  Si  Si153  1  0.02248624  0.82855990  0.61391964  1
  Si  Si154  1  0.80700318  0.91579200  0.88298820  1
  Si  Si155  1  0.85276612  0.42151294  0.11770194  1
  Si  Si156  1  0.30452614  0.32887221  0.38614379  1
  Si  Si157  1  0.68875281  0.33527484  0.11712659  1
  Si  Si158  1  0.52803004  0.58425177  0.61703986  1
  Si  Si159  1  0.13759419  0.58064816  0.88553555  1
  Si  Si160  1  0.13490700  0.08494700  0.38214556  1
  Si  Si161  1  0.35755241  0.82587962  0.61443471  1
  Si  Si162  1  0.80726422  0.58603870  0.38837519  1
  Si  Si163  1  0.13757590  0.58245383  0.39154161  1
  Si  Si164  1  0.97479463  0.66860445  0.88515742  1
  Si  Si165  1  0.13857038  0.92095778  0.38390051  1
  Si  Si166  1  0.02518055  0.65841482  0.11805288  1
  Si  Si167  1  0.47318994  0.41032217  0.38971578  1
  Si  Si168  1  0.65109091  0.33171780  0.88640006  1
  Si  Si169  1  0.96998062  0.33029564  0.88262010  1
  Si  Si170  1  0.97377886  0.33728330  0.38682648  1
  Si  Si171  1  0.48160587  0.58562378  0.88841897  1
  Si  Si172  1  0.18920031  0.58415225  0.61674522  1
  Si  Si173  1  0.64929357  0.17164963  0.88534262  1
  Si  Si174  1  0.35589594  0.32887197  0.11613867  1
  Si  Si175  1  0.02272517  0.66604167  0.61427751  1
  Si  Si176  1  0.30132200  0.16873895  0.88764782  1
  Si  Si177  1  0.13716277  0.91842358  0.88554925  1
  Si  Si178  1  0.69219140  0.33415452  0.61156532  1
  Si  Si179  1  0.02326658  0.33406178  0.61340412  1
  Si  Si180  1  0.53013246  0.92292212  0.11743901  1
  Si  Si181  1  0.64199566  0.33324182  0.38683414  1
  Si  Si182  1  0.85793112  0.58201381  0.61331755  1
  Si  Si183  1  0.69188138  0.17049205  0.11444290  1
  Si  Si184  1  0.14023159  0.41426919  0.38653887  1
  Si  Si185  1  0.97005511  0.83249945  0.88257650  1
  Si  Si186  1  0.98176991  0.82841152  0.38894479  1
  Si  Si187  1  0.81065324  0.41854855  0.88350622  1
  Si  Si188  1  0.86044665  0.08171156  0.61187645  1
  Si  Si189  1  0.36580887  0.83907055  0.11655431  1
  Si  Si190  1  0.30838256  0.84478142  0.38928279  1
  Si  Si191  1  0.18844225  0.41940238  0.61526219  1
  O  O192  1  0.29835326  0.10595198  0.07909531  1
  O  O193  1  0.26855076  0.11776673  0.56328591  1
  O  O194  1  0.26576744  0.63107401  0.08155670  1
  O  O195  1  0.27100324  0.61609513  0.58884985  1
  O  O196  1  0.61110528  0.11652941  0.08881471  1
  O  O197  1  0.61816423  0.12500340  0.57153180  1
  O  O198  1  0.62935545  0.59387861  0.08481088  1
  O  O199  1  0.60231050  0.62711852  0.58642100  1
  O  O200  1  0.94200364  0.11536854  0.06373723  1
  O  O201  1  0.93720468  0.12110232  0.58138556  1
  O  O202  1  0.94347270  0.60549767  0.09065890  1
  O  O203  1  0.93823167  0.61771240  0.58495768  1
  O  O204  1  0.10201561  0.38651967  0.08531224  1
  O  O205  1  0.10276576  0.37246468  0.58508360  1
  O  O206  1  0.12010390  0.83368474  0.08546347  1
  O  O207  1  0.10239343  0.85803550  0.58185900  1
  O  O208  1  0.44170189  0.35526007  0.08987770  1
  O  O209  1  0.43462739  0.38635413  0.58555041  1
  O  O210  1  0.45317522  0.86577834  0.09200037  1
  O  O211  1  0.43522130  0.86057381  0.58260747  1
  O  O212  1  0.77092154  0.36975015  0.08892532  1
  O  O213  1  0.76883382  0.37763333  0.58295808  1
  O  O214  1  0.78240784  0.84004353  0.07308582  1
  O  O215  1  0.76804898  0.87224785  0.58106917  1
  O  O216  1  0.27204894  0.37750332  0.08450522  1
  O  O217  1  0.27035400  0.39189943  0.58574495  1
  O  O218  1  0.29364880  0.89324283  0.08195838  1
  O  O219  1  0.26718817  0.86501518  0.58204549  1
  O  O220  1  0.60579354  0.38453388  0.08922732  1
  O  O221  1  0.60171360  0.37536062  0.58340639  1
  O  O222  1  0.60863953  0.90182708  0.08293862  1
  O  O223  1  0.60050736  0.86098989  0.58115926  1
  O  O224  1  0.93815167  0.40050574  0.08852288  1
  O  O225  1  0.93751602  0.38129354  0.58425932  1
  O  O226  1  0.96031001  0.87551886  0.07384929  1
  O  O227  1  0.93637227  0.87605533  0.58679165  1
  O  O228  1  0.12652501  0.16203562  0.07411488  1
  O  O229  1  0.09595003  0.13799716  0.57348690  1
  O  O230  1  0.10226636  0.62079544  0.08637852  1
  O  O231  1  0.10386960  0.63071853  0.58646030  1
  O  O232  1  0.45592036  0.14688011  0.09207701  1
  O  O233  1  0.43993465  0.13375534  0.55938152  1
  O  O234  1  0.42870721  0.63842076  0.07665738  1
  O  O235  1  0.43556120  0.62025019  0.58954911  1
  O  O236  1  0.76874026  0.14925115  0.07895876  1
  O  O237  1  0.77948924  0.13248760  0.58159486  1
  O  O238  1  0.78379829  0.64212704  0.08969778  1
  O  O239  1  0.76845782  0.62094797  0.58253600  1
  O  O240  1  0.06284769  0.13091848  0.41317798  1
  O  O241  1  0.05802175  0.12500920  0.91162118  1
  O  O242  1  0.05062838  0.60732241  0.41939400  1
  O  O243  1  0.06261359  0.62429410  0.91436420  1
  O  O244  1  0.39431768  0.12235061  0.41182062  1
  O  O245  1  0.38712941  0.13309099  0.92499115  1
  O  O246  1  0.39847313  0.62450141  0.44112994  1
  O  O247  1  0.39624377  0.61529740  0.91444267  1
  O  O248  1  0.72895148  0.12642660  0.41989918  1
  O  O249  1  0.73026919  0.11687124  0.90958289  1
  O  O250  1  0.73555195  0.62706367  0.42120866  1
  O  O251  1  0.72895618  0.61234538  0.91429031  1
  O  O252  1  0.22771599  0.36959709  0.41599341  1
  O  O253  1  0.22064387  0.37583685  0.91421802  1
  O  O254  1  0.23327791  0.89239909  0.41511193  1
  O  O255  1  0.21507601  0.87433907  0.92636690  1
  O  O256  1  0.56120210  0.36366799  0.41660064  1
  O  O257  1  0.57427345  0.35507022  0.92329621  1
  O  O258  1  0.55661920  0.87133486  0.41700941  1
  O  O259  1  0.57277456  0.85124506  0.92230962  1
  O  O260  1  0.89542977  0.37668496  0.41673925  1
  O  O261  1  0.89439644  0.37058522  0.91285402  1
  O  O262  1  0.91058420  0.86246580  0.42599953  1
  O  O263  1  0.89195441  0.86813812  0.91278735  1
  O  O264  1  0.06026208  0.38130416  0.41862372  1
  O  O265  1  0.05718853  0.37411169  0.91300434  1
  O  O266  1  0.07225047  0.87066849  0.41636673  1
  O  O267  1  0.05161388  0.88302951  0.90821914  1
  O  O268  1  0.39571622  0.36567375  0.41645150  1
  O  O269  1  0.38453031  0.37648735  0.92364886  1
  O  O270  1  0.39459421  0.89251993  0.41612830  1
  O  O271  1  0.39979366  0.87878441  0.93367079  1
  O  O272  1  0.72788135  0.38052126  0.41661573  1
  O  O273  1  0.72988904  0.38893747  0.91308525  1
  O  O274  1  0.72103490  0.88139121  0.42625462  1
  O  O275  1  0.73129597  0.87873338  0.91426578  1
  O  O276  1  0.22771555  0.12189877  0.41126454  1
  O  O277  1  0.22057586  0.12918050  0.91340457  1
  O  O278  1  0.21392560  0.62920838  0.43097513  1
  O  O279  1  0.23139174  0.61100177  0.91491214  1
  O  O280  1  0.55992772  0.13504340  0.41367963  1
  O  O281  1  0.57378274  0.15258035  0.92454542  1
  O  O282  1  0.57703625  0.62981721  0.42687327  1
  O  O283  1  0.56337710  0.63851214  0.91536733  1
  O  O284  1  0.89453381  0.14197569  0.41731605  1
  O  O285  1  0.89352224  0.12739267  0.90968713  1
  O  O286  1  0.89458798  0.62939752  0.41804654  1
  O  O287  1  0.89656151  0.62942603  0.91438915  1
  O  O288  1  0.14440730  -0.00167393  0.06950839  1
  O  O289  1  0.17171879  -0.01684383  0.57188102  1
  O  O290  1  0.19466837  0.50277352  0.08818329  1
  O  O291  1  0.16858918  0.50215795  0.58750308  1
  O  O292  1  0.50004936  0.00630364  0.09293393  1
  O  O293  1  0.51529320  -0.01805964  0.56791654  1
  O  O294  1  0.49168554  0.48762616  0.07983263  1
  O  O295  1  0.52833075  0.50220546  0.58634138  1
  O  O296  1  0.82454479  -0.00563407  0.06715330  1
  O  O297  1  0.84844002  -0.00163674  0.58201063  1
  O  O298  1  0.82814340  0.50347515  0.09056461  1
  O  O299  1  0.85110119  0.49980626  0.58339399  1
  O  O300  1  -0.00234259  0.27236290  0.07265526  1
  O  O301  1  0.00454079  0.25341969  0.58355917  1
  O  O302  1  0.00171760  0.73784549  0.08779140  1
  O  O303  1  0.00331825  0.74620869  0.58303943  1
  O  O304  1  0.33682776  0.24733104  0.08717649  1
  O  O305  1  0.34316768  0.26711822  0.57286727  1
  O  O306  1  0.34363054  0.75720738  0.08719319  1
  O  O307  1  0.34734084  0.74184065  0.58554970  1
  O  O308  1  0.66496721  0.25432430  0.08957303  1
  O  O309  1  0.69037432  0.25452511  0.57795159  1
  O  O310  1  0.65117642  0.73401954  0.08075654  1
  O  O311  1  0.69519762  0.74605626  0.58398596  1
  O  O312  1  0.13270034  0.00349915  0.41236330  1
  O  O313  1  0.14067974  0.00271558  0.91176422  1
  O  O314  1  0.15218359  0.49663196  0.41513799  1
  O  O315  1  0.13307688  0.49803888  0.91367962  1
  O  O316  1  0.49310264  0.00488685  0.41318913  1
  O  O317  1  0.50788835  0.00318101  0.93361607  1
  O  O318  1  0.48517230  0.48598613  0.42738765  1
  O  O319  1  0.50359603  0.50768338  0.92196609  1
  O  O320  1  0.83153060  0.01431501  0.42610912  1
  O  O321  1  0.82193305  -0.00164322  0.91130496  1
  O  O322  1  0.81696078  0.50189849  0.41737452  1
  O  O323  1  0.83142437  0.50038252  0.91302553  1
  O  O324  1  0.30852544  0.24554628  0.41389070  1
  O  O325  1  0.29760707  0.25293991  0.91493249  1
  O  O326  1  0.31498661  0.76952999  0.42873992  1
  O  O327  1  0.31043945  0.73553985  0.92501258  1
  O  O328  1  0.65783250  0.25134589  0.41597597  1
  O  O329  1  0.68768912  0.25243293  0.91140801  1
  O  O330  1  0.65334840  0.75335138  0.41883404  1
  O  O331  1  0.67657080  0.74507531  0.91197771  1
  O  O332  1  0.98560310  0.25585088  0.41689433  1
  O  O333  1  0.97826160  0.24847227  0.91063406  1
  O  O334  1  0.99803463  0.74390264  0.41703831  1
  O  O335  1  0.98537919  0.75007360  0.91507871  1
  O  O336  1  0.21174130  0.08384378  0.19833310  1
  O  O337  1  0.21232986  0.08362772  0.69929875  1
  O  O338  1  0.21492952  0.58997592  0.19518358  1
  O  O339  1  0.20678864  0.58268840  0.69710479  1
  O  O340  1  0.54757383  0.08701834  0.19931492  1
  O  O341  1  0.53000660  0.08166866  0.69211763  1
  O  O342  1  0.54626472  0.57971670  0.20233056  1
  O  O343  1  0.54529366  0.58148069  0.69696061  1
  O  O344  1  0.87759332  0.08551269  0.19895056  1
  O  O345  1  0.87832882  0.07968591  0.69088591  1
  O  O346  1  0.87586228  0.58309980  0.19959663  1
  O  O347  1  0.87687755  0.58206217  0.69380162  1
  O  O348  1  0.04025540  0.33884333  0.19244104  1
  O  O349  1  0.04276403  0.33620282  0.69368496  1
  O  O350  1  0.04458568  0.82805872  0.19343545  1
  O  O351  1  0.04660533  0.82387289  0.69298902  1
  O  O352  1  0.37426801  0.33205606  0.19680651  1
  O  O353  1  0.37332784  0.33694500  0.69225291  1
  O  O354  1  0.37941352  0.83619740  0.19759232  1
  O  O355  1  0.37142507  0.82752182  0.69333311  1
  O  O356  1  0.70903067  0.33618448  0.19791168  1
  O  O357  1  0.71031069  0.33668704  0.69172691  1
  O  O358  1  0.71059640  0.83007093  0.20235558  1
  O  O359  1  0.71204546  0.82998049  0.69252033  1
  O  O360  1  0.21498522  0.41116172  0.19488835  1
  O  O361  1  0.20620734  0.41779054  0.69578512  1
  O  O362  1  0.21282751  0.91758757  0.20167267  1
  O  O363  1  0.20570976  0.91237155  0.68977895  1
  O  O364  1  0.54044022  0.41435780  0.19694841  1
  O  O365  1  0.54705043  0.41760170  0.69465255  1
  O  O366  1  0.54706707  0.92022830  0.19858110  1
  O  O367  1  0.54380185  0.91458239  0.68801723  1
  O  O368  1  0.87225448  0.41846297  0.19822577  1
  O  O369  1  0.87607746  0.41868549  0.69339140  1
  O  O370  1  0.88315487  0.91052111  0.19772533  1
  O  O371  1  0.86839103  0.91417098  0.69226532  1
  O  O372  1  0.04115982  0.16922025  0.19752697  1
  O  O373  1  0.04212506  0.16936339  0.69048897  1
  O  O374  1  0.04508588  0.66187227  0.19835560  1
  O  O375  1  0.04154534  0.66403032  0.69469466  1
  O  O376  1  0.37789255  0.16748137  0.19523215  1
  O  O377  1  0.37521670  0.17005968  0.69811467  1
  O  O378  1  0.37259843  0.66913228  0.19299070  1
  O  O379  1  0.37527843  0.66252415  0.69794410  1
  O  O380  1  0.70982677  0.17025280  0.19580678  1
  O  O381  1  0.71240803  0.17645618  0.68768971  1
  O  O382  1  0.71090907  0.66326931  0.19574301  1
  O  O383  1  0.71541301  0.65921110  0.69353452  1
  O  O384  1  0.12041098  0.08518533  0.30266322  1
  O  O385  1  0.11920904  0.08557495  0.80266581  1
  O  O386  1  0.11928735  0.59023329  0.31202634  1
  O  O387  1  0.11973594  0.58145660  0.80489172  1
  O  O388  1  0.45746389  0.08636200  0.30428889  1
  O  O389  1  0.45404721  0.08279628  0.80118713  1
  O  O390  1  0.45374914  0.58171918  0.30325123  1
  O  O391  1  0.46053528  0.58249664  0.80722684  1
  O  O392  1  0.78730507  0.09413298  0.31061699  1
  O  O393  1  0.79441724  0.07977402  0.80079705  1
  O  O394  1  0.78985253  0.58326352  0.30835994  1
  O  O395  1  0.79370664  0.58233076  0.80466178  1
  O  O396  1  0.28786430  0.33204592  0.30597575  1
  O  O397  1  0.28646475  0.33673219  0.80629916  1
  O  O398  1  0.29188284  0.83692961  0.30913601  1
  O  O399  1  0.28684615  0.83085477  0.79967641  1
  O  O400  1  0.62439232  0.33409188  0.30655129  1
  O  O401  1  0.62758213  0.33569469  0.80537486  1
  O  O402  1  0.62309385  0.83656330  0.30965087  1
  O  O403  1  0.62827806  0.83054524  0.80506309  1
  O  O404  1  0.95468178  0.33698698  0.30662880  1
  O  O405  1  0.95458276  0.33465570  0.80237355  1
  O  O406  1  0.96168113  0.82949904  0.30863663  1
  O  O407  1  0.94998544  0.82412207  0.80357768  1
  O  O408  1  0.11792091  0.40864644  0.30743811  1
  O  O409  1  0.11826158  0.41721545  0.80375172  1
  O  O410  1  0.12138690  0.91741582  0.30407236  1
  O  O411  1  0.13228881  0.91687943  0.80596748  1
  O  O412  1  0.45675964  0.41238009  0.30884054  1
  O  O413  1  0.45655880  0.41624904  0.79927961  1
  O  O414  1  0.45831491  0.92026425  0.30561247  1
  O  O415  1  0.45422489  0.91618353  0.79947776  1
  O  O416  1  0.78880661  0.41756050  0.30769047  1
  O  O417  1  0.79299872  0.41792933  0.80290908  1
  O  O418  1  0.79095082  0.91744976  0.30198186  1
  O  O419  1  0.79037901  0.91437967  0.80303436  1
  O  O420  1  0.28921700  0.16731889  0.30334175  1
  O  O421  1  0.28640309  0.17032770  0.80697466  1
  O  O422  1  0.29055026  0.66775859  0.30477617  1
  O  O423  1  0.28741477  0.66142546  0.80795558  1
  O  O424  1  0.62431107  0.16937683  0.30667661  1
  O  O425  1  0.62043797  0.17468649  0.80586165  1
  O  O426  1  0.63323535  0.66814970  0.31099829  1
  O  O427  1  0.62535420  0.65985577  0.80563150  1
  O  O428  1  0.95495531  0.17359800  0.30589909  1
  O  O429  1  0.95749946  0.16931141  0.80007312  1
  O  O430  1  0.95569532  0.66395563  0.30765454  1
  O  O431  1  0.95696870  0.66418517  0.80475979  1
  F  F432  1  0.04592172  -0.00085725  0.20044978  1
  F  F433  1  0.04977769  0.00943637  0.69568003  1
  F  F434  1  0.03291654  0.50077907  0.20246764  1
  F  F435  1  0.04328466  0.50003594  0.70064925  1
  F  F436  1  0.38240394  0.00153387  0.20457179  1
  F  F437  1  0.37211897  -0.00381241  0.69705519  1
  F  F438  1  0.37731595  0.49619081  0.20207917  1
  F  F439  1  0.37698575  0.50242572  0.70304144  1
  F  F440  1  0.70642591  0.00353971  0.20206161  1
  F  F441  1  0.71437553  -0.01333208  0.69436324  1
  F  F442  1  0.71240302  0.49917122  0.20699478  1
  F  F443  1  0.71308424  0.49960695  0.70082965  1
  F  F444  1  0.21127900  0.25215268  0.20206313  1
  F  F445  1  0.21023647  0.25346057  0.70192342  1
  F  F446  1  0.21411199  0.75111618  0.20625408  1
  F  F447  1  0.21076254  0.74359605  0.70226854  1
  F  F448  1  0.54573465  0.25212718  0.20525166  1
  F  F449  1  0.54610303  0.25432739  0.70129696  1
  F  F450  1  0.54708161  0.75263640  0.20644998  1
  F  F451  1  0.54228530  0.74161660  0.69822566  1
  F  F452  1  0.87607169  0.25507483  0.20343919  1
  F  F453  1  0.88246386  0.26196183  0.69215379  1
  F  F454  1  0.88108121  0.74645902  0.20595850  1
  F  F455  1  0.87936325  0.74499597  0.69779576  1
  F  F456  1  0.29146579  0.00293690  0.30096577  1
  F  F457  1  0.28759872  -0.00255904  0.79589269  1
  F  F458  1  0.30062560  0.49884086  0.30478339  1
  F  F459  1  0.28549721  0.49914688  0.79863459  1
  F  F460  1  0.62269233  0.00382656  0.30205458  1
  F  F461  1  0.61700451  -0.01193436  0.79798728  1
  F  F462  1  0.62314669  0.49633147  0.30382538  1
  F  F463  1  0.62580520  0.49922985  0.79771835  1
  F  F464  1  0.96699852  0.00096967  0.30168102  1
  F  F465  1  0.95011357  0.00868291  0.79900606  1
  F  F466  1  0.95251182  0.49872802  0.30317235  1
  F  F467  1  0.95462420  0.49967412  0.79712341  1
  F  F468  1  0.12046487  0.25236460  0.29660715  1
  F  F469  1  0.11721431  0.25184522  0.79510071  1
  F  F470  1  0.12191353  0.75097897  0.29926521  1
  F  F471  1  0.11867959  0.74597912  0.79912751  1
  F  F472  1  0.45366956  0.24981801  0.29906129  1
  F  F473  1  0.45297601  0.25485990  0.79803842  1
  F  F474  1  0.45336230  0.75776272  0.30362048  1
  F  F475  1  0.45092530  0.73994296  0.80358529  1
  F  F476  1  0.78746691  0.25381432  0.30011694  1
  F  F477  1  0.78826686  0.25604263  0.79640110  1
  F  F478  1  0.79079174  0.74728575  0.30207838  1
  F  F479  1  0.79570895  0.74689708  0.79911516  1
