# generated using pymatgen
data_K24Na3Li5Mg64Fe17Si79(O5F)48
_symmetry_space_group_name_H-M   'P 1'
_cell_length_a   16.09425809
_cell_length_b   18.58314564
_cell_length_c   20.54761917
_cell_angle_alpha   89.99721452
_cell_angle_beta   100.00158451
_cell_angle_gamma   89.99896234
_symmetry_Int_Tables_number   1
_chemical_formula_structural   K24Na3Li5Mg64Fe17Si79(O5F)48
_chemical_formula_sum   'K24 Na3 Li5 Mg64 Fe17 Si79 O240 F48'
_cell_volume   6052.02955557
_cell_formula_units_Z   1
loop_
 _symmetry_equiv_pos_site_id
 _symmetry_equiv_pos_as_xyz
  1  'x, y, z'
loop_
 _atom_site_type_symbol
 _atom_site_label
 _atom_site_symmetry_multiplicity
 _atom_site_fract_x
 _atom_site_fract_y
 _atom_site_fract_z
 _atom_site_occupancy
  K  K0  1  0.00309772  -0.00641236  0.01167222  1
  K  K1  1  -0.00173650  -0.00243829  0.49288107  1
  K  K2  1  0.00829708  0.50177033  0.00753256  1
  K  K3  1  -0.00720250  0.50065832  0.49274772  1
  K  K4  1  0.34529778  -0.00425250  0.00189104  1
  K  K5  1  0.33081599  -0.00085526  0.49712890  1
  K  K6  1  0.33678343  0.50813264  0.00434442  1
  K  K7  1  0.34096796  0.49153407  0.49321078  1
  K  K8  1  0.66563589  0.00630896  0.00869724  1
  K  K9  1  0.65700845  0.00280415  0.48553526  1
  K  K10  1  0.66681021  0.49841475  0.01208998  1
  K  K11  1  0.66054941  0.51063460  0.48924833  1
  K  K12  1  0.17469005  0.25396566  0.00548177  1
  K  K13  1  0.16453217  0.25840340  0.49849833  1
  K  K14  1  0.17287082  0.74163132  0.00234437  1
  K  K15  1  0.16926960  0.74916717  0.49871766  1
  K  K16  1  0.51257736  0.25205228  0.00755845  1
  K  K17  1  0.48653417  0.25259649  0.49822225  1
  K  K18  1  0.49469103  0.74100606  0.00623985  1
  K  K19  1  0.48662279  0.74085546  0.48838745  1
  K  K20  1  0.82514429  0.25810443  0.01475966  1
  K  K21  1  0.83253317  0.24380749  0.48598687  1
  K  K22  1  0.83488487  0.74701601  0.01060014  1
  K  K23  1  0.82947662  0.75109069  0.48870150  1
  Na  Na24  1  0.16718358  -0.00163546  0.24652507  1
  Na  Na25  1  0.33289111  0.41802095  0.25220874  1
  Na  Na26  1  -0.00313798  0.58213372  0.75324534  1
  Li  Li27  1  0.67087100  0.75073533  0.25047299  1
  Li  Li28  1  0.33728726  0.74992291  0.24741530  1
  Li  Li29  1  0.82858421  0.82874750  0.25052287  1
  Li  Li30  1  0.33223097  0.58482008  0.75601229  1
  Li  Li31  1  0.83608026  0.66343631  0.74934170  1
  Mg  Mg32  1  0.50083705  -0.00336006  0.24750341  1
  Mg  Mg33  1  -0.00201971  0.25193862  0.25068242  1
  Mg  Mg34  1  0.16775189  0.50377934  0.75175142  1
  Mg  Mg35  1  0.83215795  0.50258942  0.25123624  1
  Mg  Mg36  1  0.33221330  0.24889664  0.24976967  1
  Mg  Mg37  1  0.83369178  -0.00477676  0.24907974  1
  Mg  Mg38  1  0.66542805  0.25043502  0.75018934  1
  Mg  Mg39  1  0.00002631  0.25133003  0.74976178  1
  Mg  Mg40  1  0.83295926  0.50223534  0.75121496  1
  Mg  Mg41  1  0.66907421  0.24905050  0.25149248  1
  Mg  Mg42  1  0.33469103  0.25200174  0.74937327  1
  Mg  Mg43  1  0.49718394  0.50149054  0.75240872  1
  Mg  Mg44  1  -0.00109174  0.75106767  0.25199909  1
  Mg  Mg45  1  0.67055378  0.74831290  0.75062547  1
  Mg  Mg46  1  0.49926731  0.00090625  0.74942394  1
  Mg  Mg47  1  0.83429686  -0.00044020  0.74933158  1
  Mg  Mg48  1  0.49873270  0.50230117  0.24970569  1
  Mg  Mg49  1  -0.00324739  0.74738424  0.74885460  1
  Mg  Mg50  1  0.16750606  -0.00097824  0.74632994  1
  Mg  Mg51  1  0.33263000  0.74627743  0.75217260  1
  Mg  Mg52  1  0.16695553  0.49870653  0.25306243  1
  Mg  Mg53  1  -0.00064033  0.08200395  0.24742497  1
  Mg  Mg54  1  0.33239680  0.91503991  0.74936675  1
  Mg  Mg55  1  0.66577374  0.58904732  0.25231198  1
  Mg  Mg56  1  0.66777582  0.91494273  0.74916421  1
  Mg  Mg57  1  0.50227014  0.16475687  0.24920452  1
  Mg  Mg58  1  0.49648312  0.33618066  0.74851549  1
  Mg  Mg59  1  0.33374686  0.91351914  0.24794605  1
  Mg  Mg60  1  -0.00078778  0.41779839  0.75054419  1
  Mg  Mg61  1  0.17058200  0.66677571  0.25328489  1
  Mg  Mg62  1  0.00073448  0.08459832  0.74925218  1
  Mg  Mg63  1  0.33347523  0.08120115  0.24893451  1
  Mg  Mg64  1  0.16727420  0.66555319  0.75369803  1
  Mg  Mg65  1  0.49864014  0.66456221  0.75329821  1
  Mg  Mg66  1  0.66738467  0.08404525  0.24883599  1
  Mg  Mg67  1  0.16799883  0.16667500  0.74888398  1
  Mg  Mg68  1  0.33459864  0.08559237  0.74798861  1
  Mg  Mg69  1  0.83217778  0.33531351  0.74930440  1
  Mg  Mg70  1  0.66742883  0.41652112  0.25036682  1
  Mg  Mg71  1  0.00017113  0.91404405  0.25058095  1
  Mg  Mg72  1  0.00010803  0.41518144  0.25005685  1
  Mg  Mg73  1  0.17059074  0.83208481  0.24788023  1
  Mg  Mg74  1  0.16717465  0.83346279  0.74949909  1
  Mg  Mg75  1  0.49592389  0.16584431  0.74729917  1
  Mg  Mg76  1  0.66458664  0.41684002  0.74913749  1
  Mg  Mg77  1  0.16475691  0.16615800  0.24721365  1
  Mg  Mg78  1  0.66926162  0.58527955  0.74976963  1
  Mg  Mg79  1  0.49879974  0.66828953  0.25036567  1
  Mg  Mg80  1  0.16821301  0.33759495  0.75029410  1
  Mg  Mg81  1  0.00047622  0.91473151  0.74859739  1
  Mg  Mg82  1  0.83241052  0.16451679  0.25057235  1
  Mg  Mg83  1  0.83301611  0.67311975  0.25297368  1
  Mg  Mg84  1  0.50103730  0.33378841  0.25150701  1
  Mg  Mg85  1  0.50072986  0.82903812  0.24824539  1
  Mg  Mg86  1  0.16397182  0.33469121  0.25004534  1
  Mg  Mg87  1  0.66533984  0.08388568  0.74830825  1
  Mg  Mg88  1  0.83495514  0.83091704  0.75048333  1
  Mg  Mg89  1  0.50020513  0.83321240  0.74978910  1
  Mg  Mg90  1  0.66914800  0.91177350  0.24869873  1
  Mg  Mg91  1  0.33565317  0.41971829  0.75021581  1
  Mg  Mg92  1  0.83297794  0.16620341  0.74911322  1
  Mg  Mg93  1  0.83241700  0.33652880  0.25006789  1
  Mg  Mg94  1  0.33488755  0.58636165  0.25093397  1
  Mg  Mg95  1  0.00114885  0.58573611  0.25417833  1
  Fe  Fe96  1  0.14640773  0.41768154  0.39325496  1
  Fe  Fe97  1  0.80076644  0.42195184  0.39143962  1
  Fe  Fe98  1  0.52193996  0.58604801  0.11106683  1
  Fe  Fe99  1  0.69481532  0.16325648  0.10756394  1
  Fe  Fe100  1  0.47739547  0.08699853  0.89002137  1
  Fe  Fe101  1  0.35449212  0.83524417  0.10903960  1
  Fe  Fe102  1  0.35491376  0.33856067  0.60688957  1
  Fe  Fe103  1  0.64139464  0.16660975  0.39078208  1
  Fe  Fe104  1  0.02474127  0.33298662  0.10728471  1
  Fe  Fe105  1  0.69282763  0.33741105  0.10934264  1
  Fe  Fe106  1  0.47966921  0.41393652  0.89262270  1
  Fe  Fe107  1  0.97090362  0.33292229  0.39332531  1
  Fe  Fe108  1  0.30931708  0.66451667  0.89309154  1
  Fe  Fe109  1  0.35433201  0.16321724  0.60536076  1
  Fe  Fe110  1  0.18731371  0.91234746  0.60887311  1
  Fe  Fe111  1  0.47166309  0.58131548  0.39262637  1
  Fe  Fe112  1  0.98055934  0.67036742  0.39199940  1
  Si  Si113  1  0.19493331  0.41277037  0.11193815  1
  Si  Si114  1  0.51925432  0.41652175  0.11266570  1
  Si  Si115  1  0.30649990  0.32389327  0.38545258  1
  Si  Si116  1  0.64761521  0.33036569  0.88470105  1
  Si  Si117  1  0.03168040  0.66621209  0.11642463  1
  Si  Si118  1  0.30320407  0.67123841  0.38722678  1
  Si  Si119  1  0.18726454  0.42524143  0.61385871  1
  Si  Si120  1  0.86223660  0.08536584  0.61425486  1
  Si  Si121  1  0.69515573  0.16573872  0.61400238  1
  Si  Si122  1  0.85774848  0.41624481  0.61441561  1
  Si  Si123  1  0.63782565  0.67074690  0.38814686  1
  Si  Si124  1  0.81067199  0.07704152  0.38776329  1
  Si  Si125  1  0.14662962  0.58446565  0.38998998  1
  Si  Si126  1  0.47576650  0.91514055  0.38470675  1
  Si  Si127  1  0.98253477  0.83801260  0.38858523  1
  Si  Si128  1  0.86103104  0.59201706  0.11657774  1
  Si  Si129  1  0.69275023  0.66800042  0.61473195  1
  Si  Si130  1  0.19129313  0.08667560  0.11301344  1
  Si  Si131  1  0.80716014  0.59237087  0.39029242  1
  Si  Si132  1  0.64199650  0.83557005  0.38467714  1
  Si  Si133  1  0.97061695  0.16681367  0.88460317  1
  Si  Si134  1  0.86002766  0.91910225  0.61438225  1
  Si  Si135  1  0.52784260  0.91256516  0.11124282  1
  Si  Si136  1  0.14074648  0.08394977  0.38181848  1
  Si  Si137  1  0.53230463  0.41976755  0.61138983  1
  Si  Si138  1  0.86202672  0.42753944  0.10881497  1
  Si  Si139  1  0.97713757  0.16013775  0.38672275  1
  Si  Si140  1  0.18312254  0.08077428  0.61062274  1
  Si  Si141  1  0.85325839  0.58019426  0.61551010  1
  Si  Si142  1  0.13766206  0.58238053  0.89072911  1
  Si  Si143  1  0.48656727  0.58361058  0.89126333  1
  Si  Si144  1  0.69435254  0.83485551  0.11537253  1
  Si  Si145  1  0.97063746  0.66934111  0.88581765  1
  Si  Si146  1  0.30620646  0.16201291  0.38289381  1
  Si  Si147  1  0.13985848  0.91842131  0.88488339  1
  Si  Si148  1  0.86197992  0.90972291  0.11596102  1
  Si  Si149  1  0.53102820  0.07973631  0.61007403  1
  Si  Si150  1  0.53028740  0.91296199  0.61397030  1
  Si  Si151  1  0.36190148  0.32795407  0.11622489  1
  Si  Si152  1  0.36333800  0.83064249  0.61258406  1
  Si  Si153  1  0.31011593  0.83731656  0.88765482  1
  Si  Si154  1  0.69694952  0.83317137  0.61415884  1
  Si  Si155  1  0.30117969  0.16739474  0.88761018  1
  Si  Si156  1  0.35092028  0.66787819  0.11326197  1
  Si  Si157  1  0.69488424  0.33184343  0.61399449  1
  Si  Si158  1  0.02918683  0.83120538  0.11426429  1
  Si  Si159  1  0.13444447  0.41603869  0.88655664  1
  Si  Si160  1  0.01875767  0.82783336  0.61223869  1
  Si  Si161  1  0.52146388  0.07868626  0.11151626  1
  Si  Si162  1  0.19224354  0.57799634  0.11617778  1
  Si  Si163  1  0.13556377  0.08388462  0.88430864  1
  Si  Si164  1  0.97568431  0.83278950  0.88658520  1
  Si  Si165  1  0.35772849  0.66442544  0.61703654  1
  Si  Si166  1  0.86483327  0.07457582  0.11170473  1
  Si  Si167  1  0.47006838  0.08004810  0.38599740  1
  Si  Si168  1  0.80965771  0.91625925  0.88479136  1
  Si  Si169  1  0.02340898  0.16405121  0.11088692  1
  Si  Si170  1  0.64675256  0.66841481  0.88657315  1
  Si  Si171  1  0.35696637  0.16353801  0.11309109  1
  Si  Si172  1  0.48049542  0.91527393  0.88624070  1
  Si  Si173  1  0.96954946  0.33220003  0.88457463  1
  Si  Si174  1  0.64491632  0.83220498  0.88462226  1
  Si  Si175  1  0.80845676  0.58346476  0.88599577  1
  Si  Si176  1  0.81036791  0.91363585  0.38448338  1
  Si  Si177  1  0.80788815  0.08115062  0.88400841  1
  Si  Si178  1  0.14369591  0.91850199  0.38373392  1
  Si  Si179  1  0.18416776  0.58931375  0.61629719  1
  Si  Si180  1  0.52660647  0.58625304  0.61588408  1
  Si  Si181  1  0.63656174  0.33472572  0.38987470  1
  Si  Si182  1  0.80706761  0.41898313  0.88467786  1
  Si  Si183  1  0.64778261  0.16897283  0.88416572  1
  Si  Si184  1  0.01841570  0.66662378  0.61621385  1
  Si  Si185  1  0.02577277  0.17149477  0.61465659  1
  Si  Si186  1  0.69452890  0.66983710  0.11417069  1
  Si  Si187  1  0.47353112  0.41019690  0.38702055  1
  Si  Si188  1  0.02486719  0.33690634  0.61617534  1
  Si  Si189  1  0.30159489  0.33483707  0.88867459  1
  Si  Si190  1  0.30725485  0.83633274  0.38449854  1
  Si  Si191  1  0.19012467  0.91967174  0.10898203  1
  O  O192  1  0.27168692  0.11730460  0.08057626  1
  O  O193  1  0.26394353  0.09846469  0.57680854  1
  O  O194  1  0.27079697  0.61159601  0.08628633  1
  O  O195  1  0.26689173  0.62430044  0.58899843  1
  O  O196  1  0.59589636  0.10885538  0.07614250  1
  O  O197  1  0.61729286  0.11188429  0.58510659  1
  O  O198  1  0.61723706  0.62124950  0.07686175  1
  O  O199  1  0.59936425  0.63280005  0.58593262  1
  O  O200  1  0.95147067  0.10189028  0.08555783  1
  O  O201  1  0.94181690  0.12171096  0.58602530  1
  O  O202  1  0.94143236  0.62713975  0.08614622  1
  O  O203  1  0.93675315  0.61365519  0.58943885  1
  O  O204  1  0.11969919  0.36377763  0.07132996  1
  O  O205  1  0.10413915  0.37218615  0.58841031  1
  O  O206  1  0.09971375  0.87577569  0.08112186  1
  O  O207  1  0.09710190  0.84954600  0.57725025  1
  O  O208  1  0.44361809  0.35603059  0.08649290  1
  O  O209  1  0.44964830  0.37886390  0.57473450  1
  O  O210  1  0.45266466  0.86170854  0.07477407  1
  O  O211  1  0.44790743  0.86361612  0.58582942  1
  O  O212  1  0.77994245  0.38277484  0.07369068  1
  O  O213  1  0.77792624  0.36280252  0.58650237  1
  O  O214  1  0.77534872  0.86671991  0.08340278  1
  O  O215  1  0.77254845  0.87571730  0.58517238  1
  O  O216  1  0.28215277  0.38149106  0.08812475  1
  O  O217  1  0.26320699  0.40090783  0.57764540  1
  O  O218  1  0.26266824  0.89554060  0.06843718  1
  O  O219  1  0.28442183  0.87846927  0.57725814  1
  O  O220  1  0.59794092  0.39370671  0.07752135  1
  O  O221  1  0.61495425  0.38292063  0.58500185  1
  O  O222  1  0.61461905  0.88764067  0.08325102  1
  O  O223  1  0.60957647  0.87610612  0.58501829  1
  O  O224  1  0.94211196  0.40174362  0.07551873  1
  O  O225  1  0.94037400  0.38402126  0.58778195  1
  O  O226  1  0.93726183  0.86825988  0.08390599  1
  O  O227  1  0.93743003  0.88237812  0.58480547  1
  O  O228  1  0.10923492  0.13662243  0.08255799  1
  O  O229  1  0.10709354  0.14190635  0.58599622  1
  O  O230  1  0.10487380  0.62328948  0.08460565  1
  O  O231  1  0.10092711  0.63911199  0.58497855  1
  O  O232  1  0.43439970  0.12558667  0.08335562  1
  O  O233  1  0.45105371  0.12396339  0.57410589  1
  O  O234  1  0.42882317  0.64370872  0.07715708  1
  O  O235  1  0.43381375  0.62211664  0.58712884  1
  O  O236  1  0.78488182  0.11820792  0.07283151  1
  O  O237  1  0.77836959  0.13374394  0.58637855  1
  O  O238  1  0.78110602  0.64363167  0.08542420  1
  O  O239  1  0.76668136  0.62565960  0.58336284  1
  O  O240  1  0.05892932  0.10680941  0.41477224  1
  O  O241  1  0.05537422  0.12006546  0.91290643  1
  O  O242  1  0.06467444  0.60286224  0.42389373  1
  O  O243  1  0.05329451  0.61970441  0.91488685  1
  O  O244  1  0.38156890  0.10456070  0.41085349  1
  O  O245  1  0.38152190  0.12107848  0.92235354  1
  O  O246  1  0.38066511  0.62377778  0.42662922  1
  O  O247  1  0.40770975  0.61160483  0.92387154  1
  O  O248  1  0.73650009  0.10820675  0.42401508  1
  O  O249  1  0.72644811  0.11234908  0.91146225  1
  O  O250  1  0.72318579  0.62441615  0.41792152  1
  O  O251  1  0.72952379  0.61877336  0.91668827  1
  O  O252  1  0.23151960  0.34855328  0.42293321  1
  O  O253  1  0.21828485  0.36908705  0.91623762  1
  O  O254  1  0.22940828  0.87301415  0.41684325  1
  O  O255  1  0.23065343  0.88146740  0.91260790  1
  O  O256  1  0.54567241  0.34939360  0.41560375  1
  O  O257  1  0.56842895  0.34687435  0.91987297  1
  O  O258  1  0.56408866  0.87306716  0.41719955  1
  O  O259  1  0.56132099  0.85988935  0.91246783  1
  O  O260  1  0.87993381  0.35707949  0.43284609  1
  O  O261  1  0.89016524  0.36866736  0.91271764  1
  O  O262  1  0.89656762  0.86869358  0.41518618  1
  O  O263  1  0.89610269  0.87150784  0.91505600  1
  O  O264  1  0.05688620  0.39254775  0.43395735  1
  O  O265  1  0.05526228  0.37637760  0.91407002  1
  O  O266  1  0.06128856  0.89541178  0.41702811  1
  O  O267  1  0.06280895  0.87801357  0.91508886  1
  O  O268  1  0.38782758  0.37675109  0.41019868  1
  O  O269  1  0.38262213  0.37957952  0.92391368  1
  O  O270  1  0.39643005  0.87928217  0.41482548  1
  O  O271  1  0.39582356  0.88617846  0.91287400  1
  O  O272  1  0.69854308  0.39968754  0.42012145  1
  O  O273  1  0.72630202  0.38615079  0.91284770  1
  O  O274  1  0.73006799  0.87987638  0.41576905  1
  O  O275  1  0.72831315  0.88298150  0.91311830  1
  O  O276  1  0.22188334  0.13558738  0.41196167  1
  O  O277  1  0.21774225  0.13179571  0.91429133  1
  O  O278  1  0.21574255  0.64990351  0.41433815  1
  O  O279  1  0.21939154  0.62309298  0.93045672  1
  O  O280  1  0.54690659  0.12851262  0.42393650  1
  O  O281  1  0.56960953  0.14903441  0.91967870  1
  O  O282  1  0.56521341  0.64026415  0.42704058  1
  O  O283  1  0.56572147  0.64210155  0.91705362  1
  O  O284  1  0.89864506  0.12100532  0.41610829  1
  O  O285  1  0.89204510  0.12888525  0.91294400  1
  O  O286  1  0.88177260  0.64736920  0.42290179  1
  O  O287  1  0.89155980  0.63263060  0.91622628  1
  O  O288  1  0.16638297  0.00475779  0.08632436  1
  O  O289  1  0.14292313  0.00396666  0.58325159  1
  O  O290  1  0.17964104  0.49677344  0.08383698  1
  O  O291  1  0.16137729  0.50786458  0.58738309  1
  O  O292  1  0.50334316  -0.00451163  0.08430481  1
  O  O293  1  0.52239148  -0.00525250  0.58372157  1
  O  O294  1  0.48490554  0.49361720  0.08222299  1
  O  O295  1  0.53024819  0.50481043  0.58638806  1
  O  O296  1  0.85500290  -0.00935674  0.08292770  1
  O  O297  1  0.84878808  0.00257043  0.58615968  1
  O  O298  1  0.84434983  0.51262758  0.08297697  1
  O  O299  1  0.83908133  0.49756825  0.58471842  1
  O  O300  1  -0.00595524  0.23881572  0.07393751  1
  O  O301  1  0.00696439  0.25403749  0.58783871  1
  O  O302  1  0.02645667  0.74845389  0.08456433  1
  O  O303  1  -0.01275007  0.74662824  0.58638524  1
  O  O304  1  0.34050486  0.24598688  0.08385924  1
  O  O305  1  0.32898610  0.25081235  0.56546036  1
  O  O306  1  0.31566460  0.74432222  0.08089498  1
  O  O307  1  0.35313529  0.74662149  0.58491888  1
  O  O308  1  0.67823370  0.25002187  0.06446013  1
  O  O309  1  0.67842446  0.24836382  0.58665203  1
  O  O310  1  0.67889593  0.75336204  0.08409313  1
  O  O311  1  0.69144895  0.75111085  0.58515868  1
  O  O312  1  0.16686971  0.00194309  0.40836740  1
  O  O313  1  0.14331985  0.00147191  0.91377406  1
  O  O314  1  0.18877132  0.50966491  0.42027145  1
  O  O315  1  0.13823503  0.49734092  0.91744248  1
  O  O316  1  0.48674185  -0.00301984  0.41545921  1
  O  O317  1  0.50695037  -0.00786193  0.92016778  1
  O  O318  1  0.49237230  0.48628790  0.42600303  1
  O  O319  1  0.51913626  0.50569023  0.92183346  1
  O  O320  1  0.82782967  -0.00572874  0.41744801  1
  O  O321  1  0.82535416  -0.00112071  0.91289631  1
  O  O322  1  0.82865043  0.51471213  0.42542002  1
  O  O323  1  0.82537014  0.50062390  0.91494979  1
  O  O324  1  0.33583783  0.24110729  0.41251320  1
  O  O325  1  0.30565067  0.25051061  0.91564476  1
  O  O326  1  0.32100508  0.75536905  0.41548868  1
  O  O327  1  0.32122846  0.76127224  0.92491934  1
  O  O328  1  0.67098750  0.25833582  0.42406664  1
  O  O329  1  0.68651498  0.24928582  0.90510412  1
  O  O330  1  0.65619667  0.75490359  0.41642178  1
  O  O331  1  0.67005755  0.75134258  0.91339973  1
  O  O332  1  0.99710064  0.23601037  0.42336711  1
  O  O333  1  0.98131391  0.24909092  0.91292515  1
  O  O334  1  1.00959935  0.76343705  0.42669540  1
  O  O335  1  0.98528687  0.75176636  0.91891985  1
  O  O336  1  0.21461123  0.09084362  0.19199331  1
  O  O337  1  0.20502327  0.08407415  0.69287521  1
  O  O338  1  0.20691813  0.58188811  0.19597547  1
  O  O339  1  0.20061140  0.58651501  0.69572583  1
  O  O340  1  0.54037456  0.08038831  0.19234172  1
  O  O341  1  0.54708399  0.08095542  0.69122339  1
  O  O342  1  0.54678670  0.58570842  0.20159580  1
  O  O343  1  0.54546616  0.58625916  0.69633557  1
  O  O344  1  0.87615250  0.07916472  0.19251133  1
  O  O345  1  0.87807272  0.08399786  0.69502208  1
  O  O346  1  0.87762308  0.58748042  0.19636524  1
  O  O347  1  0.86498905  0.57974676  0.69411551  1
  O  O348  1  0.04312756  0.33078343  0.19806803  1
  O  O349  1  0.04183156  0.33348135  0.69693890  1
  O  O350  1  0.04556034  0.83276962  0.19398595  1
  O  O351  1  0.03937560  0.83377224  0.69344272  1
  O  O352  1  0.38094173  0.32323782  0.19538883  1
  O  O353  1  0.37552614  0.33403734  0.69953476  1
  O  O354  1  0.38150263  0.83720919  0.19908060  1
  O  O355  1  0.37913732  0.83267189  0.69380776  1
  O  O356  1  0.71088434  0.33160138  0.20129624  1
  O  O357  1  0.71155128  0.33165645  0.69490326  1
  O  O358  1  0.71057323  0.83626397  0.19394513  1
  O  O359  1  0.71288855  0.83461222  0.69463869  1
  O  O360  1  0.20047223  0.41448947  0.19094858  1
  O  O361  1  0.20794848  0.41950674  0.69495850  1
  O  O362  1  0.21401258  0.90930407  0.18797010  1
  O  O363  1  0.21087414  0.91514462  0.70113170  1
  O  O364  1  0.54156014  0.41521217  0.19410537  1
  O  O365  1  0.54682101  0.41711136  0.69232388  1
  O  O366  1  0.54510150  0.91450670  0.19214101  1
  O  O367  1  0.54693684  0.91502974  0.69472584  1
  O  O368  1  0.87777020  0.42282124  0.18976672  1
  O  O369  1  0.87480021  0.41565034  0.69512272  1
  O  O370  1  0.87968696  0.91442505  0.19514359  1
  O  O371  1  0.87663973  0.91842915  0.69512701  1
  O  O372  1  0.04137748  0.16563511  0.19169009  1
  O  O373  1  0.04120803  0.16794801  0.69554434  1
  O  O374  1  0.04776873  0.66707789  0.19598672  1
  O  O375  1  0.04469962  0.67247773  0.69531559  1
  O  O376  1  0.37628372  0.16314984  0.19345704  1
  O  O377  1  0.37484817  0.16790290  0.69835677  1
  O  O378  1  0.37422731  0.66668014  0.19334380  1
  O  O379  1  0.38065945  0.66944935  0.69640736  1
  O  O380  1  0.71401812  0.16417814  0.19965845  1
  O  O381  1  0.71241534  0.16547838  0.69481242  1
  O  O382  1  0.71322074  0.66615262  0.19395163  1
  O  O383  1  0.70795816  0.66838945  0.69456766  1
  O  O384  1  0.11844864  0.08944293  0.30265189  1
  O  O385  1  0.11999082  0.08336814  0.80361245  1
  O  O386  1  0.12378617  0.58514259  0.30834108  1
  O  O387  1  0.13028445  0.58316255  0.81128427  1
  O  O388  1  0.45783870  0.08116009  0.30516926  1
  O  O389  1  0.45723415  0.08233348  0.79807769  1
  O  O390  1  0.45433312  0.58451997  0.30236644  1
  O  O391  1  0.46841531  0.58469900  0.81034945  1
  O  O392  1  0.79212029  0.07852860  0.30703331  1
  O  O393  1  0.79173161  0.08187050  0.80309730  1
  O  O394  1  0.79040226  0.58808390  0.30884131  1
  O  O395  1  0.78779493  0.58127641  0.80647044  1
  O  O396  1  0.28304046  0.32172092  0.30576116  1
  O  O397  1  0.28615269  0.33425863  0.80758436  1
  O  O398  1  0.28709936  0.83926632  0.30546296  1
  O  O399  1  0.29188826  0.83414607  0.80656021  1
  O  O400  1  0.62224965  0.33112210  0.30832416  1
  O  O401  1  0.62623421  0.33390829  0.80330099  1
  O  O402  1  0.62129824  0.83892094  0.30569067  1
  O  O403  1  0.62676034  0.83407558  0.80394766  1
  O  O404  1  0.95250477  0.33357434  0.30027446  1
  O  O405  1  0.95350790  0.33087731  0.80398275  1
  O  O406  1  0.96563640  0.83466764  0.30877235  1
  O  O407  1  0.95669548  0.83579817  0.80620370  1
  O  O408  1  0.12177117  0.41677930  0.30104841  1
  O  O409  1  0.11968386  0.41553120  0.80621085  1
  O  O410  1  0.12174895  0.90933399  0.30492538  1
  O  O411  1  0.11929194  0.91804246  0.80445359  1
  O  O412  1  0.46687171  0.41626043  0.30766735  1
  O  O413  1  0.45833244  0.41723777  0.80079397  1
  O  O414  1  0.46009031  0.91645307  0.30497589  1
  O  O415  1  0.46096944  0.91566273  0.80468704  1
  O  O416  1  0.78984484  0.41976505  0.29946535  1
  O  O417  1  0.78876707  0.41667499  0.80398097  1
  O  O418  1  0.78920839  0.91794133  0.30533980  1
  O  O419  1  0.79197261  0.91684879  0.80416486  1
  O  O420  1  0.28881002  0.16268594  0.30253488  1
  O  O421  1  0.28581924  0.16631062  0.80645005  1
  O  O422  1  0.28912775  0.66733533  0.30740812  1
  O  O423  1  0.28661612  0.66974068  0.80249295  1
  O  O424  1  0.62104057  0.16370227  0.29958073  1
  O  O425  1  0.62622610  0.16472724  0.80272753  1
  O  O426  1  0.62018572  0.66764366  0.30869401  1
  O  O427  1  0.62809234  0.66778993  0.80591032  1
  O  O428  1  0.95659711  0.16262261  0.30557769  1
  O  O429  1  0.95459657  0.16617512  0.80382227  1
  O  O430  1  0.95756778  0.66895865  0.30057019  1
  O  O431  1  0.95127188  0.67665715  0.80750526  1
  F  F432  1  0.03273061  -0.00260293  0.19732887  1
  F  F433  1  0.04160913  0.00070505  0.70168105  1
  F  F434  1  0.04430337  0.50463092  0.20281139  1
  F  F435  1  0.04820262  0.49167377  0.70140511  1
  F  F436  1  0.38036378  0.00015033  0.19916781  1
  F  F437  1  0.37881859  -0.00360260  0.70047016  1
  F  F438  1  0.38034132  0.50779143  0.19859842  1
  F  F439  1  0.38038150  0.50254156  0.70196911  1
  F  F440  1  0.71271813  -0.00092865  0.20114867  1
  F  F441  1  0.71420762  -0.00070284  0.70053224  1
  F  F442  1  0.71156027  0.50478234  0.20200802  1
  F  F443  1  0.71136752  0.49943402  0.70137528  1
  F  F444  1  0.21091369  0.24838243  0.19936405  1
  F  F445  1  0.20891054  0.25171670  0.70356596  1
  F  F446  1  0.20536441  0.74807544  0.20023793  1
  F  F447  1  0.21128761  0.75233245  0.70200290  1
  F  F448  1  0.54491671  0.24943108  0.20165356  1
  F  F449  1  0.54711452  0.24938595  0.70151817  1
  F  F450  1  0.54298345  0.74927142  0.20033560  1
  F  F451  1  0.54835653  0.75029128  0.70374065  1
  F  F452  1  0.87699197  0.24636032  0.20142716  1
  F  F453  1  0.87819295  0.24924808  0.70073183  1
  F  F454  1  0.88247898  0.75012768  0.19838718  1
  F  F455  1  0.87849579  0.75717718  0.69860146  1
  F  F456  1  0.30081133  -0.00181929  0.29873362  1
  F  F457  1  0.28794637  0.00244821  0.79720306  1
  F  F458  1  0.28402891  0.50955591  0.30098121  1
  F  F459  1  0.28500734  0.49591438  0.79995168  1
  F  F460  1  0.62160211  -0.00135981  0.29564009  1
  F  F461  1  0.62462783  -0.00117416  0.79606092  1
  F  F462  1  0.62323500  0.49986563  0.29791539  1
  F  F463  1  0.62363735  0.50093333  0.79608516  1
  F  F464  1  0.95461546  -0.00084119  0.29843238  1
  F  F465  1  0.95442311  0.00052928  0.79828346  1
  F  F466  1  0.95389719  0.50103343  0.29744317  1
  F  F467  1  0.94781650  0.48811019  0.80426649  1
  F  F468  1  0.12009425  0.24612588  0.29700118  1
  F  F469  1  0.11895706  0.24944357  0.79844813  1
  F  F470  1  0.12211960  0.75111279  0.29821644  1
  F  F471  1  0.11835506  0.75394435  0.79879851  1
  F  F472  1  0.45401058  0.24524146  0.29771090  1
  F  F473  1  0.45762637  0.24956853  0.79866825  1
  F  F474  1  0.46096042  0.75103738  0.30251529  1
  F  F475  1  0.45731315  0.75197382  0.79875211  1
  F  F476  1  0.79171304  0.24682540  0.30159118  1
  F  F477  1  0.78998366  0.24898356  0.79658155  1
  F  F478  1  0.79005232  0.75115473  0.30135017  1
  F  F479  1  0.78600776  0.75773412  0.80163675  1
