# generated using pymatgen
data_K24Na3Li5Mg64Fe17Si79(O5F)48
_symmetry_space_group_name_H-M   'P 1'
_cell_length_a   16.08548915
_cell_length_b   18.60537188
_cell_length_c   20.56326776
_cell_angle_alpha   89.99785369
_cell_angle_beta   100.01294829
_cell_angle_gamma   90.00995474
_symmetry_Int_Tables_number   1
_chemical_formula_structural   K24Na3Li5Mg64Fe17Si79(O5F)48
_chemical_formula_sum   'K24 Na3 Li5 Mg64 Fe17 Si79 O240 F48'
_cell_volume   6060.36655483
_cell_formula_units_Z   1
loop_
 _symmetry_equiv_pos_site_id
 _symmetry_equiv_pos_as_xyz
  1  'x, y, z'
loop_
 _atom_site_type_symbol
 _atom_site_label
 _atom_site_symmetry_multiplicity
 _atom_site_fract_x
 _atom_site_fract_y
 _atom_site_fract_z
 _atom_site_occupancy
  K  K0  1  -0.00047312  0.00409042  0.00381833  1
  K  K1  1  0.02373352  0.00801428  0.50599199  1
  K  K2  1  -0.00198442  0.49079498  -0.01134005  1
  K  K3  1  0.01064818  0.50155833  0.51663279  1
  K  K4  1  0.33559815  -0.00210094  -0.00419858  1
  K  K5  1  0.32796149  0.00738640  0.50228575  1
  K  K6  1  0.32086081  0.49914115  -0.01345961  1
  K  K7  1  0.33559000  0.49391370  0.50678696  1
  K  K8  1  0.66608899  0.00073462  0.00304310  1
  K  K9  1  0.65952596  -0.00109216  0.49433146  1
  K  K10  1  0.66695768  0.49738379  -0.00826690  1
  K  K11  1  0.66596953  0.49323903  0.50731508  1
  K  K12  1  0.17252473  0.25080062  -0.01490180  1
  K  K13  1  0.17962538  0.24822863  0.51287171  1
  K  K14  1  0.17361703  0.75861106  -0.00156415  1
  K  K15  1  0.16947356  0.75233031  0.50315116  1
  K  K16  1  0.49580674  0.24192679  -0.01007538  1
  K  K17  1  0.49855414  0.25147924  0.50145784  1
  K  K18  1  0.48601214  0.74922588  -0.00099129  1
  K  K19  1  0.49004415  0.74959309  0.49638364  1
  K  K20  1  0.82655610  0.25160522  -0.01423983  1
  K  K21  1  0.83491364  0.25121679  0.50795252  1
  K  K22  1  0.83649977  0.75575811  0.00103135  1
  K  K23  1  0.83882619  0.74809407  0.50031238  1
  Na  Na24  1  0.17386912  0.00046466  0.74896961  1
  Na  Na25  1  0.16576529  0.33428353  0.75157447  1
  Na  Na26  1  0.83284620  0.33150730  0.75528060  1
  Li  Li27  1  0.16716385  0.49668898  0.74800913  1
  Li  Li28  1  0.49792684  0.00345417  0.25408208  1
  Li  Li29  1  0.16879511  0.16293655  0.25681638  1
  Li  Li30  1  0.33432389  0.08594611  0.75123041  1
  Li  Li31  1  0.83139785  0.83930286  0.24230776  1
  Mg  Mg32  1  -0.00276471  0.75243001  0.24346368  1
  Mg  Mg33  1  0.66412296  0.24848385  0.25299345  1
  Mg  Mg34  1  0.49828123  0.50009193  0.25403409  1
  Mg  Mg35  1  0.66880631  0.75361577  0.24650708  1
  Mg  Mg36  1  0.66759168  0.74985230  0.75246593  1
  Mg  Mg37  1  0.16498867  0.00368724  0.24924200  1
  Mg  Mg38  1  0.00329629  0.24928969  0.75101779  1
  Mg  Mg39  1  0.49727998  -0.00009802  0.74821594  1
  Mg  Mg40  1  0.33036760  0.24737223  0.25348907  1
  Mg  Mg41  1  0.66882099  0.24906951  0.75385977  1
  Mg  Mg42  1  0.00131103  0.74884533  0.74662786  1
  Mg  Mg43  1  0.83491017  0.00134455  0.74750924  1
  Mg  Mg44  1  0.83177016  0.50205687  0.24843019  1
  Mg  Mg45  1  0.83235706  -0.00216603  0.24377451  1
  Mg  Mg46  1  0.49932365  0.49903904  0.75917304  1
  Mg  Mg47  1  0.33102426  0.74526335  0.75059895  1
  Mg  Mg48  1  0.83239670  0.49916381  0.75286770  1
  Mg  Mg49  1  0.16655055  0.49837473  0.24967675  1
  Mg  Mg50  1  -0.00097917  0.24859337  0.25082505  1
  Mg  Mg51  1  0.33329156  0.24576738  0.75083630  1
  Mg  Mg52  1  0.33506213  0.75190679  0.24800098  1
  Mg  Mg53  1  0.49819249  0.83208555  0.74848073  1
  Mg  Mg54  1  0.83411300  0.83443520  0.74916172  1
  Mg  Mg55  1  -0.00115206  0.41579292  0.24922351  1
  Mg  Mg56  1  0.66632685  0.08476590  0.75010077  1
  Mg  Mg57  1  0.66209114  0.08243424  0.25039868  1
  Mg  Mg58  1  0.32994351  0.41577573  0.75415290  1
  Mg  Mg59  1  0.50088688  0.33204848  0.75787427  1
  Mg  Mg60  1  0.49991850  0.66642266  0.25073162  1
  Mg  Mg61  1  0.66626122  0.91718467  0.24244251  1
  Mg  Mg62  1  0.00121645  0.41642028  0.75213200  1
  Mg  Mg63  1  0.66885952  0.58361187  0.75723897  1
  Mg  Mg64  1  0.83332073  0.16608363  0.74992808  1
  Mg  Mg65  1  0.33652005  0.58401193  0.25213614  1
  Mg  Mg66  1  0.16683239  0.33057448  0.25192551  1
  Mg  Mg67  1  0.16407919  0.66111669  0.74990231  1
  Mg  Mg68  1  0.50035635  0.16231044  0.75091954  1
  Mg  Mg69  1  0.49984262  0.83817737  0.24645296  1
  Mg  Mg70  1  -0.00313532  0.91638322  0.24580026  1
  Mg  Mg71  1  0.83536648  0.66577125  0.75103130  1
  Mg  Mg72  1  0.00107280  0.91727507  0.74725498  1
  Mg  Mg73  1  0.50042809  0.33376758  0.25561357  1
  Mg  Mg74  1  0.33304443  0.08348842  0.25329329  1
  Mg  Mg75  1  0.33161350  0.91618497  0.74898584  1
  Mg  Mg76  1  0.17009763  0.16659646  0.75210580  1
  Mg  Mg77  1  -0.00000932  0.08537850  0.24642616  1
  Mg  Mg78  1  -0.00078649  0.58482092  0.24713687  1
  Mg  Mg79  1  0.83020045  0.16478736  0.24783371  1
  Mg  Mg80  1  0.00251246  0.58207284  0.74708590  1
  Mg  Mg81  1  0.49986335  0.16246824  0.25330064  1
  Mg  Mg82  1  0.00384620  0.08464662  0.74656400  1
  Mg  Mg83  1  0.66484502  0.41646109  0.25192583  1
  Mg  Mg84  1  0.49938029  0.66411883  0.75392733  1
  Mg  Mg85  1  0.33641383  0.41490873  0.25435970  1
  Mg  Mg86  1  0.66520616  0.58616841  0.24988760  1
  Mg  Mg87  1  0.33079943  0.57960563  0.75355618  1
  Mg  Mg88  1  0.66489738  0.91663549  0.74793641  1
  Mg  Mg89  1  0.83234603  0.67037921  0.24536141  1
  Mg  Mg90  1  0.16771975  0.66587038  0.24898458  1
  Mg  Mg91  1  0.33716128  0.91826458  0.24835317  1
  Mg  Mg92  1  0.16700086  0.83604345  0.24635687  1
  Mg  Mg93  1  0.16512373  0.83291001  0.74665508  1
  Mg  Mg94  1  0.83107177  0.33475011  0.24910942  1
  Mg  Mg95  1  0.66679313  0.41367722  0.75452677  1
  Fe  Fe96  1  0.20657481  0.08709258  0.61173184  1
  Fe  Fe97  1  0.19633576  0.58086795  0.60962860  1
  Fe  Fe98  1  0.02587621  0.66973446  0.60642426  1
  Fe  Fe99  1  0.80866525  0.42042156  0.89579220  1
  Fe  Fe100  1  0.85745341  0.91628768  0.10445632  1
  Fe  Fe101  1  0.48142072  0.58841327  0.39325780  1
  Fe  Fe102  1  0.30860103  0.33284535  0.89308164  1
  Fe  Fe103  1  0.35896097  0.83648615  0.10703911  1
  Fe  Fe104  1  0.53202872  0.07795957  0.61045883  1
  Fe  Fe105  1  0.47663255  0.58648856  0.89462009  1
  Fe  Fe106  1  0.64481259  0.16565336  0.39175637  1
  Fe  Fe107  1  0.13302707  0.08695718  0.38710032  1
  Fe  Fe108  1  0.64169364  0.32543956  0.89647368  1
  Fe  Fe109  1  0.02836134  0.16722044  0.60866784  1
  Fe  Fe110  1  0.46830228  0.08316221  0.39280660  1
  Fe  Fe111  1  0.69779280  0.16820799  0.61036265  1
  Fe  Fe112  1  0.48148684  0.41519255  0.39501006  1
  Si  Si113  1  0.97615098  0.83113884  0.37998353  1
  Si  Si114  1  0.52370185  0.42230364  0.61986967  1
  Si  Si115  1  0.47360449  0.07562282  0.88596535  1
  Si  Si116  1  0.19074413  0.92251631  0.11094685  1
  Si  Si117  1  0.64443454  0.83831028  0.88496004  1
  Si  Si118  1  0.37383129  0.17311059  0.61350418  1
  Si  Si119  1  0.53186740  0.58634406  0.62050178  1
  Si  Si120  1  0.35692844  0.16481127  0.11491774  1
  Si  Si121  1  0.02781130  0.66367493  0.11189740  1
  Si  Si122  1  0.30027064  0.66657540  0.89031219  1
  Si  Si123  1  0.52953575  0.91920521  0.10765390  1
  Si  Si124  1  0.52587319  0.08622875  0.11316781  1
  Si  Si125  1  0.97619906  0.83469447  0.88402419  1
  Si  Si126  1  0.69158956  0.83170518  0.61458791  1
  Si  Si127  1  0.30518733  0.33627035  0.38871261  1
  Si  Si128  1  0.52103463  0.90956088  0.61222326  1
  Si  Si129  1  0.81310426  0.08009922  0.88579444  1
  Si  Si130  1  0.97361734  0.67190312  0.88584680  1
  Si  Si131  1  0.81093052  0.91729433  0.88362902  1
  Si  Si132  1  0.19007043  0.41494832  0.61380302  1
  Si  Si133  1  0.68741148  0.66425982  0.11166007  1
  Si  Si134  1  0.96142462  0.16873907  0.38438909  1
  Si  Si135  1  0.13646648  0.41514456  0.38426166  1
  Si  Si136  1  0.36560231  0.66234603  0.61525629  1
  Si  Si137  1  0.31058542  0.16219850  0.89091672  1
  Si  Si138  1  0.30214689  0.66446949  0.38635891  1
  Si  Si139  1  0.96909878  0.33521859  0.38401457  1
  Si  Si140  1  0.14123428  0.08159117  0.88676657  1
  Si  Si141  1  0.19296974  0.41313181  0.11623669  1
  Si  Si142  1  0.85735204  0.58549846  0.11229217  1
  Si  Si143  1  0.52313158  0.41539078  0.11650497  1
  Si  Si144  1  0.47748008  0.91007513  0.38608719  1
  Si  Si145  1  0.64851201  0.83752179  0.38091534  1
  Si  Si146  1  0.02988449  0.83081831  0.10799984  1
  Si  Si147  1  0.35762550  0.82524938  0.61476854  1
  Si  Si148  1  0.64743047  0.67522052  0.38521595  1
  Si  Si149  1  0.86406248  0.08101949  0.61248691  1
  Si  Si150  1  0.68557784  0.33705423  0.61455765  1
  Si  Si151  1  0.69040924  0.33673673  0.11548547  1
  Si  Si152  1  0.85513989  0.42068224  0.61715592  1
  Si  Si153  1  0.97868336  0.32954877  0.89008103  1
  Si  Si154  1  0.81102350  0.59105913  0.89088587  1
  Si  Si155  1  0.85767944  0.41918074  0.11402641  1
  Si  Si156  1  0.85431946  0.91906851  0.61398497  1
  Si  Si157  1  0.02211303  0.17143493  0.11334568  1
  Si  Si158  1  0.30427412  0.83205588  0.88382940  1
  Si  Si159  1  0.47280882  0.91129319  0.88397504  1
  Si  Si160  1  0.69461761  0.66669455  0.61763448  1
  Si  Si161  1  0.02361471  0.33536114  0.11408691  1
  Si  Si162  1  0.13299070  0.58501350  0.88790485  1
  Si  Si163  1  0.14190144  0.91497807  0.38423406  1
  Si  Si164  1  0.13950843  0.91630388  0.88368746  1
  Si  Si165  1  0.30699262  0.83040353  0.38321654  1
  Si  Si166  1  0.35655065  0.66376458  0.11168368  1
  Si  Si167  1  0.19283194  0.57833666  0.11448853  1
  Si  Si168  1  0.30070973  0.17124527  0.38871520  1
  Si  Si169  1  0.13573596  0.42030796  0.89029445  1
  Si  Si170  1  0.64507333  0.67472708  0.89085233  1
  Si  Si171  1  0.80744969  0.42280833  0.38424395  1
  Si  Si172  1  0.35983980  0.33680143  0.61780178  1
  Si  Si173  1  0.52400096  0.57993820  0.11492656  1
  Si  Si174  1  0.35861553  0.32998671  0.11717486  1
  Si  Si175  1  0.68963732  0.17157566  0.11281973  1
  Si  Si176  1  0.85531521  0.08915823  0.10794740  1
  Si  Si177  1  0.68873572  0.82958766  0.10720033  1
  Si  Si178  1  0.97333578  0.66701439  0.38095970  1
  Si  Si179  1  0.47623696  0.41608026  0.89520006  1
  Si  Si180  1  0.19487132  0.91127720  0.61155966  1
  Si  Si181  1  0.97807587  0.16379448  0.88728255  1
  Si  Si182  1  0.80528265  0.07751664  0.38170120  1
  Si  Si183  1  0.01993225  0.83882844  0.61002518  1
  Si  Si184  1  0.81286790  0.91728547  0.37847430  1
  Si  Si185  1  0.85680194  0.58296981  0.61345964  1
  Si  Si186  1  0.64333527  0.15476030  0.89155128  1
  Si  Si187  1  0.18894967  0.08714511  0.11590700  1
  Si  Si188  1  0.65165689  0.33155643  0.38915105  1
  Si  Si189  1  0.80796273  0.58729141  0.38245820  1
  Si  Si190  1  0.13615589  0.58124293  0.38275162  1
  Si  Si191  1  0.01654180  0.33612798  0.61357484  1
  O  O192  1  0.26780427  0.12302747  0.08417824  1
  O  O193  1  0.29915857  0.12135225  0.57640169  1
  O  O194  1  0.27127563  0.61394330  0.08489089  1
  O  O195  1  0.29785338  0.60624670  0.57870422  1
  O  O196  1  0.60052576  0.13025432  0.08194931  1
  O  O197  1  0.62868483  0.09323154  0.57699654  1
  O  O198  1  0.60458849  0.61351804  0.08482014  1
  O  O199  1  0.61360679  0.61545868  0.58939994  1
  O  O200  1  0.93447217  0.12980007  0.07978307  1
  O  O201  1  0.95028749  0.09128631  0.58325634  1
  O  O202  1  0.93612386  0.62418590  0.08356347  1
  O  O203  1  0.93046751  0.61028212  0.57554142  1
  O  O204  1  0.10277739  0.37361480  0.08612644  1
  O  O205  1  0.10278297  0.36688904  0.58849193  1
  O  O206  1  0.10967237  0.86971160  0.08152570  1
  O  O207  1  0.10429329  0.86875139  0.58274669  1
  O  O208  1  0.43705699  0.36930854  0.08879023  1
  O  O209  1  0.43653469  0.37942788  0.58838190  1
  O  O210  1  0.44514368  0.87962839  0.06933401  1
  O  O211  1  0.44267127  0.85241511  0.58724732  1
  O  O212  1  0.76987311  0.37554365  0.08785064  1
  O  O213  1  0.76944195  0.37343692  0.58897799  1
  O  O214  1  0.76561026  0.85499106  0.07138793  1
  O  O215  1  0.77352595  0.86445935  0.58587586  1
  O  O216  1  0.26987657  0.37307963  0.08748173  1
  O  O217  1  0.27015936  0.37534670  0.58519283  1
  O  O218  1  0.26586958  0.89547385  0.07401980  1
  O  O219  1  0.27218529  0.86881031  0.58158181  1
  O  O220  1  0.60346711  0.38111568  0.08701451  1
  O  O221  1  0.60370113  0.39192879  0.58799095  1
  O  O222  1  0.60812606  0.88179694  0.07680820  1
  O  O223  1  0.60525051  0.87575848  0.58468949  1
  O  O224  1  0.93702557  0.38188503  0.08567427  1
  O  O225  1  0.93524473  0.39140844  0.58385478  1
  O  O226  1  0.94559948  0.86897834  0.06988420  1
  O  O227  1  0.93882432  0.89413472  0.58513552  1
  O  O228  1  0.10308045  0.13456041  0.08655389  1
  O  O229  1  0.11712474  0.14052449  0.56834939  1
  O  O230  1  0.10275783  0.61858494  0.08417333  1
  O  O231  1  0.11290429  0.64209680  0.56464737  1
  O  O232  1  0.43375041  0.12526242  0.08384904  1
  O  O233  1  0.45913069  0.15398095  0.58438071  1
  O  O234  1  0.43786754  0.62468529  0.08600868  1
  O  O235  1  0.45697526  0.64325600  0.59176770  1
  O  O236  1  0.76857683  0.13746335  0.08180450  1
  O  O237  1  0.79796023  0.14210336  0.58080875  1
  O  O238  1  0.76954647  0.62916105  0.08345689  1
  O  O239  1  0.77368914  0.63524977  0.58651521  1
  O  O240  1  0.03562552  0.11723807  0.41892251  1
  O  O241  1  0.06332707  0.11725108  0.92023194  1
  O  O242  1  0.05295935  0.61381526  0.40896860  1
  O  O243  1  0.05410177  0.62235749  0.91896959  1
  O  O244  1  0.37037819  0.11414380  0.42378766  1
  O  O245  1  0.39784107  0.11364904  0.91839003  1
  O  O246  1  0.38113721  0.61883006  0.42308459  1
  O  O247  1  0.38234397  0.62429724  0.92822724  1
  O  O248  1  0.72265180  0.08942516  0.41430224  1
  O  O249  1  0.73056800  0.10553518  0.91684881  1
  O  O250  1  0.72926702  0.62165704  0.41253559  1
  O  O251  1  0.73042140  0.62757958  0.91918884  1
  O  O252  1  0.21669778  0.36445357  0.41348440  1
  O  O253  1  0.21965163  0.37893079  0.92639345  1
  O  O254  1  0.22752250  0.86628466  0.41178206  1
  O  O255  1  0.22883145  0.87443589  0.91392664  1
  O  O256  1  0.57030498  0.34941599  0.42260306  1
  O  O257  1  0.54348955  0.35403443  0.92603722  1
  O  O258  1  0.56460855  0.86010514  0.41183804  1
  O  O259  1  0.56260454  0.86944917  0.91434085  1
  O  O260  1  0.89115429  0.37445478  0.41284409  1
  O  O261  1  0.90199698  0.35867855  0.92460858  1
  O  O262  1  0.89251924  0.86251835  0.40707666  1
  O  O263  1  0.89294937  0.86596226  0.91229098  1
  O  O264  1  0.05399997  0.38300863  0.41203507  1
  O  O265  1  0.06036235  0.37974336  0.92356795  1
  O  O266  1  0.06210842  0.87494868  0.41220057  1
  O  O267  1  0.06081655  0.88070666  0.91606721  1
  O  O268  1  0.37827067  0.39035103  0.42253379  1
  O  O269  1  0.39252126  0.39928240  0.92742114  1
  O  O270  1  0.39828637  0.86718222  0.41361856  1
  O  O271  1  0.39645248  0.86949665  0.91304351  1
  O  O272  1  0.72499112  0.39575739  0.41292957  1
  O  O273  1  0.72789111  0.38338661  0.94053898  1
  O  O274  1  0.72953184  0.89006197  0.40991579  1
  O  O275  1  0.72725980  0.88925523  0.91275043  1
  O  O276  1  0.21282469  0.15781174  0.41562424  1
  O  O277  1  0.23175410  0.11926829  0.91917127  1
  O  O278  1  0.21594802  0.63290721  0.41111446  1
  O  O279  1  0.21759470  0.63280788  0.91853116  1
  O  O280  1  0.55099016  0.14855552  0.42862448  1
  O  O281  1  0.56560220  0.11129214  0.91940532  1
  O  O282  1  0.56931986  0.65681763  0.42142803  1
  O  O283  1  0.56788934  0.65055853  0.92609892  1
  O  O284  1  0.87401447  0.14150593  0.40816899  1
  O  O285  1  0.89713712  0.12804001  0.91735306  1
  O  O286  1  0.89163721  0.63610362  0.41022973  1
  O  O287  1  0.89032577  0.64757502  0.91623572  1
  O  O288  1  0.16720965  0.00588770  0.08457130  1
  O  O289  1  0.18777595  -0.00995291  0.58003177  1
  O  O290  1  0.18397216  0.49547221  0.08647049  1
  O  O291  1  0.17271707  0.48899111  0.57145765  1
  O  O292  1  0.52513695  0.00471638  0.08196200  1
  O  O293  1  0.49378095  -0.01499844  0.57832112  1
  O  O294  1  0.50981407  0.49745360  0.08702719  1
  O  O295  1  0.50851873  0.50563645  0.59142957  1
  O  O296  1  0.84168694  0.01218747  0.07110853  1
  O  O297  1  0.82556030  -0.00098927  0.58752826  1
  O  O298  1  0.84786575  0.50203197  0.08496105  1
  O  O299  1  0.83006369  0.50158559  0.58553562  1
  O  O300  1  0.01253796  0.25432937  0.08313836  1
  O  O301  1  -0.00732381  0.26028153  0.57644202  1
  O  O302  1  0.02785385  0.74509127  0.08203463  1
  O  O303  1  -0.00839860  0.76343491  0.57438419  1
  O  O304  1  0.34894876  0.24829229  0.08629169  1
  O  O305  1  0.35157692  0.25666596  0.58555762  1
  O  O306  1  0.34093859  0.74032940  0.07489536  1
  O  O307  1  0.34182778  0.74362418  0.58494182  1
  O  O308  1  0.67922073  0.25518353  0.08576558  1
  O  O309  1  0.66615197  0.26154897  0.57645470  1
  O  O310  1  0.66649025  0.74468871  0.08134417  1
  O  O311  1  0.67720919  0.74856533  0.58729290  1
  O  O312  1  0.15769102  -0.00806888  0.41940175  1
  O  O313  1  0.14937410  -0.00234818  0.91468040  1
  O  O314  1  0.15142396  0.49877214  0.41109785  1
  O  O315  1  0.14177348  0.50468351  0.92174307  1
  O  O316  1  0.49300301  -0.01383942  0.42265787  1
  O  O317  1  0.47990388  -0.00785043  0.91573596  1
  O  O318  1  0.51893701  0.50275536  0.43176782  1
  O  O319  1  0.51217678  0.49501196  0.92410305  1
  O  O320  1  0.84350347  -0.00284555  0.40729912  1
  O  O321  1  0.83482808  -0.00260400  0.91407529  1
  O  O322  1  0.82718894  0.50557727  0.41112359  1
  O  O323  1  0.83505048  0.51643762  0.92885669  1
  O  O324  1  0.32844467  0.25476071  0.41500876  1
  O  O325  1  0.32314300  0.23789548  0.93079080  1
  O  O326  1  0.31224345  0.74809778  0.41301171  1
  O  O327  1  0.30661020  0.75155484  0.91686613  1
  O  O328  1  0.69629304  0.25652856  0.41412987  1
  O  O329  1  0.65849381  0.22962522  0.93092572  1
  O  O330  1  0.68042047  0.75706921  0.40862137  1
  O  O331  1  0.67005838  0.75857865  0.91529308  1
  O  O332  1  0.97689780  0.25317569  0.41119212  1
  O  O333  1  0.99563399  0.24493670  0.91816581  1
  O  O334  1  0.99092393  0.74827677  0.41015020  1
  O  O335  1  0.99421681  0.75388029  0.91513312  1
  O  O336  1  0.21175008  0.08341822  0.19488633  1
  O  O337  1  0.22060211  0.09075104  0.70005729  1
  O  O338  1  0.20883380  0.58161060  0.19493246  1
  O  O339  1  0.21383345  0.58647054  0.70073997  1
  O  O340  1  0.54467259  0.08813370  0.19203882  1
  O  O341  1  0.54734698  0.07870569  0.70284257  1
  O  O342  1  0.54454531  0.58289363  0.19522020  1
  O  O343  1  0.54974126  0.58630856  0.70062618  1
  O  O344  1  0.87416695  0.08668437  0.18885242  1
  O  O345  1  0.87766093  0.08052524  0.69431493  1
  O  O346  1  0.87584825  0.58400307  0.19277216  1
  O  O347  1  0.87484905  0.58598275  0.69450969  1
  O  O348  1  0.04059537  0.33565460  0.19429475  1
  O  O349  1  0.02920325  0.33436350  0.69313073  1
  O  O350  1  0.04459964  0.83158453  0.18892570  1
  O  O351  1  0.03957052  0.83443150  0.69123790  1
  O  O352  1  0.37476195  0.33188938  0.19714608  1
  O  O353  1  0.38105970  0.33597205  0.69772616  1
  O  O354  1  0.37794009  0.83354478  0.19845483  1
  O  O355  1  0.37591267  0.82768978  0.69525193  1
  O  O356  1  0.70929320  0.33656314  0.19592502  1
  O  O357  1  0.69914665  0.33339221  0.69407071  1
  O  O358  1  0.70506058  0.83136487  0.18736331  1
  O  O359  1  0.70986876  0.83252558  0.69528753  1
  O  O360  1  0.20898044  0.41549497  0.19651552  1
  O  O361  1  0.21540924  0.42328176  0.69221230  1
  O  O362  1  0.20860703  0.91774894  0.19173199  1
  O  O363  1  0.21471068  0.90462772  0.69120383  1
  O  O364  1  0.54394733  0.41695411  0.19678965  1
  O  O365  1  0.54209882  0.42047598  0.70003829  1
  O  O366  1  0.54554028  0.91230688  0.18725800  1
  O  O367  1  0.54360045  0.91072377  0.69334240  1
  O  O368  1  0.87608988  0.41947642  0.19456803  1
  O  O369  1  0.87860474  0.42523870  0.69609241  1
  O  O370  1  0.87945456  0.91848514  0.19458681  1
  O  O371  1  0.87377391  0.91464556  0.69464664  1
  O  O372  1  0.03324607  0.17120210  0.19241960  1
  O  O373  1  0.04755499  0.16704753  0.70055155  1
  O  O374  1  0.04451923  0.66383549  0.19232840  1
  O  O375  1  0.04292972  0.66727258  0.69880079  1
  O  O376  1  0.37442342  0.16707329  0.19465444  1
  O  O377  1  0.38503038  0.17112760  0.69387821  1
  O  O378  1  0.37362976  0.66626810  0.19252873  1
  O  O379  1  0.37825865  0.66604081  0.69598859  1
  O  O380  1  0.70935566  0.16910285  0.19282500  1
  O  O381  1  0.71170444  0.16609970  0.70274864  1
  O  O382  1  0.70856388  0.66488562  0.19206114  1
  O  O383  1  0.71172351  0.66847469  0.69820775  1
  O  O384  1  0.11589253  0.08168325  0.29635576  1
  O  O385  1  0.11936274  0.08552686  0.80835908  1
  O  O386  1  0.12045501  0.58181350  0.30186270  1
  O  O387  1  0.11606605  0.58854008  0.80906465  1
  O  O388  1  0.45205039  0.08450751  0.30135255  1
  O  O389  1  0.45930798  0.07834283  0.80687729  1
  O  O390  1  0.45637468  0.58519824  0.29984001  1
  O  O391  1  0.45515081  0.58568059  0.80308455  1
  O  O392  1  0.78879980  0.08076616  0.30017162  1
  O  O393  1  0.79356664  0.07871644  0.80594563  1
  O  O394  1  0.79033615  0.58586365  0.30171439  1
  O  O395  1  0.79179386  0.58908090  0.80976645  1
  O  O396  1  0.28764072  0.33647648  0.30726394  1
  O  O397  1  0.30157352  0.32988751  0.80421227  1
  O  O398  1  0.28785680  0.83182813  0.30267974  1
  O  O399  1  0.28833693  0.82960551  0.80405277  1
  O  O400  1  0.62747233  0.33553679  0.30703816  1
  O  O401  1  0.62380324  0.33180583  0.80455206  1
  O  O402  1  0.62625475  0.83549511  0.30053724  1
  O  O403  1  0.62487087  0.83468104  0.80461134  1
  O  O404  1  0.95244037  0.33689809  0.30317682  1
  O  O405  1  0.96775553  0.33140043  0.81086007  1
  O  O406  1  0.96252287  0.83081790  0.30037054  1
  O  O407  1  0.95671346  0.83363394  0.80380130  1
  O  O408  1  0.11967680  0.41732037  0.30340527  1
  O  O409  1  0.11558226  0.42431317  0.81165357  1
  O  O410  1  0.12245875  0.91456044  0.30285651  1
  O  O411  1  0.11830375  0.90843404  0.80493502  1
  O  O412  1  0.45637060  0.41724573  0.30159668  1
  O  O413  1  0.45999826  0.41632711  0.81318509  1
  O  O414  1  0.45691852  0.91162312  0.30599892  1
  O  O415  1  0.45897957  0.91092521  0.80414231  1
  O  O416  1  0.79081802  0.42039297  0.30330085  1
  O  O417  1  0.78268758  0.42723916  0.80574664  1
  O  O418  1  0.78793274  0.91779700  0.29904060  1
  O  O419  1  0.79101448  0.91540694  0.80357132  1
  O  O420  1  0.29115085  0.16881595  0.30777502  1
  O  O421  1  0.29221105  0.16759230  0.81178085  1
  O  O422  1  0.28776761  0.66497531  0.30487865  1
  O  O423  1  0.28848069  0.66679672  0.80993244  1
  O  O424  1  0.62186148  0.16637406  0.29880004  1
  O  O425  1  0.62406080  0.16068775  0.81162490  1
  O  O426  1  0.62665398  0.66921360  0.30416723  1
  O  O427  1  0.62603558  0.67044621  0.80976574  1
  O  O428  1  0.95012546  0.16900995  0.30303838  1
  O  O429  1  0.95647242  0.16136326  0.80784996  1
  O  O430  1  0.95599548  0.66631569  0.30042209  1
  O  O431  1  0.95511522  0.67039548  0.80582071  1
  F  F432  1  0.04345279  -0.00204642  0.19610462  1
  F  F433  1  0.03552336  -0.00245310  0.69922730  1
  F  F434  1  0.04359843  0.49970269  0.19933939  1
  F  F435  1  0.03931850  0.49978888  0.70033740  1
  F  F436  1  0.37104986  0.00076384  0.19923496  1
  F  F437  1  0.38205348  -0.01120499  0.69895085  1
  F  F438  1  0.37474028  0.49933897  0.20063972  1
  F  F439  1  0.38199460  0.49800616  0.70601576  1
  F  F440  1  0.71045264  0.00219788  0.19508544  1
  F  F441  1  0.71279507  -0.00292483  0.70334690  1
  F  F442  1  0.71111159  0.50113221  0.20082630  1
  F  F443  1  0.70968480  0.50613218  0.70374354  1
  F  F444  1  0.21283366  0.25578607  0.20126126  1
  F  F445  1  0.21774055  0.24248613  0.70001477  1
  F  F446  1  0.21157759  0.74813961  0.19995284  1
  F  F447  1  0.21102579  0.74710667  0.70300702  1
  F  F448  1  0.54365108  0.25488811  0.20222976  1
  F  F449  1  0.54624547  0.24829071  0.70778434  1
  F  F450  1  0.54540008  0.74819412  0.20122778  1
  F  F451  1  0.54738829  0.74830113  0.70475901  1
  F  F452  1  0.87654872  0.25374113  0.19985908  1
  F  F453  1  0.88360483  0.24114894  0.70369231  1
  F  F454  1  0.88244239  0.74097177  0.19174882  1
  F  F455  1  0.87662251  0.75069302  0.70183764  1
  F  F456  1  0.28540293  -0.00329681  0.29748022  1
  F  F457  1  0.30289378  -0.01454915  0.81131882  1
  F  F458  1  0.28525329  0.50079889  0.29770145  1
  F  F459  1  0.29508941  0.49932648  0.80524242  1
  F  F460  1  0.62393247  -0.00389659  0.29278258  1
  F  F461  1  0.62286835  -0.00658163  0.80032061  1
  F  F462  1  0.62405551  0.50242171  0.29768840  1
  F  F463  1  0.62207392  0.50294728  0.80329721  1
  F  F464  1  0.95382084  0.00205873  0.29312921  1
  F  F465  1  0.95381886  -0.00374507  0.79895322  1
  F  F466  1  0.95398585  0.50193291  0.29581016  1
  F  F467  1  0.95283386  0.50535903  0.80011989  1
  F  F468  1  0.11377702  0.25801755  0.29979243  1
  F  F469  1  0.11985615  0.24155923  0.80629046  1
  F  F470  1  0.11953426  0.74898443  0.29299470  1
  F  F471  1  0.12040461  0.75221097  0.79796460  1
  F  F472  1  0.45310642  0.25023490  0.29769524  1
  F  F473  1  0.45721903  0.24534359  0.80186363  1
  F  F474  1  0.45561597  0.74889496  0.29710439  1
  F  F475  1  0.45456528  0.75009014  0.79933560  1
  F  F476  1  0.78842389  0.25167171  0.29441231  1
  F  F477  1  0.78624131  0.23822352  0.80860234  1
  F  F478  1  0.78796503  0.74748421  0.29336476  1
  F  F479  1  0.78953874  0.75233380  0.79896532  1
