# generated using pymatgen
data_K24Na3Li5Mg64Fe17Si79(O5F)48
_symmetry_space_group_name_H-M   'P 1'
_cell_length_a   16.12171963
_cell_length_b   18.62983203
_cell_length_c   20.57880501
_cell_angle_alpha   89.99509540
_cell_angle_beta   100.05394684
_cell_angle_gamma   90.01939234
_symmetry_Int_Tables_number   1
_chemical_formula_structural   K24Na3Li5Mg64Fe17Si79(O5F)48
_chemical_formula_sum   'K24 Na3 Li5 Mg64 Fe17 Si79 O240 F48'
_cell_volume   6085.82680973
_cell_formula_units_Z   1
loop_
 _symmetry_equiv_pos_site_id
 _symmetry_equiv_pos_as_xyz
  1  'x, y, z'
loop_
 _atom_site_type_symbol
 _atom_site_label
 _atom_site_symmetry_multiplicity
 _atom_site_fract_x
 _atom_site_fract_y
 _atom_site_fract_z
 _atom_site_occupancy
  K  K0  1  -0.00043529  0.01032017  -0.00732872  1
  K  K1  1  -0.00466513  0.00954673  0.50195574  1
  K  K2  1  0.00776270  0.48016026  -0.00549704  1
  K  K3  1  0.00855796  0.48724155  0.50319628  1
  K  K4  1  0.33795664  -0.00008040  -0.00173077  1
  K  K5  1  0.34584022  0.01413623  0.51380262  1
  K  K6  1  0.32428931  0.48983412  -0.00325274  1
  K  K7  1  0.33481739  0.49403582  0.50003156  1
  K  K8  1  0.65724294  0.01052362  -0.00281287  1
  K  K9  1  0.67151915  0.01451634  0.51285801  1
  K  K10  1  0.65873408  0.48244913  -0.00041691  1
  K  K11  1  0.66610644  0.48880679  0.49861884  1
  K  K12  1  0.15881284  0.25225544  -0.00846718  1
  K  K13  1  0.16545190  0.24406584  0.51058155  1
  K  K14  1  0.16223914  0.75681816  -0.00215796  1
  K  K15  1  0.16967444  0.74982339  0.50298872  1
  K  K16  1  0.49896428  0.24704209  -0.01544771  1
  K  K17  1  0.51040155  0.24308159  0.51786613  1
  K  K18  1  0.50021431  0.75265252  0.00409120  1
  K  K19  1  0.49505534  0.75320376  0.50386883  1
  K  K20  1  0.82729525  0.25050329  -0.01385009  1
  K  K21  1  0.83587981  0.25412208  0.51379406  1
  K  K22  1  0.83866804  0.75066434  -0.00398222  1
  K  K23  1  0.84932746  0.75754943  0.50647364  1
  Na  Na24  1  -0.00798131  0.25176730  0.74103387  1
  Na  Na25  1  0.00021627  0.92057013  0.25156960  1
  Na  Na26  1  0.50152106  0.16949536  0.25112135  1
  Li  Li27  1  0.66234006  0.24541505  0.75754972  1
  Li  Li28  1  0.33989090  0.24637690  0.76055341  1
  Li  Li29  1  0.49853947  0.17251487  0.75723588  1
  Li  Li30  1  -0.00408210  0.41018976  0.74726638  1
  Li  Li31  1  0.82604817  0.18186798  0.75193632  1
  Mg  Mg32  1  0.00020897  0.75199789  0.75126397  1
  Mg  Mg33  1  0.16241719  0.49327506  0.74706203  1
  Mg  Mg34  1  0.83323508  0.00502954  0.74829647  1
  Mg  Mg35  1  0.33357832  0.24964309  0.24954699  1
  Mg  Mg36  1  0.66451964  0.74887596  0.24565247  1
  Mg  Mg37  1  0.50036791  0.00401741  0.74713453  1
  Mg  Mg38  1  0.83560420  0.49753042  0.75027181  1
  Mg  Mg39  1  0.16601931  0.00131298  0.24940650  1
  Mg  Mg40  1  0.00127132  0.24881849  0.24969777  1
  Mg  Mg41  1  0.49995238  0.49808393  0.75271431  1
  Mg  Mg42  1  0.16661130  0.49900913  0.24962400  1
  Mg  Mg43  1  0.33320239  0.74960629  0.24789945  1
  Mg  Mg44  1  0.00138538  0.75117703  0.25274644  1
  Mg  Mg45  1  0.50148392  0.00051502  0.24593184  1
  Mg  Mg46  1  0.83426907  -0.00042859  0.25201310  1
  Mg  Mg47  1  0.66801240  0.25088101  0.25420185  1
  Mg  Mg48  1  0.83433608  0.50094624  0.25128855  1
  Mg  Mg49  1  0.16673917  0.00254571  0.75008214  1
  Mg  Mg50  1  0.33293716  0.75114272  0.74781942  1
  Mg  Mg51  1  0.49965033  0.49841960  0.24819357  1
  Mg  Mg52  1  0.66802316  0.75084150  0.74895154  1
  Mg  Mg53  1  0.66760490  0.58351764  0.75073723  1
  Mg  Mg54  1  0.33432398  0.41251383  0.74985070  1
  Mg  Mg55  1  0.66803319  0.91743747  0.74920180  1
  Mg  Mg56  1  -0.00037076  0.08590730  0.25057806  1
  Mg  Mg57  1  0.16766533  0.32988670  0.74879754  1
  Mg  Mg58  1  0.66566433  0.41414772  0.75069742  1
  Mg  Mg59  1  0.83665330  0.33512728  0.25341839  1
  Mg  Mg60  1  0.33500066  0.91614351  0.74939988  1
  Mg  Mg61  1  -0.00233614  0.91675791  0.75162758  1
  Mg  Mg62  1  0.00020613  0.58177376  0.75047927  1
  Mg  Mg63  1  0.00337288  0.58433419  0.25340407  1
  Mg  Mg64  1  0.49897774  0.83470264  0.74790453  1
  Mg  Mg65  1  0.49774215  0.66356584  0.24496916  1
  Mg  Mg66  1  0.66401142  0.08909766  0.75342535  1
  Mg  Mg67  1  0.33396246  0.08377594  0.24759543  1
  Mg  Mg68  1  0.83365077  0.66666529  0.25065632  1
  Mg  Mg69  1  0.33365777  0.91645460  0.24736612  1
  Mg  Mg70  1  0.16554761  0.66447741  0.75005846  1
  Mg  Mg71  1  0.16692137  0.66484790  0.25160661  1
  Mg  Mg72  1  0.83321017  0.83292991  0.24976246  1
  Mg  Mg73  1  0.66333636  0.58301681  0.24719000  1
  Mg  Mg74  1  0.33579410  0.08730343  0.75306632  1
  Mg  Mg75  1  0.82770275  0.33233159  0.74538040  1
  Mg  Mg76  1  0.16595639  0.83557744  0.74941090  1
  Mg  Mg77  1  0.16385616  0.33390990  0.24721063  1
  Mg  Mg78  1  0.66449351  0.91539471  0.24714691  1
  Mg  Mg79  1  0.16649611  0.83448600  0.25062262  1
  Mg  Mg80  1  0.49910458  0.66662856  0.74831242  1
  Mg  Mg81  1  0.16807434  0.16929150  0.74967887  1
  Mg  Mg82  1  0.33195000  0.58317259  0.74926394  1
  Mg  Mg83  1  -0.00512109  0.08640947  0.74665999  1
  Mg  Mg84  1  0.33108494  0.58357181  0.24729208  1
  Mg  Mg85  1  0.66699479  0.41449185  0.25267386  1
  Mg  Mg86  1  0.16432453  0.16537920  0.24858374  1
  Mg  Mg87  1  0.49914517  0.83467166  0.24548798  1
  Mg  Mg88  1  0.83619820  0.83652533  0.75222882  1
  Mg  Mg89  1  0.33069715  0.41432948  0.24807770  1
  Mg  Mg90  1  0.83579869  0.66649908  0.75243005  1
  Mg  Mg91  1  0.49856292  0.32572631  0.75070747  1
  Mg  Mg92  1  0.50227637  0.33260626  0.25178439  1
  Mg  Mg93  1  0.66686018  0.08450529  0.25136332  1
  Mg  Mg94  1  0.83576808  0.16538253  0.25220652  1
  Mg  Mg95  1  0.00205510  0.41464858  0.25025538  1
  Fe  Fe96  1  0.01717448  0.33092338  0.10723331  1
  Fe  Fe97  1  0.97611039  0.83449367  0.89292247  1
  Fe  Fe98  1  0.36024005  0.83673713  0.60881340  1
  Fe  Fe99  1  0.14405892  0.58250920  0.39228647  1
  Fe  Fe100  1  0.47378407  0.07441418  0.89187683  1
  Fe  Fe101  1  0.63975354  0.33319689  0.88885811  1
  Fe  Fe102  1  0.01733890  0.16063359  0.10753550  1
  Fe  Fe103  1  0.64365793  0.33208967  0.39431797  1
  Fe  Fe104  1  0.19282322  0.41611393  0.10778304  1
  Fe  Fe105  1  0.86048815  0.91603606  0.61008869  1
  Fe  Fe106  1  0.30805670  0.33120373  0.88774369  1
  Fe  Fe107  1  0.52315674  0.57759897  0.10651469  1
  Fe  Fe108  1  0.02564259  0.33564811  0.60826831  1
  Fe  Fe109  1  0.70038305  0.17594309  0.61754318  1
  Fe  Fe110  1  0.52417793  0.92035747  0.10616458  1
  Fe  Fe111  1  0.36081620  0.16979544  0.61582444  1
  Fe  Fe112  1  0.97532433  0.16584274  0.39213067  1
  Si  Si113  1  0.13640922  0.08751097  0.88411400  1
  Si  Si114  1  0.35622569  0.16691736  0.11552808  1
  Si  Si115  1  0.30573020  0.32810138  0.38387638  1
  Si  Si116  1  0.80654555  0.08068860  0.88650880  1
  Si  Si117  1  0.52621486  0.09017674  0.11325113  1
  Si  Si118  1  0.81215637  0.42419409  0.38855672  1
  Si  Si119  1  0.96698400  0.33276271  0.87889151  1
  Si  Si120  1  0.35242228  0.83247022  0.11098294  1
  Si  Si121  1  0.64485000  0.16116444  0.38806249  1
  Si  Si122  1  0.96714768  0.16533270  0.88001722  1
  Si  Si123  1  0.52545769  0.42204499  0.61406726  1
  Si  Si124  1  0.14636974  0.41361388  0.38783099  1
  Si  Si125  1  0.14512642  0.92167906  0.88809106  1
  Si  Si126  1  0.31140584  0.16336161  0.38463813  1
  Si  Si127  1  0.02734693  0.16174613  0.61325789  1
  Si  Si128  1  0.14079248  0.57746599  0.88454487  1
  Si  Si129  1  0.31210543  0.83519737  0.38428391  1
  Si  Si130  1  0.86134394  0.58893604  0.11725556  1
  Si  Si131  1  0.69485360  0.66521584  0.11207135  1
  Si  Si132  1  0.47140068  0.58279917  0.38377281  1
  Si  Si133  1  0.69519546  0.82973608  0.61390080  1
  Si  Si134  1  0.14730624  0.91451610  0.38594605  1
  Si  Si135  1  0.35377034  0.66777778  0.11083792  1
  Si  Si136  1  0.02484697  0.67095447  0.11604005  1
  Si  Si137  1  0.14810252  0.07944300  0.38941089  1
  Si  Si138  1  0.47563232  0.59141091  0.88496926  1
  Si  Si139  1  0.47670507  0.91703378  0.38396944  1
  Si  Si140  1  0.35574560  0.66571842  0.61193898  1
  Si  Si141  1  0.52607683  0.40682504  0.11399160  1
  Si  Si142  1  0.46778034  0.41655596  0.38655014  1
  Si  Si143  1  0.64583136  0.66677763  0.88426001  1
  Si  Si144  1  0.64267622  0.16221353  0.89346764  1
  Si  Si145  1  0.85564985  0.42546338  0.61065380  1
  Si  Si146  1  0.13761548  0.41189979  0.88456098  1
  Si  Si147  1  0.80301536  0.91687051  0.88956770  1
  Si  Si148  1  0.52418636  0.58459706  0.61508409  1
  Si  Si149  1  0.47508831  0.07973755  0.38298866  1
  Si  Si150  1  0.68920918  0.66709303  0.61569011  1
  Si  Si151  1  0.97855200  0.66433155  0.88832206  1
  Si  Si152  1  0.80592620  0.58931757  0.38468563  1
  Si  Si153  1  0.18851301  0.91634531  0.11402731  1
  Si  Si154  1  0.18723203  0.58750472  0.11173764  1
  Si  Si155  1  0.80923472  0.41859850  0.88708447  1
  Si  Si156  1  0.69914275  0.33382793  0.11841461  1
  Si  Si157  1  0.30428715  0.83075648  0.88478270  1
  Si  Si158  1  0.97246521  0.66869466  0.38960004  1
  Si  Si159  1  0.63715140  0.66505005  0.38359642  1
  Si  Si160  1  0.47581223  0.90461188  0.88708239  1
  Si  Si161  1  0.69155201  0.34518746  0.61127250  1
  Si  Si162  1  0.53248626  0.08193008  0.61198393  1
  Si  Si163  1  0.85138816  0.07342020  0.11270603  1
  Si  Si164  1  0.36296925  0.34044099  0.61217569  1
  Si  Si165  1  0.19660951  0.41802695  0.61052012  1
  Si  Si166  1  0.19464028  0.08230356  0.11133143  1
  Si  Si167  1  0.97652518  0.33833579  0.38858598  1
  Si  Si168  1  0.69587872  0.16839587  0.11718166  1
  Si  Si169  1  0.30452233  0.16100885  0.89087410  1
  Si  Si170  1  0.31174453  0.67117218  0.38656125  1
  Si  Si171  1  0.85404114  0.91162269  0.11655162  1
  Si  Si172  1  0.64006441  0.82974916  0.38401591  1
  Si  Si173  1  0.97681924  0.83247602  0.38612957  1
  Si  Si174  1  0.02698596  0.66669554  0.61607969  1
  Si  Si175  1  0.86163570  0.08214226  0.60900084  1
  Si  Si176  1  0.19210595  0.91925079  0.61385393  1
  Si  Si177  1  0.80748906  0.91046353  0.38514869  1
  Si  Si178  1  0.85690510  0.42550382  0.11495533  1
  Si  Si179  1  0.30386498  0.66575005  0.88447866  1
  Si  Si180  1  0.02358256  0.83423181  0.11678828  1
  Si  Si181  1  0.64200303  0.83023257  0.88359331  1
  Si  Si182  1  0.36260959  0.32981285  0.11406242  1
  Si  Si183  1  0.47246242  0.42512548  0.89025837  1
  Si  Si184  1  0.81085617  0.58278109  0.88545831  1
  Si  Si185  1  0.03243127  0.83212859  0.61286310  1
  Si  Si186  1  0.53325700  0.91616153  0.61179750  1
  Si  Si187  1  0.69345146  0.82983860  0.11109850  1
  Si  Si188  1  0.19063185  0.08182527  0.61462671  1
  Si  Si189  1  0.85717012  0.58985486  0.61479646  1
  Si  Si190  1  0.19142862  0.58199249  0.61509522  1
  Si  Si191  1  0.80451042  0.07641577  0.38833814  1
  O  O192  1  0.28117528  0.10970899  0.08494653  1
  O  O193  1  0.26828135  0.10728489  0.58031041  1
  O  O194  1  0.26883517  0.62054751  0.08308170  1
  O  O195  1  0.27285240  0.61418748  0.58581850  1
  O  O196  1  0.60453125  0.13254684  0.08711461  1
  O  O197  1  0.60864963  0.11578910  0.57921871  1
  O  O198  1  0.62265566  0.61085995  0.07743744  1
  O  O199  1  0.60664209  0.61682424  0.58646699  1
  O  O200  1  0.93030226  0.09276098  0.07793173  1
  O  O201  1  0.95094704  0.10517197  0.58429584  1
  O  O202  1  0.94425171  0.61824276  0.08787238  1
  O  O203  1  0.93715980  0.62652900  0.58596301  1
  O  O204  1  0.10950741  0.35511194  0.06862734  1
  O  O205  1  0.12054301  0.36968528  0.57211583  1
  O  O206  1  0.10263509  0.86927055  0.08608922  1
  O  O207  1  0.11769946  0.85974342  0.58638719  1
  O  O208  1  0.45331020  0.34596454  0.08987651  1
  O  O209  1  0.44353906  0.37492280  0.58062210  1
  O  O210  1  0.42733796  0.86259286  0.07594672  1
  O  O211  1  0.45667911  0.86537210  0.57582763  1
  O  O212  1  0.77194348  0.37722547  0.08773309  1
  O  O213  1  0.76613729  0.38593059  0.57838911  1
  O  O214  1  0.78257001  0.85156267  0.08615593  1
  O  O215  1  0.77485299  0.84730383  0.57925319  1
  O  O216  1  0.29524991  0.38872712  0.08113619  1
  O  O217  1  0.28459469  0.39705774  0.58411784  1
  O  O218  1  0.26524456  0.87831591  0.08386883  1
  O  O219  1  0.27092926  0.89932971  0.57794351  1
  O  O220  1  0.61098847  0.37505647  0.08899668  1
  O  O221  1  0.60657316  0.39540456  0.58299272  1
  O  O222  1  0.61857676  0.88091738  0.07527839  1
  O  O223  1  0.61825227  0.88504937  0.58573173  1
  O  O224  1  0.93381537  0.40334923  0.07965565  1
  O  O225  1  0.92976148  0.39411947  0.57508797  1
  O  O226  1  0.94121768  0.88524021  0.09109296  1
  O  O227  1  0.95352368  0.87762663  0.57569378  1
  O  O228  1  0.11631507  0.12933466  0.07556435  1
  O  O229  1  0.10990080  0.13238079  0.58318478  1
  O  O230  1  0.10838011  0.64501851  0.08737628  1
  O  O231  1  0.10564059  0.62931817  0.58701525  1
  O  O232  1  0.44329158  0.14243213  0.09077338  1
  O  O233  1  0.44662155  0.12401639  0.57901514  1
  O  O234  1  0.43164281  0.64101804  0.07710582  1
  O  O235  1  0.43992371  0.63221842  0.58564845  1
  O  O236  1  0.76740857  0.12363379  0.08600841  1
  O  O237  1  0.79042437  0.14038537  0.57918991  1
  O  O238  1  0.78583833  0.64574970  0.08897230  1
  O  O239  1  0.77239637  0.63912917  0.58621086  1
  O  O240  1  0.07436415  0.11206160  0.42398202  1
  O  O241  1  0.05422071  0.12018661  0.91215546  1
  O  O242  1  0.04744395  0.61729810  0.42461705  1
  O  O243  1  0.06250586  0.61405322  0.91442544  1
  O  O244  1  0.39700671  0.11683675  0.41293229  1
  O  O245  1  0.37648240  0.10383153  0.92395143  1
  O  O246  1  0.39874233  0.62570591  0.41493769  1
  O  O247  1  0.39766493  0.63211824  0.91333610  1
  O  O248  1  0.71921877  0.10223618  0.41556869  1
  O  O249  1  0.73227599  0.11646300  0.92086617  1
  O  O250  1  0.72356826  0.62077454  0.41330079  1
  O  O251  1  0.72890276  0.61760630  0.91373585  1
  O  O252  1  0.22258446  0.35496592  0.41309114  1
  O  O253  1  0.21612760  0.36758789  0.92416801  1
  O  O254  1  0.23067623  0.86422976  0.41523078  1
  O  O255  1  0.23577976  0.87925271  0.91565930  1
  O  O256  1  0.55014704  0.37528250  0.42387230  1
  O  O257  1  0.55562616  0.38220288  0.92559034  1
  O  O258  1  0.56237356  0.86971946  0.41241740  1
  O  O259  1  0.55623484  0.84920174  0.91186701  1
  O  O260  1  0.90116346  0.38318300  0.41606097  1
  O  O261  1  0.89474457  0.37157248  0.91549463  1
  O  O262  1  0.89662565  0.86852681  0.41480159  1
  O  O263  1  0.88026816  0.86692971  0.92556740  1
  O  O264  1  0.06183653  0.38644006  0.41496003  1
  O  O265  1  0.05326001  0.37821851  0.90917218  1
  O  O266  1  0.06426646  0.87854085  0.41176384  1
  O  O267  1  0.07557802  0.88594135  0.92618648  1
  O  O268  1  0.38404878  0.38268226  0.41254943  1
  O  O269  1  0.39211417  0.39913817  0.92139146  1
  O  O270  1  0.39643333  0.88281269  0.41331789  1
  O  O271  1  0.39796794  0.86129184  0.91414149  1
  O  O272  1  0.73730520  0.39330561  0.42299050  1
  O  O273  1  0.73552881  0.39002061  0.92398909  1
  O  O274  1  0.73096312  0.86779139  0.41363550  1
  O  O275  1  0.71672957  0.88578926  0.91508760  1
  O  O276  1  0.23636788  0.12452716  0.41632930  1
  O  O277  1  0.21580138  0.13685586  0.91774864  1
  O  O278  1  0.23624282  0.64459172  0.42253813  1
  O  O279  1  0.23057867  0.62018636  0.91340322  1
  O  O280  1  0.55892669  0.12689318  0.41061666  1
  O  O281  1  0.57136983  0.12439656  0.93018403  1
  O  O282  1  0.56114085  0.62414504  0.41278492  1
  O  O283  1  0.56207575  0.63857962  0.91265819  1
  O  O284  1  0.88528536  0.12085216  0.42418111  1
  O  O285  1  0.89343082  0.12661801  0.91517879  1
  O  O286  1  0.88296079  0.64463853  0.41335053  1
  O  O287  1  0.89498435  0.63046018  0.91472602  1
  O  O288  1  0.17857022  -0.00225552  0.08464504  1
  O  O289  1  0.15844856  -0.00054768  0.58926811  1
  O  O290  1  0.16253772  0.51165051  0.07713040  1
  O  O291  1  0.17510004  0.50219878  0.58381647  1
  O  O292  1  0.50728061  0.01457980  0.07417237  1
  O  O293  1  0.51900675  -0.00275977  0.58191943  1
  O  O294  1  0.50097125  0.48268704  0.07676004  1
  O  O295  1  0.50636418  0.50467674  0.58363396  1
  O  O296  1  0.82314651  -0.00957495  0.08673611  1
  O  O297  1  0.83444097  0.00526556  0.57134198  1
  O  O298  1  0.83123602  0.50930378  0.08995288  1
  O  O299  1  0.83958595  0.51064737  0.58268430  1
  O  O300  1  -0.02697483  0.24534354  0.07074989  1
  O  O301  1  0.00255656  0.23971194  0.58089912  1
  O  O302  1  0.00280581  0.75259144  0.08575358  1
  O  O303  1  0.01920750  0.74791496  0.58543592  1
  O  O304  1  0.33287273  0.24824387  0.08718475  1
  O  O305  1  0.34123896  0.26327557  0.57761999  1
  O  O306  1  0.32815461  0.75019612  0.08535945  1
  O  O307  1  0.33578223  0.74204030  0.57574404  1
  O  O308  1  0.69616409  0.25141955  0.09007711  1
  O  O309  1  0.67425696  0.26737491  0.57771773  1
  O  O310  1  0.67192128  0.74708429  0.08435063  1
  O  O311  1  0.66272945  0.74759232  0.58776352  1
  O  O312  1  0.16494923  -0.00482005  0.41673438  1
  O  O313  1  0.15667485  0.00533392  0.91426378  1
  O  O314  1  0.17535385  0.48966019  0.42334143  1
  O  O315  1  0.14850928  0.49646332  0.91435790  1
  O  O316  1  0.49077626  -0.00204838  0.41485159  1
  O  O317  1  0.49316881  -0.02139176  0.92625749  1
  O  O318  1  0.47494820  0.50146438  0.41372113  1
  O  O319  1  0.48948685  0.51157191  0.91563046  1
  O  O320  1  0.81643688  -0.00847518  0.41394906  1
  O  O321  1  0.82037702  -0.00135469  0.91910500  1
  O  O322  1  0.82834860  0.50916153  0.41404815  1
  O  O323  1  0.82971081  0.50256639  0.91533385  1
  O  O324  1  0.32649926  0.24609771  0.41236450  1
  O  O325  1  0.33116782  0.23907181  0.92353442  1
  O  O326  1  0.33532139  0.75418909  0.41219373  1
  O  O327  1  0.30020696  0.74788602  0.91371998  1
  O  O328  1  0.66496600  0.23739054  0.42488265  1
  O  O329  1  0.65896021  0.24189752  0.92671922  1
  O  O330  1  0.64431554  0.74716640  0.41389853  1
  O  O331  1  0.66905843  0.74853171  0.91198365  1
  O  O332  1  0.98869785  0.26091407  0.42353221  1
  O  O333  1  0.97879747  0.24913466  0.90769351  1
  O  O334  1  0.99068980  0.75160364  0.41902925  1
  O  O335  1  0.99741846  0.74009248  0.92604477  1
  O  O336  1  0.21079861  0.08185311  0.19260422  1
  O  O337  1  0.21076758  0.08139933  0.69546307  1
  O  O338  1  0.20919675  0.58646016  0.19295297  1
  O  O339  1  0.20990378  0.58480730  0.69525198  1
  O  O340  1  0.54941037  0.07789029  0.19255211  1
  O  O341  1  0.54986926  0.07558549  0.69163931  1
  O  O342  1  0.54335402  0.58204453  0.19878354  1
  O  O343  1  0.54321752  0.58571754  0.69539098  1
  O  O344  1  0.87186962  0.07895162  0.19353065  1
  O  O345  1  0.87972313  0.07379944  0.68869770  1
  O  O346  1  0.87958745  0.58733690  0.19804151  1
  O  O347  1  0.87600870  0.58864876  0.69496669  1
  O  O348  1  0.04265873  0.33324656  0.20093387  1
  O  O349  1  0.05212945  0.34486060  0.69496810  1
  O  O350  1  0.04783098  0.82732122  0.19577270  1
  O  O351  1  0.04598880  0.83228533  0.69377046  1
  O  O352  1  0.37766325  0.33232803  0.19529061  1
  O  O353  1  0.38446990  0.34421674  0.69156203  1
  O  O354  1  0.37384039  0.83345234  0.19234628  1
  O  O355  1  0.37802701  0.83186797  0.70046007  1
  O  O356  1  0.71641183  0.33537863  0.19877021  1
  O  O357  1  0.71108228  0.34841381  0.69026017  1
  O  O358  1  0.70815445  0.83091785  0.19249565  1
  O  O359  1  0.71237008  0.83063191  0.69499672  1
  O  O360  1  0.21073260  0.41747926  0.20073290  1
  O  O361  1  0.21255752  0.41963954  0.69087900  1
  O  O362  1  0.20896550  0.91533091  0.19443953  1
  O  O363  1  0.21056777  0.91512467  0.69497025  1
  O  O364  1  0.54354378  0.41656705  0.19481128  1
  O  O365  1  0.54280449  0.42447624  0.69375325  1
  O  O366  1  0.54430045  0.91497904  0.19830766  1
  O  O367  1  0.54547538  0.91306376  0.69278562  1
  O  O368  1  0.87613978  0.42108578  0.19616647  1
  O  O369  1  0.87118835  0.42396217  0.69032262  1
  O  O370  1  0.86639221  0.91404137  0.19598852  1
  O  O371  1  0.87713557  0.91607760  0.70147888  1
  O  O372  1  0.04552593  0.16568906  0.19994953  1
  O  O373  1  0.04855690  0.15760721  0.69271144  1
  O  O374  1  0.04179428  0.66953623  0.19647822  1
  O  O375  1  0.04324885  0.66742897  0.69640366  1
  O  O376  1  0.36693331  0.16669954  0.19500521  1
  O  O377  1  0.37545421  0.16821270  0.70358795  1
  O  O378  1  0.37405563  0.66662526  0.19240614  1
  O  O379  1  0.37503744  0.66671925  0.69303731  1
  O  O380  1  0.71338286  0.16664363  0.19773261  1
  O  O381  1  0.70954904  0.16725453  0.70454290  1
  O  O382  1  0.70962234  0.66553749  0.19350353  1
  O  O383  1  0.70970633  0.66616915  0.69603974  1
  O  O384  1  0.12904896  0.08073300  0.30856677  1
  O  O385  1  0.12090672  0.08315640  0.80422694  1
  O  O386  1  0.12365729  0.58433502  0.30032972  1
  O  O387  1  0.12400468  0.58293427  0.80448542  1
  O  O388  1  0.45235739  0.07340769  0.30382162  1
  O  O389  1  0.45375350  0.07509693  0.80200828  1
  O  O390  1  0.45408264  0.58472835  0.30355591  1
  O  O391  1  0.45622903  0.58901308  0.80449321  1
  O  O392  1  0.78949829  0.08007276  0.30722756  1
  O  O393  1  0.78542116  0.07509036  0.80767881  1
  O  O394  1  0.78775717  0.58713326  0.30407730  1
  O  O395  1  0.79053410  0.58579869  0.80514182  1
  O  O396  1  0.28879299  0.33072180  0.30372203  1
  O  O397  1  0.28750871  0.33519449  0.79762136  1
  O  O398  1  0.29282466  0.83448944  0.30368181  1
  O  O399  1  0.28652282  0.83073145  0.80463919  1
  O  O400  1  0.62370989  0.33492753  0.30266198  1
  O  O401  1  0.61710602  0.33896506  0.79910046  1
  O  O402  1  0.62296750  0.82955610  0.30370295  1
  O  O403  1  0.62435004  0.83078238  0.80304396  1
  O  O404  1  0.95639592  0.33642648  0.30757464  1
  O  O405  1  0.94426379  0.33987806  0.80099211  1
  O  O406  1  0.95317236  0.82654805  0.30709016  1
  O  O407  1  0.95799338  0.83159418  0.80160712  1
  O  O408  1  0.12530979  0.41809080  0.30725671  1
  O  O409  1  0.12850911  0.41705747  0.80543929  1
  O  O410  1  0.13528916  0.91588272  0.30662048  1
  O  O411  1  0.12490239  0.91597239  0.80738846  1
  O  O412  1  0.45448674  0.41816252  0.30560735  1
  O  O413  1  0.45589510  0.42383957  0.80904277  1
  O  O414  1  0.45643004  0.91424049  0.30369482  1
  O  O415  1  0.45767557  0.91090999  0.80667934  1
  O  O416  1  0.79212571  0.42112803  0.30743948  1
  O  O417  1  0.78788789  0.42229304  0.80670098  1
  O  O418  1  0.78789006  0.91103804  0.30485607  1
  O  O419  1  0.78758124  0.91329392  0.80900944  1
  O  O420  1  0.29037952  0.16362732  0.30435937  1
  O  O421  1  0.28508297  0.15871970  0.81063047  1
  O  O422  1  0.29232207  0.66808473  0.30545124  1
  O  O423  1  0.28863761  0.66635374  0.80407441  1
  O  O424  1  0.63492163  0.16585139  0.30830385  1
  O  O425  1  0.62206791  0.16019982  0.81415822  1
  O  O426  1  0.62156369  0.66722987  0.30337681  1
  O  O427  1  0.62520358  0.66683620  0.80385154  1
  O  O428  1  0.95440722  0.16707143  0.30044707  1
  O  O429  1  0.94828966  0.15959396  0.80188144  1
  O  O430  1  0.95718960  0.66779530  0.30850025  1
  O  O431  1  0.95940914  0.66728000  0.80731462  1
  F  F432  1  0.05050756  0.00842925  0.20057412  1
  F  F433  1  0.04671132  -0.00422988  0.70444095  1
  F  F434  1  0.04312746  0.50095468  0.20307472  1
  F  F435  1  0.04748195  0.51079107  0.69724472  1
  F  F436  1  0.37793832  -0.00245386  0.19863043  1
  F  F437  1  0.37856697  -0.00518638  0.70029824  1
  F  F438  1  0.37806694  0.50055305  0.20198046  1
  F  F439  1  0.38065282  0.50466827  0.70286621  1
  F  F440  1  0.71237453  -0.00099217  0.20462254  1
  F  F441  1  0.71295386  -0.00379150  0.70212364  1
  F  F442  1  0.71284185  0.50017403  0.20414880  1
  F  F443  1  0.71198239  0.50529386  0.70298210  1
  F  F444  1  0.21168398  0.24869865  0.20309296  1
  F  F445  1  0.20314875  0.24770440  0.69634716  1
  F  F446  1  0.21179102  0.75004791  0.20381152  1
  F  F447  1  0.21040278  0.74833292  0.70192108  1
  F  F448  1  0.55328161  0.25783101  0.20019016  1
  F  F449  1  0.53777006  0.24938450  0.69922321  1
  F  F450  1  0.54341011  0.74886679  0.19914033  1
  F  F451  1  0.54590431  0.74835812  0.70131136  1
  F  F452  1  0.87621838  0.25250219  0.20357642  1
  F  F453  1  0.85779476  0.25600408  0.68913262  1
  F  F454  1  0.87935725  0.74879437  0.20321057  1
  F  F455  1  0.87865548  0.74743418  0.70239598  1
  F  F456  1  0.28925587  -0.00136641  0.29499631  1
  F  F457  1  0.28690364  -0.00451598  0.79761757  1
  F  F458  1  0.29020461  0.50323005  0.29800846  1
  F  F459  1  0.28621304  0.50264343  0.79578681  1
  F  F460  1  0.62177618  -0.00224523  0.29905016  1
  F  F461  1  0.61987408  -0.00514417  0.79751340  1
  F  F462  1  0.62173909  0.50067911  0.29954411  1
  F  F463  1  0.62075151  0.50522146  0.79926554  1
  F  F464  1  0.95023849  0.00848931  0.30268185  1
  F  F465  1  0.95578016  0.00014578  0.80034198  1
  F  F466  1  0.95465691  0.50201937  0.29917491  1
  F  F467  1  0.95144224  0.50883189  0.79987318  1
  F  F468  1  0.12520887  0.24914387  0.30034388  1
  F  F469  1  0.13035737  0.24906681  0.80167663  1
  F  F470  1  0.12368025  0.75039702  0.30055396  1
  F  F471  1  0.12296208  0.74941786  0.79811563  1
  F  F472  1  0.44943638  0.25906635  0.30243319  1
  F  F473  1  0.45570092  0.25774918  0.80858865  1
  F  F474  1  0.45514134  0.74953567  0.29430926  1
  F  F475  1  0.45551137  0.74700859  0.79797984  1
  F  F476  1  0.79090766  0.25127193  0.30009451  1
  F  F477  1  0.78707535  0.26120818  0.80351110  1
  F  F478  1  0.78475598  0.74914408  0.29662939  1
  F  F479  1  0.78855737  0.74882895  0.79866077  1
