# generated using pymatgen
data_K24Na3Li5Mg64Fe17Si79(O5F)48
_symmetry_space_group_name_H-M   'P 1'
_cell_length_a   16.10147716
_cell_length_b   18.59221058
_cell_length_c   20.56547924
_cell_angle_alpha   89.99135413
_cell_angle_beta   100.01675076
_cell_angle_gamma   90.02399377
_symmetry_Int_Tables_number   1
_chemical_formula_structural   K24Na3Li5Mg64Fe17Si79(O5F)48
_chemical_formula_sum   'K24 Na3 Li5 Mg64 Fe17 Si79 O240 F48'
_cell_volume   6062.67931481
_cell_formula_units_Z   1
loop_
 _symmetry_equiv_pos_site_id
 _symmetry_equiv_pos_as_xyz
  1  'x, y, z'
loop_
 _atom_site_type_symbol
 _atom_site_label
 _atom_site_symmetry_multiplicity
 _atom_site_fract_x
 _atom_site_fract_y
 _atom_site_fract_z
 _atom_site_occupancy
  K  K0  1  0.00280536  -0.00035036  -0.00330679  1
  K  K1  1  0.00277937  0.00031571  0.50144451  1
  K  K2  1  0.00611859  0.50400175  0.00431348  1
  K  K3  1  0.00694031  0.50367929  0.50135557  1
  K  K4  1  0.35067345  0.00647945  -0.00886500  1
  K  K5  1  0.34333741  0.00352281  0.50576550  1
  K  K6  1  0.32746195  0.50111437  -0.00893106  1
  K  K7  1  0.32424842  0.50596188  0.50054975  1
  K  K8  1  0.65527027  0.00109861  -0.00488042  1
  K  K9  1  0.65102448  -0.00098345  0.50245861  1
  K  K10  1  0.66442934  0.49606030  -0.00392132  1
  K  K11  1  0.66983310  0.49920736  0.50370218  1
  K  K12  1  0.17348097  0.25644125  -0.00099147  1
  K  K13  1  0.17186198  0.25208546  0.50429609  1
  K  K14  1  0.16166899  0.73884703  -0.00623798  1
  K  K15  1  0.16653170  0.73369303  0.49815718  1
  K  K16  1  0.49176435  0.25094793  -0.00796608  1
  K  K17  1  0.50156858  0.25294005  0.50131124  1
  K  K18  1  0.48819854  0.75442899  -0.01133803  1
  K  K19  1  0.49695866  0.74660768  0.50555108  1
  K  K20  1  0.83449148  0.26247864  0.00460923  1
  K  K21  1  0.81471719  0.26405827  0.49906161  1
  K  K22  1  0.82715238  0.73926388  0.00086261  1
  K  K23  1  0.82995365  0.74420871  0.51047500  1
  Na  Na24  1  0.66434878  0.74770059  0.75068544  1
  Na  Na25  1  0.17021645  0.16750315  0.74935707  1
  Na  Na26  1  0.50120622  0.33447620  0.75518668  1
  Li  Li27  1  0.33649389  0.74920265  0.75531660  1
  Li  Li28  1  0.50307046  0.49872041  0.75546272  1
  Li  Li29  1  0.33462525  0.08648282  0.75224656  1
  Li  Li30  1  0.50277138  0.33662892  0.25744918  1
  Li  Li31  1  0.00086280  0.58724218  0.25252417  1
  Mg  Mg32  1  0.50067955  0.49718818  0.25430188  1
  Mg  Mg33  1  0.16135486  0.49901598  0.24921921  1
  Mg  Mg34  1  0.83269788  0.00000147  0.24948957  1
  Mg  Mg35  1  0.83314837  0.50217959  0.74944845  1
  Mg  Mg36  1  0.50107323  -0.00091601  0.24983314  1
  Mg  Mg37  1  0.00100700  0.24810044  0.74837588  1
  Mg  Mg38  1  -0.00058381  0.75032619  0.74867652  1
  Mg  Mg39  1  0.66849450  0.74751911  0.25172147  1
  Mg  Mg40  1  0.33404531  0.24908902  0.75150388  1
  Mg  Mg41  1  0.33219547  0.74855601  0.25267619  1
  Mg  Mg42  1  0.16461552  0.50193071  0.75306566  1
  Mg  Mg43  1  0.83492486  0.50060905  0.25019832  1
  Mg  Mg44  1  0.66329096  0.25312729  0.25103973  1
  Mg  Mg45  1  0.17196864  0.00172430  0.74905449  1
  Mg  Mg46  1  0.83075978  -0.00105791  0.74734795  1
  Mg  Mg47  1  0.00081466  0.25014926  0.24758710  1
  Mg  Mg48  1  0.16887768  0.00024846  0.24663965  1
  Mg  Mg49  1  -0.00017097  0.74713881  0.24885050  1
  Mg  Mg50  1  0.66506021  0.24974917  0.75116797  1
  Mg  Mg51  1  0.33793805  0.25362481  0.25120373  1
  Mg  Mg52  1  0.49392648  0.00012840  0.74821863  1
  Mg  Mg53  1  0.83180704  0.83304049  0.74722020  1
  Mg  Mg54  1  0.17002510  0.16681664  0.24764872  1
  Mg  Mg55  1  0.83158357  0.33374489  0.74919348  1
  Mg  Mg56  1  0.66590539  0.91436664  0.24981576  1
  Mg  Mg57  1  0.16879295  0.33344838  0.75359611  1
  Mg  Mg58  1  0.49822125  0.66542671  0.75392806  1
  Mg  Mg59  1  0.33629269  0.91549946  0.25081437  1
  Mg  Mg60  1  0.00158880  0.91729853  0.74746257  1
  Mg  Mg61  1  0.83100329  0.66423344  0.74895897  1
  Mg  Mg62  1  -0.00102299  0.58543184  0.74971774  1
  Mg  Mg63  1  0.33586919  0.58371242  0.75648667  1
  Mg  Mg64  1  0.66451463  0.08495792  0.24865555  1
  Mg  Mg65  1  0.00182091  0.08259528  0.74715854  1
  Mg  Mg66  1  0.16582426  0.83320684  0.24672033  1
  Mg  Mg67  1  0.16735380  0.33420006  0.25046227  1
  Mg  Mg68  1  0.50249671  0.16734860  0.24900920  1
  Mg  Mg69  1  0.17128756  0.83337430  0.74965143  1
  Mg  Mg70  1  0.49630149  0.83110034  0.75222791  1
  Mg  Mg71  1  0.83211013  0.16424072  0.74696024  1
  Mg  Mg72  1  0.33616237  0.91682073  0.75192160  1
  Mg  Mg73  1  0.50135870  0.66479436  0.25150874  1
  Mg  Mg74  1  0.83244924  0.16635714  0.24811996  1
  Mg  Mg75  1  0.00032865  0.91612556  0.24720263  1
  Mg  Mg76  1  0.66447715  0.41763699  0.75336881  1
  Mg  Mg77  1  0.49455640  0.16453563  0.74739581  1
  Mg  Mg78  1  0.83849066  0.66247709  0.25030714  1
  Mg  Mg79  1  0.66464328  0.58231013  0.75047110  1
  Mg  Mg80  1  0.33749179  0.08550985  0.24936597  1
  Mg  Mg81  1  0.66733638  0.41533403  0.25315673  1
  Mg  Mg82  1  0.67043150  0.58202186  0.25197268  1
  Mg  Mg83  1  0.83522911  0.83274527  0.25032345  1
  Mg  Mg84  1  0.16845783  0.66737427  0.75243524  1
  Mg  Mg85  1  0.33099749  0.58315263  0.25160089  1
  Mg  Mg86  1  0.83249416  0.33542076  0.25032802  1
  Mg  Mg87  1  0.33588421  0.41893460  0.75358056  1
  Mg  Mg88  1  0.66180250  0.91463097  0.74908945  1
  Mg  Mg89  1  -0.00046072  0.41511835  0.74905962  1
  Mg  Mg90  1  0.00131386  0.08373124  0.24657753  1
  Mg  Mg91  1  0.33498652  0.41543585  0.25345481  1
  Mg  Mg92  1  0.66183435  0.08409730  0.74895968  1
  Mg  Mg93  1  0.50063586  0.83325366  0.25144716  1
  Mg  Mg94  1  0.16094419  0.66270351  0.24987087  1
  Mg  Mg95  1  0.00034689  0.41548505  0.24830336  1
  Fe  Fe96  1  0.81411599  0.41762340  0.39177229  1
  Fe  Fe97  1  0.63564308  0.33861941  0.39241158  1
  Fe  Fe98  1  0.52478025  0.08312426  0.10979573  1
  Fe  Fe99  1  0.47595157  0.91179687  0.39026434  1
  Fe  Fe100  1  0.81144551  0.58659962  0.39099063  1
  Fe  Fe101  1  0.02578400  0.33160136  0.10808537  1
  Fe  Fe102  1  0.97422442  0.67585860  0.39244101  1
  Fe  Fe103  1  0.85898825  0.58296388  0.60772847  1
  Fe  Fe104  1  0.30765938  0.33423807  0.39086303  1
  Fe  Fe105  1  0.47814829  0.91491837  0.89201439  1
  Fe  Fe106  1  0.13745890  0.57680364  0.39039260  1
  Fe  Fe107  1  0.51891830  0.08363720  0.60780757  1
  Fe  Fe108  1  0.13596661  0.58269610  0.89046797  1
  Fe  Fe109  1  0.02251718  0.66949355  0.10611566  1
  Fe  Fe110  1  0.80680934  0.58343085  0.89019188  1
  Fe  Fe111  1  0.47810941  0.09077407  0.88914564  1
  Fe  Fe112  1  0.47860984  0.42042383  0.89487374  1
  Si  Si113  1  0.69173830  0.83502344  0.61309045  1
  Si  Si114  1  0.96971892  0.67505663  0.88662700  1
  Si  Si115  1  0.02309607  0.84182220  0.10924029  1
  Si  Si116  1  0.85408080  0.41649921  0.11077967  1
  Si  Si117  1  0.97126874  0.32371343  0.38549637  1
  Si  Si118  1  0.69321963  0.16609488  0.61165674  1
  Si  Si119  1  0.69133085  0.66620948  0.11440395  1
  Si  Si120  1  0.35713260  0.82706422  0.11499019  1
  Si  Si121  1  0.30236324  0.83534984  0.88787754  1
  Si  Si122  1  0.63871239  0.66442666  0.88798849  1
  Si  Si123  1  0.19427813  0.08165091  0.61320036  1
  Si  Si124  1  0.13541190  0.40727607  0.38937397  1
  Si  Si125  1  0.30514633  0.66836424  0.89010899  1
  Si  Si126  1  0.80747030  0.91542764  0.88363061  1
  Si  Si127  1  0.97959007  0.84264631  0.38540620  1
  Si  Si128  1  0.65354207  0.33356705  0.88929841  1
  Si  Si129  1  0.65144726  0.17129063  0.88839639  1
  Si  Si130  1  0.69036090  0.33272409  0.11431395  1
  Si  Si131  1  0.30481846  0.33306629  0.88992295  1
  Si  Si132  1  0.19578465  0.91785220  0.61258879  1
  Si  Si133  1  0.19630838  0.08321989  0.11282818  1
  Si  Si134  1  0.47458529  0.59016166  0.38617796  1
  Si  Si135  1  0.36325863  0.33875973  0.11780979  1
  Si  Si136  1  0.64759143  0.82789753  0.38764300  1
  Si  Si137  1  0.85928859  0.41026604  0.61288474  1
  Si  Si138  1  0.85336562  0.58094383  0.11103594  1
  Si  Si139  1  0.68871648  0.66621235  0.61058257  1
  Si  Si140  1  0.97488969  0.16059969  0.88300575  1
  Si  Si141  1  0.47783722  0.08199899  0.38544538  1
  Si  Si142  1  0.30580111  0.16810618  0.88710239  1
  Si  Si143  1  0.52767030  0.58290668  0.11631241  1
  Si  Si144  1  0.52802173  0.41819620  0.11753979  1
  Si  Si145  1  0.03016066  0.67223301  0.61273447  1
  Si  Si146  1  0.14062385  0.08104450  0.88359313  1
  Si  Si147  1  0.35898974  0.66288830  0.61909147  1
  Si  Si148  1  0.14011353  0.91879578  0.88370372  1
  Si  Si149  1  0.52320586  0.91017905  0.11307896  1
  Si  Si150  1  0.52444250  0.58428311  0.61589506  1
  Si  Si151  1  0.02626702  0.16287375  0.61232855  1
  Si  Si152  1  0.19629658  0.91749704  0.11269023  1
  Si  Si153  1  0.80858745  0.08074271  0.88388777  1
  Si  Si154  1  0.02712258  0.32887199  0.61429792  1
  Si  Si155  1  0.97847738  0.16050016  0.38262449  1
  Si  Si156  1  0.69597571  0.16762354  0.11221164  1
  Si  Si157  1  0.14652875  0.08294533  0.38186532  1
  Si  Si158  1  0.47433392  0.59178858  0.89202288  1
  Si  Si159  1  0.97486717  0.83884475  0.88178707  1
  Si  Si160  1  0.36155142  0.66294625  0.11630684  1
  Si  Si161  1  0.69213688  0.83138086  0.11447916  1
  Si  Si162  1  0.52575758  0.41970866  0.61708686  1
  Si  Si163  1  0.13601558  0.41194505  0.88752359  1
  Si  Si164  1  0.19711648  0.41776135  0.11320789  1
  Si  Si165  1  0.18918456  0.41917579  0.61765616  1
  Si  Si166  1  0.64393252  0.16709653  0.38749347  1
  Si  Si167  1  0.85975202  0.08422606  0.61128486  1
  Si  Si168  1  0.35683207  0.82791600  0.61695165  1
  Si  Si169  1  0.46785790  0.42672819  0.39251535  1
  Si  Si170  1  0.02814354  0.83832476  0.61303716  1
  Si  Si171  1  0.52112867  0.91111062  0.61174205  1
  Si  Si172  1  0.30612741  0.66777048  0.38741097  1
  Si  Si173  1  0.81617587  0.41525962  0.88690019  1
  Si  Si174  1  0.35245673  0.17466514  0.60999289  1
  Si  Si175  1  0.85739355  0.91743029  0.61141500  1
  Si  Si176  1  0.68862816  0.33302342  0.61612996  1
  Si  Si177  1  0.14104951  0.92037612  0.38108120  1
  Si  Si178  1  0.64445299  0.83064419  0.88752272  1
  Si  Si179  1  0.30139393  0.83424031  0.38638249  1
  Si  Si180  1  0.97271551  0.32530308  0.88260090  1
  Si  Si181  1  0.85449608  0.91930186  0.11376914  1
  Si  Si182  1  0.35460967  0.33944199  0.61663869  1
  Si  Si183  1  0.80823818  0.08249600  0.38425715  1
  Si  Si184  1  0.02511002  0.15856910  0.10996443  1
  Si  Si185  1  0.19587861  0.58331013  0.11265073  1
  Si  Si186  1  0.80901541  0.91665638  0.38465078  1
  Si  Si187  1  0.35657306  0.17343350  0.11267896  1
  Si  Si188  1  0.85772557  0.08290301  0.11380502  1
  Si  Si189  1  0.64080457  0.66412288  0.38613791  1
  Si  Si190  1  0.31338780  0.16458061  0.38577467  1
  Si  Si191  1  0.19365808  0.58423688  0.61854936  1
  O  O192  1  0.26590315  0.13144820  0.08368600  1
  O  O193  1  0.26116312  0.13212345  0.58172277  1
  O  O194  1  0.28265029  0.61140251  0.08637995  1
  O  O195  1  0.27316614  0.61700634  0.58754461  1
  O  O196  1  0.62185501  0.11488652  0.07806987  1
  O  O197  1  0.61404071  0.12023403  0.57498647  1
  O  O198  1  0.60426599  0.62166733  0.08579717  1
  O  O199  1  0.59512773  0.62931297  0.58236376  1
  O  O200  1  0.94323160  0.10421919  0.08505603  1
  O  O201  1  0.93805854  0.12005790  0.58015726  1
  O  O202  1  0.92664507  0.61229782  0.07407026  1
  O  O203  1  0.94688821  0.63188852  0.57620565  1
  O  O204  1  0.12045332  0.36797805  0.07622069  1
  O  O205  1  0.10230388  0.37354028  0.58636374  1
  O  O206  1  0.10244545  0.88501340  0.08279045  1
  O  O207  1  0.10158082  0.88285008  0.58281782  1
  O  O208  1  0.44394783  0.37075609  0.08741855  1
  O  O209  1  0.43509037  0.37785901  0.58935350  1
  O  O210  1  0.44010581  0.85770216  0.08767662  1
  O  O211  1  0.43698540  0.86014280  0.58525496  1
  O  O212  1  0.76761042  0.36859497  0.08309257  1
  O  O213  1  0.76891220  0.36785272  0.58750269  1
  O  O214  1  0.77193522  0.86886469  0.08563798  1
  O  O215  1  0.76970952  0.87432123  0.58091606  1
  O  O216  1  0.28352237  0.39043034  0.08667943  1
  O  O217  1  0.26776651  0.38563331  0.58584429  1
  O  O218  1  0.27075269  0.87249011  0.08462589  1
  O  O219  1  0.26953368  0.87261750  0.58366895  1
  O  O220  1  0.60546137  0.38049747  0.08665583  1
  O  O221  1  0.60094607  0.37593141  0.58575339  1
  O  O222  1  0.60476238  0.87412778  0.08530753  1
  O  O223  1  0.60259985  0.87514022  0.58256361  1
  O  O224  1  0.92750824  0.38457774  0.07392810  1
  O  O225  1  0.93357590  0.36186285  0.58557832  1
  O  O226  1  0.93845519  0.89419591  0.08440527  1
  O  O227  1  0.93726064  0.87948356  0.58338861  1
  O  O228  1  0.10267363  0.11544391  0.08279976  1
  O  O229  1  0.09997417  0.11776995  0.58347516  1
  O  O230  1  0.11927485  0.63235897  0.07624978  1
  O  O231  1  0.11318361  0.63545071  0.58857855  1
  O  O232  1  0.42925252  0.13930143  0.07763948  1
  O  O233  1  0.42219280  0.13776661  0.57227340  1
  O  O234  1  0.44334234  0.63120472  0.08775814  1
  O  O235  1  0.43430649  0.62511788  0.58556849  1
  O  O236  1  0.78396456  0.14077550  0.08592285  1
  O  O237  1  0.77712682  0.13322682  0.58333809  1
  O  O238  1  0.76680766  0.62932058  0.08290890  1
  O  O239  1  0.75694914  0.62968644  0.57166226  1
  O  O240  1  0.06078820  0.10813715  0.41018624  1
  O  O241  1  0.05810843  0.11240318  0.91356524  1
  O  O242  1  0.05640198  0.61369616  0.43453560  1
  O  O243  1  0.04533483  0.62401766  0.92304789  1
  O  O244  1  0.39085520  0.10752674  0.41161610  1
  O  O245  1  0.38515275  0.12387048  0.92632143  1
  O  O246  1  0.39393833  0.62303812  0.41527456  1
  O  O247  1  0.39408991  0.62780409  0.92176798  1
  O  O248  1  0.72809540  0.11422660  0.41421009  1
  O  O249  1  0.73282279  0.11639312  0.91599437  1
  O  O250  1  0.70474109  0.60277901  0.41758613  1
  O  O251  1  0.71046135  0.60994293  0.92539851  1
  O  O252  1  0.20408976  0.34586665  0.41866814  1
  O  O253  1  0.21866207  0.36235183  0.91553314  1
  O  O254  1  0.21264454  0.86099860  0.41052493  1
  O  O255  1  0.21636288  0.86518413  0.91563062  1
  O  O256  1  0.53979851  0.37071265  0.42624167  1
  O  O257  1  0.57494213  0.35924374  0.92299911  1
  O  O258  1  0.57055179  0.85338908  0.42298541  1
  O  O259  1  0.57244645  0.85593124  0.92829526  1
  O  O260  1  0.88992791  0.33914901  0.41843976  1
  O  O261  1  0.89114737  0.35438484  0.91188014  1
  O  O262  1  0.89639238  0.87434429  0.41402777  1
  O  O263  1  0.89497269  0.87164048  0.91248232  1
  O  O264  1  0.04725760  0.37974003  0.41408016  1
  O  O265  1  0.05636343  0.37111652  0.91367924  1
  O  O266  1  0.05260656  0.90600541  0.40783681  1
  O  O267  1  0.05413406  0.89259409  0.91086488  1
  O  O268  1  0.38164866  0.41026832  0.42169936  1
  O  O269  1  0.38447201  0.37855460  0.92749110  1
  O  O270  1  0.37587077  0.88650086  0.42152066  1
  O  O271  1  0.38170272  0.88089883  0.92553214  1
  O  O272  1  0.72282395  0.39667713  0.43253617  1
  O  O273  1  0.73505344  0.38621143  0.91850518  1
  O  O274  1  0.73134205  0.87954752  0.41426193  1
  O  O275  1  0.73200141  0.87884026  0.91548370  1
  O  O276  1  0.22678892  0.13375444  0.41191866  1
  O  O277  1  0.21948984  0.13340894  0.91185997  1
  O  O278  1  0.23459030  0.63475511  0.42371270  1
  O  O279  1  0.23361497  0.63356813  0.92745461  1
  O  O280  1  0.55914442  0.13451804  0.41248583  1
  O  O281  1  0.57306643  0.14996848  0.92299891  1
  O  O282  1  0.54992279  0.64877238  0.41137930  1
  O  O283  1  0.55189534  0.64943761  0.91879944  1
  O  O284  1  0.89732474  0.12616757  0.41208177  1
  O  O285  1  0.89669669  0.12402987  0.91318966  1
  O  O286  1  0.87299827  0.66727390  0.42195928  1
  O  O287  1  0.88453892  0.65829807  0.91546584  1
  O  O288  1  0.19835299  0.00027597  0.08454212  1
  O  O289  1  0.19242974  -0.00048154  0.57970412  1
  O  O290  1  0.18201430  0.50047436  0.08492722  1
  O  O291  1  0.17475403  0.50204668  0.58900093  1
  O  O292  1  0.50264694  -0.01251286  0.07990077  1
  O  O293  1  0.50394906  -0.01200272  0.57512469  1
  O  O294  1  0.51518988  0.50085586  0.08650193  1
  O  O295  1  0.51828675  0.50178622  0.58441933  1
  O  O296  1  0.83039103  0.00135233  0.08579400  1
  O  O297  1  0.84829528  0.00079141  0.58206029  1
  O  O298  1  0.82919458  0.49845332  0.08386169  1
  O  O299  1  0.85444507  0.48719550  0.57755069  1
  O  O300  1  0.00782780  0.23514306  0.07410183  1
  O  O301  1  0.02691148  0.24601364  0.58405098  1
  O  O302  1  0.00668130  0.76634847  0.07181400  1
  O  O303  1  0.02567890  0.75656094  0.58427049  1
  O  O304  1  0.34109877  0.25747247  0.08721887  1
  O  O305  1  0.33913544  0.25911539  0.58224783  1
  O  O306  1  0.34232525  0.74474958  0.08611705  1
  O  O307  1  0.34398532  0.74492880  0.58769342  1
  O  O308  1  0.67854002  0.25051671  0.08407206  1
  O  O309  1  0.68129541  0.25051395  0.58630931  1
  O  O310  1  0.68184740  0.74932390  0.08490830  1
  O  O311  1  0.68171020  0.75229954  0.58549737  1
  O  O312  1  0.17114129  0.00105272  0.40928196  1
  O  O313  1  0.15926691  -0.00019001  0.91586560  1
  O  O314  1  0.16233578  0.48327446  0.42554620  1
  O  O315  1  0.14878440  0.48843664  0.92450094  1
  O  O316  1  0.50399688  0.00516823  0.41958937  1
  O  O317  1  0.50398778  0.00327375  0.93077254  1
  O  O318  1  0.49856640  0.51075280  0.41755438  1
  O  O319  1  0.49693986  0.51560524  0.92977770  1
  O  O320  1  0.82286281  -0.00029365  0.41293300  1
  O  O321  1  0.82267156  -0.00187861  0.91286673  1
  O  O322  1  0.86334857  0.50280828  0.42459691  1
  O  O323  1  0.84762062  0.49119241  0.92035871  1
  O  O324  1  0.34069911  0.24000694  0.42109157  1
  O  O325  1  0.31203514  0.25021046  0.91913484  1
  O  O326  1  0.32248977  0.75200590  0.41355015  1
  O  O327  1  0.31508991  0.75252857  0.91646726  1
  O  O328  1  0.66364767  0.24271276  0.42421771  1
  O  O329  1  0.68569935  0.25161689  0.91534394  1
  O  O330  1  0.67339074  0.74540504  0.41251031  1
  O  O331  1  0.67129839  0.74730201  0.91009915  1
  O  O332  1  1.00349104  0.24052096  0.41149998  1
  O  O333  1  0.98935155  0.24257213  0.91126296  1
  O  O334  1  1.01412105  0.77066178  0.42224313  1
  O  O335  1  0.99872958  0.75911040  0.91075709  1
  O  O336  1  0.21220460  0.08273208  0.19339976  1
  O  O337  1  0.21029031  0.07596263  0.69133180  1
  O  O338  1  0.21262907  0.58495595  0.19328832  1
  O  O339  1  0.21059759  0.58409706  0.69827462  1
  O  O340  1  0.54542114  0.08117591  0.20160850  1
  O  O341  1  0.54483511  0.08212587  0.69865572  1
  O  O342  1  0.54419159  0.58393676  0.19663552  1
  O  O343  1  0.54419822  0.58632532  0.69516799  1
  O  O344  1  0.87674337  0.08170531  0.19442764  1
  O  O345  1  0.87695008  0.08166173  0.69175352  1
  O  O346  1  0.87125757  0.58285372  0.19069312  1
  O  O347  1  0.88089452  0.58370743  0.69934645  1
  O  O348  1  0.04599631  0.32964396  0.19958429  1
  O  O349  1  0.04362724  0.33068822  0.69453680  1
  O  O350  1  0.04285442  0.83904355  0.19026525  1
  O  O351  1  0.04397245  0.83765434  0.69330017  1
  O  O352  1  0.37920844  0.33638069  0.19728709  1
  O  O353  1  0.36613073  0.33627725  0.69555030  1
  O  O354  1  0.37367770  0.82970617  0.19526293  1
  O  O355  1  0.37300762  0.83288857  0.69585197  1
  O  O356  1  0.71026799  0.33091492  0.19410219  1
  O  O357  1  0.70930397  0.33232006  0.69636708  1
  O  O358  1  0.71073959  0.83334470  0.19498696  1
  O  O359  1  0.71454120  0.84202619  0.69207950  1
  O  O360  1  0.21090442  0.41663901  0.19384205  1
  O  O361  1  0.20531293  0.41829958  0.69771691  1
  O  O362  1  0.21231815  0.91662642  0.19325368  1
  O  O363  1  0.20911814  0.91637188  0.69253579  1
  O  O364  1  0.54553688  0.42161779  0.19672598  1
  O  O365  1  0.55029789  0.42179717  0.69522570  1
  O  O366  1  0.54502852  0.91184749  0.19404455  1
  O  O367  1  0.54314484  0.91362882  0.69197963  1
  O  O368  1  0.87638601  0.41290723  0.19120760  1
  O  O369  1  0.87809864  0.41251408  0.69387372  1
  O  O370  1  0.87493590  0.91812962  0.19430885  1
  O  O371  1  0.87628232  0.91825196  0.69167951  1
  O  O372  1  0.04423230  0.16219649  0.19098195  1
  O  O373  1  0.03363243  0.16468964  0.69132772  1
  O  O374  1  0.04636770  0.67356494  0.19568281  1
  O  O375  1  0.04304338  0.67147025  0.69333586  1
  O  O376  1  0.37519021  0.16754121  0.19340937  1
  O  O377  1  0.37442444  0.17334702  0.68940883  1
  O  O378  1  0.37809591  0.66629284  0.19676630  1
  O  O379  1  0.37680371  0.66185073  0.69820397  1
  O  O380  1  0.71262103  0.16490276  0.19316233  1
  O  O381  1  0.71222409  0.16366695  0.69251896  1
  O  O382  1  0.70782138  0.66844592  0.19443403  1
  O  O383  1  0.71221959  0.66031171  0.68981880  1
  O  O384  1  0.12542588  0.08267356  0.30124265  1
  O  O385  1  0.11690744  0.07510608  0.80456408  1
  O  O386  1  0.12400332  0.58084438  0.29941378  1
  O  O387  1  0.11809542  0.58483127  0.79873505  1
  O  O388  1  0.45734120  0.08193934  0.30446546  1
  O  O389  1  0.45670475  0.08258254  0.79923283  1
  O  O390  1  0.45541370  0.58621899  0.30543645  1
  O  O391  1  0.45326181  0.58869753  0.81209859  1
  O  O392  1  0.79123388  0.08256470  0.30364196  1
  O  O393  1  0.79189627  0.08168050  0.80334133  1
  O  O394  1  0.78894485  0.58404091  0.29808942  1
  O  O395  1  0.78700911  0.58284241  0.79892425  1
  O  O396  1  0.28802128  0.33222559  0.29895388  1
  O  O397  1  0.28959756  0.33506253  0.80918480  1
  O  O398  1  0.28780657  0.83497975  0.30506415  1
  O  O399  1  0.28562642  0.83834758  0.80790540  1
  O  O400  1  0.62387125  0.33377229  0.30133321  1
  O  O401  1  0.63850261  0.33267730  0.80939030  1
  O  O402  1  0.62647212  0.83201907  0.30632723  1
  O  O403  1  0.62052707  0.84060854  0.80821878  1
  O  O404  1  0.95436383  0.32628520  0.30446788  1
  O  O405  1  0.95494284  0.32893162  0.80217057  1
  O  O406  1  0.95785992  0.83892704  0.30407949  1
  O  O407  1  0.95618857  0.83855412  0.80120705  1
  O  O408  1  0.12209051  0.41269271  0.30788694  1
  O  O409  1  0.11954731  0.41585659  0.80648982  1
  O  O410  1  0.12423065  0.91916356  0.30030386  1
  O  O411  1  0.12251927  0.91809369  0.80325387  1
  O  O412  1  0.45274234  0.42488673  0.31160022  1
  O  O413  1  0.45020524  0.42550043  0.80759422  1
  O  O414  1  0.45591917  0.91485688  0.29806946  1
  O  O415  1  0.45616150  0.91596895  0.80016707  1
  O  O416  1  0.78962565  0.41656239  0.29852752  1
  O  O417  1  0.79540578  0.41541371  0.80582168  1
  O  O418  1  0.79087931  0.91672324  0.30394442  1
  O  O419  1  0.79052756  0.91689060  0.80326127  1
  O  O420  1  0.29169327  0.16467643  0.30455658  1
  O  O421  1  0.29660974  0.16979251  0.80848129  1
  O  O422  1  0.28913159  0.66725334  0.30610948  1
  O  O423  1  0.28539125  0.66356799  0.81016690  1
  O  O424  1  0.62841292  0.16615190  0.30666864  1
  O  O425  1  0.63283716  0.16689999  0.80782883  1
  O  O426  1  0.62283787  0.66652634  0.30470001  1
  O  O427  1  0.61875297  0.65746407  0.80849539  1
  O  O428  1  0.95770581  0.16154833  0.30208827  1
  O  O429  1  0.95579239  0.16184685  0.80259205  1
  O  O430  1  0.95422709  0.67285033  0.30085798  1
  O  O431  1  0.95774214  0.67131605  0.80531078  1
  F  F432  1  0.04611826  0.00026439  0.19870891  1
  F  F433  1  0.04401726  -0.00077771  0.69765787  1
  F  F434  1  0.04884048  0.48818083  0.19463747  1
  F  F435  1  0.04401572  0.49707403  0.70012890  1
  F  F436  1  0.37690875  0.00019839  0.19973783  1
  F  F437  1  0.37694604  -0.00743785  0.69487957  1
  F  F438  1  0.38004819  0.50170673  0.20393837  1
  F  F439  1  0.36561081  0.50250718  0.70129704  1
  F  F440  1  0.71269748  -0.00167175  0.20183951  1
  F  F441  1  0.71225372  0.00045542  0.70032625  1
  F  F442  1  0.70687406  0.49951432  0.19915058  1
  F  F443  1  0.71312921  0.49524515  0.70044512  1
  F  F444  1  0.21312146  0.24678474  0.19968299  1
  F  F445  1  0.21373221  0.26070962  0.69973717  1
  F  F446  1  0.21413204  0.75105289  0.20179098  1
  F  F447  1  0.20646628  0.74999328  0.70212364  1
  F  F448  1  0.54965720  0.24085819  0.19700975  1
  F  F449  1  0.55143163  0.24050392  0.69999604  1
  F  F450  1  0.54561705  0.74968970  0.20323691  1
  F  F451  1  0.53092821  0.74910518  0.69961655  1
  F  F452  1  0.87916352  0.24655140  0.20006428  1
  F  F453  1  0.87843199  0.24773115  0.69990910  1
  F  F454  1  0.87710096  0.75532772  0.19844680  1
  F  F455  1  0.88066506  0.75364994  0.69711520  1
  F  F456  1  0.28808207  0.00036981  0.29554030  1
  F  F457  1  0.28504398  -0.00498983  0.80042347  1
  F  F458  1  0.28523086  0.50078464  0.29620482  1
  F  F459  1  0.28307133  0.50020114  0.80240188  1
  F  F460  1  0.62553674  -0.00336107  0.29887394  1
  F  F461  1  0.62517816  -0.00115530  0.79759606  1
  F  F462  1  0.62098421  0.50181756  0.29926597  1
  F  F463  1  0.62936371  0.49946444  0.80192814  1
  F  F464  1  0.95587615  0.00064107  0.29514772  1
  F  F465  1  0.95257224  -0.00035046  0.79455199  1
  F  F466  1  0.95448611  0.49499099  0.29362452  1
  F  F467  1  0.95638454  0.49663551  0.79731304  1
  F  F468  1  0.12141554  0.24264417  0.29669394  1
  F  F469  1  0.11399806  0.25691940  0.80171267  1
  F  F470  1  0.12247173  0.75574752  0.29653620  1
  F  F471  1  0.11869218  0.75405059  0.79810505  1
  F  F472  1  0.45551222  0.24401010  0.29825615  1
  F  F473  1  0.45187720  0.24083294  0.80089229  1
  F  F474  1  0.45452251  0.74977706  0.29820471  1
  F  F475  1  0.45722724  0.74986230  0.80299537  1
  F  F476  1  0.78875288  0.24665592  0.29562870  1
  F  F477  1  0.79145426  0.24647656  0.79521220  1
  F  F478  1  0.78811517  0.75252664  0.29561509  1
  F  F479  1  0.80053482  0.75208470  0.79678461  1
