# generated using pymatgen
data_K24Na3Li5Mg64Fe17Si79(O5F)48
_symmetry_space_group_name_H-M   'P 1'
_cell_length_a   16.10997857
_cell_length_b   18.60253199
_cell_length_c   20.55750909
_cell_angle_alpha   90.00749905
_cell_angle_beta   100.00544098
_cell_angle_gamma   89.98448208
_symmetry_Int_Tables_number   1
_chemical_formula_structural   K24Na3Li5Mg64Fe17Si79(O5F)48
_chemical_formula_sum   'K24 Na3 Li5 Mg64 Fe17 Si79 O240 F48'
_cell_volume   6067.10737680
_cell_formula_units_Z   1
loop_
 _symmetry_equiv_pos_site_id
 _symmetry_equiv_pos_as_xyz
  1  'x, y, z'
loop_
 _atom_site_type_symbol
 _atom_site_label
 _atom_site_symmetry_multiplicity
 _atom_site_fract_x
 _atom_site_fract_y
 _atom_site_fract_z
 _atom_site_occupancy
  K  K0  1  -0.00464293  -0.00380224  0.00473843  1
  K  K1  1  -0.00580176  -0.00238585  0.49110515  1
  K  K2  1  0.00636394  0.50147444  0.01107832  1
  K  K3  1  0.00645589  0.51176717  0.49479915  1
  K  K4  1  0.33258305  0.00609871  0.00782370  1
  K  K5  1  0.32529530  -0.00414387  0.48523733  1
  K  K6  1  0.32252321  0.50644528  0.01627428  1
  K  K7  1  0.33074430  0.50193761  0.47663634  1
  K  K8  1  0.67703258  -0.00167406  -0.00297111  1
  K  K9  1  0.67570163  -0.01039553  0.50397249  1
  K  K10  1  0.68424866  0.49658678  0.00355883  1
  K  K11  1  0.66620818  0.50616673  0.49455584  1
  K  K12  1  0.17294586  0.25244659  0.01015103  1
  K  K13  1  0.16471367  0.24239801  0.48537264  1
  K  K14  1  0.16478579  0.74641579  0.00670463  1
  K  K15  1  0.15748653  0.75084668  0.48672919  1
  K  K16  1  0.49254053  0.24954070  0.00971926  1
  K  K17  1  0.48470151  0.24658811  0.48515840  1
  K  K18  1  0.50212527  0.75273965  0.00481331  1
  K  K19  1  0.49398154  0.75295970  0.49261637  1
  K  K20  1  0.84403093  0.25173362  0.00592739  1
  K  K21  1  0.83676168  0.24933991  0.49837423  1
  K  K22  1  0.84889528  0.76271745  -0.00549067  1
  K  K23  1  0.83846036  0.75091985  0.50735328  1
  Na  Na24  1  0.16186079  -0.00188893  0.24983249  1
  Na  Na25  1  0.83286458  0.83387469  0.74916923  1
  Na  Na26  1  0.66912597  0.91848548  0.74399274  1
  Li  Li27  1  0.15831217  0.50770413  0.24313060  1
  Li  Li28  1  0.00049655  0.24933947  0.75433662  1
  Li  Li29  1  0.15968457  0.66188339  0.25067956  1
  Li  Li30  1  0.01131998  0.58341798  0.24766079  1
  Li  Li31  1  0.00364209  0.91411443  0.23919681  1
  Mg  Mg32  1  0.00386975  0.74798733  0.24962510  1
  Mg  Mg33  1  0.83250231  0.49873637  0.75390312  1
  Mg  Mg34  1  -0.00173212  0.74856589  0.74708032  1
  Mg  Mg35  1  0.50227173  -0.00028751  0.25050666  1
  Mg  Mg36  1  0.33293854  0.74975215  0.74759634  1
  Mg  Mg37  1  0.00076237  0.25145669  0.24846480  1
  Mg  Mg38  1  0.66530826  0.25095348  0.75276313  1
  Mg  Mg39  1  0.16486052  0.50012058  0.74747204  1
  Mg  Mg40  1  0.33321229  0.24888795  0.25193501  1
  Mg  Mg41  1  0.66831973  0.74844675  0.24997122  1
  Mg  Mg42  1  0.16563948  0.00174403  0.75184677  1
  Mg  Mg43  1  0.83586146  0.50018458  0.25027099  1
  Mg  Mg44  1  0.83459113  0.00336968  0.74531427  1
  Mg  Mg45  1  0.49931053  0.49926916  0.75032197  1
  Mg  Mg46  1  0.84125905  -0.00055437  0.24663440  1
  Mg  Mg47  1  0.33151648  0.24922944  0.75000087  1
  Mg  Mg48  1  0.32799721  0.74913472  0.25551214  1
  Mg  Mg49  1  0.50028366  -0.00042052  0.74787331  1
  Mg  Mg50  1  0.49633045  0.50044057  0.25556956  1
  Mg  Mg51  1  0.66748500  0.25073795  0.24860595  1
  Mg  Mg52  1  0.66656482  0.74997682  0.74897238  1
  Mg  Mg53  1  0.50294429  0.83468874  0.74705405  1
  Mg  Mg54  1  0.83697678  0.16991013  0.75110773  1
  Mg  Mg55  1  -0.00201526  0.58486409  0.74796826  1
  Mg  Mg56  1  0.16382937  0.16740005  0.75170918  1
  Mg  Mg57  1  0.50047267  0.83404470  0.25077078  1
  Mg  Mg58  1  0.66918842  0.08427934  0.75153322  1
  Mg  Mg59  1  -0.00040883  0.41331351  0.75087281  1
  Mg  Mg60  1  0.49824466  0.33505701  0.25132630  1
  Mg  Mg61  1  0.66560369  0.41536116  0.25194952  1
  Mg  Mg62  1  0.66855686  0.41517665  0.75491084  1
  Mg  Mg63  1  0.83742627  0.66405907  0.24989811  1
  Mg  Mg64  1  0.16379391  0.33253159  0.74824217  1
  Mg  Mg65  1  0.16677065  0.16560645  0.24943420  1
  Mg  Mg66  1  0.33165618  0.58378317  0.74654690  1
  Mg  Mg67  1  0.33292188  0.41884892  0.25772169  1
  Mg  Mg68  1  0.00203301  0.42169017  0.24904380  1
  Mg  Mg69  1  0.83162256  0.33493288  0.24885801  1
  Mg  Mg70  1  -0.00229076  0.91725063  0.74799560  1
  Mg  Mg71  1  0.33205834  0.91611106  0.25185260  1
  Mg  Mg72  1  0.33127905  0.41574080  0.74780683  1
  Mg  Mg73  1  0.49784344  0.66619147  0.25533810  1
  Mg  Mg74  1  0.49904204  0.16492819  0.74999057  1
  Mg  Mg75  1  0.33134016  0.08416916  0.24894959  1
  Mg  Mg76  1  0.50004971  0.16546656  0.25095751  1
  Mg  Mg77  1  0.66797708  0.58390696  0.75279703  1
  Mg  Mg78  1  0.32870333  0.58379085  0.25789894  1
  Mg  Mg79  1  0.16423803  0.66497472  0.74726955  1
  Mg  Mg80  1  0.16498403  0.83095533  0.25016516  1
  Mg  Mg81  1  0.16400729  0.83414412  0.74657569  1
  Mg  Mg82  1  0.83374233  0.66595697  0.74891940  1
  Mg  Mg83  1  0.83643996  0.33383953  0.75496356  1
  Mg  Mg84  1  0.67156832  0.91486737  0.24680246  1
  Mg  Mg85  1  0.33321876  0.91568436  0.74860525  1
  Mg  Mg86  1  0.33113451  0.08402893  0.75040994  1
  Mg  Mg87  1  0.66871372  0.08321458  0.24500753  1
  Mg  Mg88  1  0.83271290  0.16655895  0.24583780  1
  Mg  Mg89  1  0.00208320  0.08791202  0.74977215  1
  Mg  Mg90  1  0.83847841  0.83260034  0.24745357  1
  Mg  Mg91  1  0.49953149  0.66602415  0.74990679  1
  Mg  Mg92  1  -0.00253057  0.08201207  0.24877185  1
  Mg  Mg93  1  0.16800695  0.33829760  0.25362656  1
  Mg  Mg94  1  0.49877655  0.33367509  0.75159032  1
  Mg  Mg95  1  0.66569238  0.58329358  0.25358313  1
  Fe  Fe96  1  0.30570484  0.15798822  0.39189390  1
  Fe  Fe97  1  0.85947174  0.91254866  0.10919059  1
  Fe  Fe98  1  0.81216713  0.92215693  0.88976883  1
  Fe  Fe99  1  0.86084296  0.92449935  0.60389030  1
  Fe  Fe100  1  0.85742331  0.08678172  0.10670736  1
  Fe  Fe101  1  0.68749965  0.33559479  0.11031315  1
  Fe  Fe102  1  0.48007526  0.41204664  0.39532610  1
  Fe  Fe103  1  0.97947473  0.66629493  0.88997945  1
  Fe  Fe104  1  0.02265839  0.66609596  0.60695398  1
  Fe  Fe105  1  0.68888081  0.82707441  0.60287827  1
  Fe  Fe106  1  0.30442417  0.83889850  0.39399616  1
  Fe  Fe107  1  0.14371165  0.08450743  0.89194512  1
  Fe  Fe108  1  0.47936927  0.58747950  0.39614757  1
  Fe  Fe109  1  0.19176003  0.91654314  0.10893690  1
  Fe  Fe110  1  0.36224573  0.16414284  0.11044256  1
  Fe  Fe111  1  0.80970806  0.41487416  0.89402086  1
  Fe  Fe112  1  0.19591380  0.42251882  0.11672180  1
  Si  Si113  1  0.64801110  0.83594163  0.38333749  1
  Si  Si114  1  0.36315016  0.33560028  0.11321373  1
  Si  Si115  1  0.86127906  0.41659322  0.11384531  1
  Si  Si116  1  0.52261647  0.08524191  0.61340357  1
  Si  Si117  1  0.85416919  0.57427268  0.61201361  1
  Si  Si118  1  0.68756347  0.65988342  0.11565064  1
  Si  Si119  1  0.35693565  0.33105240  0.61451526  1
  Si  Si120  1  0.13781939  0.58085314  0.38283074  1
  Si  Si121  1  0.52296275  0.57902908  0.61671604  1
  Si  Si122  1  0.14594269  0.41358131  0.88383939  1
  Si  Si123  1  0.97380966  0.66399301  0.38478311  1
  Si  Si124  1  0.19145146  0.59018895  0.11606488  1
  Si  Si125  1  0.52126201  0.41543730  0.61655637  1
  Si  Si126  1  0.12826012  0.08232249  0.38722303  1
  Si  Si127  1  0.30739879  0.66376343  0.88313816  1
  Si  Si128  1  0.36246600  0.66756012  0.61415133  1
  Si  Si129  1  0.30629214  0.82852655  0.88246790  1
  Si  Si130  1  0.64734302  0.32639385  0.38949064  1
  Si  Si131  1  0.46953142  0.91425981  0.88384176  1
  Si  Si132  1  0.36080442  0.83398239  0.61359851  1
  Si  Si133  1  0.14614067  0.57679359  0.88614092  1
  Si  Si134  1  0.80934161  0.08091791  0.38217275  1
  Si  Si135  1  0.31207331  0.17088580  0.88618522  1
  Si  Si136  1  0.30903238  0.33391543  0.88276256  1
  Si  Si137  1  0.63569394  0.66725156  0.88556105  1
  Si  Si138  1  0.14881825  0.91628383  0.88500708  1
  Si  Si139  1  0.52585448  0.42289368  0.11587740  1
  Si  Si140  1  0.48495635  0.08087406  0.38834927  1
  Si  Si141  1  0.98122835  0.33302252  0.88830568  1
  Si  Si142  1  0.80949576  0.09398517  0.88656158  1
  Si  Si143  1  0.85596456  0.58216869  0.11542017  1
  Si  Si144  1  0.53284635  0.07734926  0.11185801  1
  Si  Si145  1  0.68707509  0.65668475  0.61160642  1
  Si  Si146  1  0.02698839  0.33541246  0.61370935  1
  Si  Si147  1  0.85591533  0.40953197  0.61517688  1
  Si  Si148  1  0.36496370  0.83700648  0.11334718  1
  Si  Si149  1  0.47222300  0.08010314  0.88411307  1
  Si  Si150  1  0.98759925  0.83474062  0.88608244  1
  Si  Si151  1  0.19752735  0.58261454  0.60965165  1
  Si  Si152  1  0.96902631  0.17065890  0.38466727  1
  Si  Si153  1  0.96916855  0.82638530  0.38531976  1
  Si  Si154  1  0.97474582  0.16915214  0.88586663  1
  Si  Si155  1  0.19089945  0.08316003  0.61372430  1
  Si  Si156  1  0.69371008  0.82393298  0.11253737  1
  Si  Si157  1  0.80711466  0.41714085  0.38682503  1
  Si  Si158  1  0.02989075  0.83882212  0.60836358  1
  Si  Si159  1  0.68824523  0.16905480  0.11069387  1
  Si  Si160  1  0.97153880  0.33521823  0.38584939  1
  Si  Si161  1  0.02742161  0.33574058  0.11540708  1
  Si  Si162  1  0.52070300  0.92010403  0.60992811  1
  Si  Si163  1  0.02801662  0.17064241  0.61371985  1
  Si  Si164  1  0.13508370  0.41645776  0.38742267  1
  Si  Si165  1  0.19244997  0.41679062  0.61229323  1
  Si  Si166  1  0.63557783  0.83172002  0.88653579  1
  Si  Si167  1  0.30498743  0.66607347  0.39491883  1
  Si  Si168  1  0.63210400  0.33123931  0.88921325  1
  Si  Si169  1  0.30311483  0.33204872  0.39388136  1
  Si  Si170  1  0.80507026  0.58798575  0.89018805  1
  Si  Si171  1  0.68683629  0.17103473  0.61568322  1
  Si  Si172  1  0.35676103  0.16615885  0.61437196  1
  Si  Si173  1  0.19698899  0.91734565  0.61409178  1
  Si  Si174  1  0.47236907  0.58239205  0.88443142  1
  Si  Si175  1  0.85618285  0.09557900  0.61057793  1
  Si  Si176  1  0.80954590  0.58210044  0.38670244  1
  Si  Si177  1  0.51955266  0.58462871  0.11852219  1
  Si  Si178  1  0.46936180  0.41834549  0.88482824  1
  Si  Si179  1  0.12764422  0.91505583  0.38650310  1
  Si  Si180  1  0.64823938  0.16248988  0.38414924  1
  Si  Si181  1  0.64979445  0.67273702  0.38918911  1
  Si  Si182  1  0.68594250  0.33401456  0.61627617  1
  Si  Si183  1  0.02029978  0.66530217  0.11648731  1
  Si  Si184  1  0.48322420  0.91674722  0.38762174  1
  Si  Si185  1  0.63599084  0.16561563  0.88538149  1
  Si  Si186  1  0.02775448  0.17073794  0.11333570  1
  Si  Si187  1  0.02907826  0.82640544  0.10995190  1
  Si  Si188  1  0.81033861  0.91709964  0.38251376  1
  Si  Si189  1  0.35726950  0.67266464  0.11830055  1
  Si  Si190  1  0.53295030  0.91202013  0.11462480  1
  Si  Si191  1  0.18882728  0.08731085  0.11103795  1
  O  O192  1  0.26850676  0.10877361  0.07511706  1
  O  O193  1  0.27048432  0.12125040  0.58512555  1
  O  O194  1  0.26982602  0.63182942  0.08536545  1
  O  O195  1  0.28186168  0.61685305  0.58508059  1
  O  O196  1  0.62015188  0.10260581  0.08698852  1
  O  O197  1  0.60378601  0.12080576  0.58567472  1
  O  O198  1  0.60231144  0.61169132  0.08711128  1
  O  O199  1  0.60685314  0.60010688  0.58765445  1
  O  O200  1  0.95454667  0.11916588  0.07561388  1
  O  O201  1  0.93468960  0.13830942  0.58243803  1
  O  O202  1  0.93538410  0.61607878  0.08554000  1
  O  O203  1  0.92815481  0.60662137  0.57672742  1
  O  O204  1  0.10423836  0.36254091  0.08062308  1
  O  O205  1  0.10088254  0.37958243  0.58271433  1
  O  O206  1  0.11196814  0.84558298  0.07776927  1
  O  O207  1  0.11990463  0.86455988  0.58446326  1
  O  O208  1  0.45031226  0.36621917  0.08844452  1
  O  O209  1  0.43885625  0.36492703  0.58771638  1
  O  O210  1  0.45221712  0.86131832  0.08519887  1
  O  O211  1  0.43678535  0.86954507  0.58160091  1
  O  O212  1  0.78470128  0.36626792  0.07838795  1
  O  O213  1  0.76944915  0.36261534  0.58746597  1
  O  O214  1  0.77171590  0.84416334  0.07789998  1
  O  O215  1  0.77577128  0.86327930  0.56352359  1
  O  O216  1  0.28895112  0.38996553  0.08035944  1
  O  O217  1  0.26944063  0.37395740  0.58513436  1
  O  O218  1  0.29166056  0.88831134  0.07578620  1
  O  O219  1  0.27873704  0.88432840  0.58627472  1
  O  O220  1  0.60552390  0.40640241  0.08002873  1
  O  O221  1  0.60417179  0.38597796  0.58782665  1
  O  O222  1  0.61174763  0.87645014  0.08469828  1
  O  O223  1  0.59590805  0.89206500  0.57502746  1
  O  O224  1  0.94665332  0.38901565  0.08777638  1
  O  O225  1  0.93362103  0.37099174  0.58430045  1
  O  O226  1  0.95339181  0.87937328  0.07572832  1
  O  O227  1  0.96248120  0.89832295  0.57567575  1
  O  O228  1  0.11639156  0.15100740  0.08789978  1
  O  O229  1  0.10346199  0.12683953  0.58348980  1
  O  O230  1  0.10314417  0.63480422  0.08730347  1
  O  O231  1  0.11547685  0.62459993  0.57352093  1
  O  O232  1  0.45456769  0.12449982  0.07512933  1
  O  O233  1  0.43804241  0.13438975  0.58539878  1
  O  O234  1  0.43808062  0.63588637  0.08899808  1
  O  O235  1  0.44547183  0.63440516  0.58842909  1
  O  O236  1  0.77123566  0.15569378  0.07824527  1
  O  O237  1  0.77051548  0.14673513  0.58588807  1
  O  O238  1  0.76659746  0.62574567  0.08462326  1
  O  O239  1  0.76550832  0.61641874  0.58362512  1
  O  O240  1  0.05499460  0.12900530  0.41882217  1
  O  O241  1  0.04404583  0.11185251  0.92107150  1
  O  O242  1  0.06168292  0.62191850  0.41512227  1
  O  O243  1  0.06846788  0.59950940  0.92081340  1
  O  O244  1  0.40973429  0.10984128  0.42445027  1
  O  O245  1  0.39580921  0.12019469  0.91312068  1
  O  O246  1  0.38931760  0.62471250  0.43314434  1
  O  O247  1  0.39143777  0.61559218  0.91306222  1
  O  O248  1  0.72840216  0.11000924  0.41407957  1
  O  O249  1  0.72488293  0.12663439  0.91361911  1
  O  O250  1  0.73507967  0.62368202  0.41698292  1
  O  O251  1  0.71676586  0.61779884  0.91438533  1
  O  O252  1  0.22164425  0.37347263  0.41933252  1
  O  O253  1  0.22490751  0.35862128  0.91125206  1
  O  O254  1  0.21827779  0.88857576  0.42797407  1
  O  O255  1  0.22344656  0.85490940  0.91065273  1
  O  O256  1  0.57275000  0.34881626  0.42798522  1
  O  O257  1  0.54711151  0.36521469  0.91388885  1
  O  O258  1  0.56642516  0.86424650  0.41351778  1
  O  O259  1  0.55158091  0.86603491  0.91467027  1
  O  O260  1  0.89542951  0.37518020  0.41696431  1
  O  O261  1  0.90636987  0.35980746  0.92586924  1
  O  O262  1  0.88966463  0.86564849  0.41402278  1
  O  O263  1  0.90572569  0.86116383  0.91574551  1
  O  O264  1  0.05861011  0.37633993  0.41973843  1
  O  O265  1  0.06524646  0.38484116  0.91419211  1
  O  O266  1  0.05381413  0.87053608  0.41870212  1
  O  O267  1  0.06475782  0.89305396  0.91369320  1
  O  O268  1  0.38659508  0.37515500  0.42937444  1
  O  O269  1  0.38447874  0.39112845  0.91144190  1
  O  O270  1  0.40843136  0.88907419  0.42424523  1
  O  O271  1  0.38883991  0.87843482  0.91185001  1
  O  O272  1  0.73275663  0.37571394  0.41762836  1
  O  O273  1  0.71304071  0.37579420  0.92341540  1
  O  O274  1  0.72604802  0.89084287  0.41101401  1
  O  O275  1  0.71566127  0.87868827  0.91856024  1
  O  O276  1  0.21857207  0.11071745  0.42705416  1
  O  O277  1  0.23427613  0.14955853  0.92095732  1
  O  O278  1  0.22484684  0.62113644  0.41832979  1
  O  O279  1  0.22956569  0.62882885  0.91366066  1
  O  O280  1  0.56800618  0.13332711  0.41589209  1
  O  O281  1  0.56091283  0.12105774  0.91329359  1
  O  O282  1  0.57463749  0.64849695  0.42600152  1
  O  O283  1  0.55431802  0.63126080  0.91387661  1
  O  O284  1  0.88991215  0.13235275  0.41337998  1
  O  O285  1  0.88378204  0.15432245  0.91099105  1
  O  O286  1  0.89977610  0.62016866  0.41636040  1
  O  O287  1  0.87909165  0.64330531  0.92065857  1
  O  O288  1  0.15309728  0.00996686  0.08146843  1
  O  O289  1  0.18208068  0.00033541  0.58514846  1
  O  O290  1  0.17934488  0.51415815  0.07636776  1
  O  O291  1  0.19172667  0.49819900  0.58298001  1
  O  O292  1  0.51743092  -0.00668442  0.08464670  1
  O  O293  1  0.50060271  0.00475859  0.58368194  1
  O  O294  1  0.49213866  0.50445131  0.09001084  1
  O  O295  1  0.49612612  0.49709785  0.59059189  1
  O  O296  1  0.82164250  -0.00085266  0.07102200  1
  O  O297  1  0.83915230  0.02133061  0.57091173  1
  O  O298  1  0.84289157  0.49982109  0.08573922  1
  O  O299  1  0.83881985  0.49000200  0.58402369  1
  O  O300  1  0.00174563  0.25387805  0.08811581  1
  O  O301  1  0.02786712  0.25341747  0.58360687  1
  O  O302  1  -0.00077705  0.74403983  0.08189785  1
  O  O303  1  0.00699998  0.76028389  0.57509292  1
  O  O304  1  0.34649047  0.25791762  0.07655279  1
  O  O305  1  0.34320720  0.24876123  0.58635895  1
  O  O306  1  0.35003663  0.75333408  0.08545370  1
  O  O307  1  0.34664898  0.75034729  0.58700229  1
  O  O308  1  0.64416155  0.24450885  0.08261260  1
  O  O309  1  0.66311600  0.25299407  0.58638596  1
  O  O310  1  0.66300254  0.74114531  0.08751423  1
  O  O311  1  0.66321353  0.73042912  0.57219190  1
  O  O312  1  0.11500341  -0.00073343  0.41095475  1
  O  O313  1  0.18498532  -0.00819402  0.91692013  1
  O  O314  1  0.14160012  0.49875640  0.41765515  1
  O  O315  1  0.17603881  0.49405858  0.91099215  1
  O  O316  1  0.51337191  -0.00134961  0.41419487  1
  O  O317  1  0.47971441  -0.00281757  0.91246432  1
  O  O318  1  0.50844901  0.49929093  0.43637986  1
  O  O319  1  0.48919080  0.50026548  0.91306434  1
  O  O320  1  0.83037052  -0.00069763  0.41118029  1
  O  O321  1  0.83196444  0.01819502  0.92269846  1
  O  O322  1  0.81410324  0.49945969  0.41701643  1
  O  O323  1  0.82230135  0.50951049  0.92510864  1
  O  O324  1  0.30692557  0.25199196  0.42741684  1
  O  O325  1  0.34137235  0.25427716  0.90920884  1
  O  O326  1  0.30516583  0.74551919  0.42929815  1
  O  O327  1  0.32753375  0.74602976  0.91074012  1
  O  O328  1  0.67620841  0.24297272  0.41309480  1
  O  O329  1  0.63494065  0.24728756  0.91494248  1
  O  O330  1  0.67749351  0.75608319  0.41187297  1
  O  O331  1  0.64355513  0.74813906  0.91710827  1
  O  O332  1  0.97597879  0.25282534  0.41681724  1
  O  O333  1  1.00744442  0.25038591  0.91247985  1
  O  O334  1  0.97797110  0.74483349  0.41872988  1
  O  O335  1  1.01944641  0.75721401  0.91893655  1
  O  O336  1  0.21325573  0.09042070  0.19135120  1
  O  O337  1  0.21160283  0.08490562  0.69395483  1
  O  O338  1  0.21568257  0.58552424  0.19492610  1
  O  O339  1  0.21174502  0.58182355  0.69112479  1
  O  O340  1  0.54564082  0.08054597  0.19301798  1
  O  O341  1  0.54018685  0.08612043  0.69384547  1
  O  O342  1  0.54352746  0.58541992  0.19853270  1
  O  O343  1  0.54048608  0.58098707  0.69750204  1
  O  O344  1  0.87580099  0.08653500  0.19889896  1
  O  O345  1  0.87737526  0.09236740  0.69126360  1
  O  O346  1  0.86773920  0.58191054  0.19468573  1
  O  O347  1  0.87299493  0.57562529  0.69291763  1
  O  O348  1  0.04331764  0.33517961  0.19634582  1
  O  O349  1  0.04628248  0.33804526  0.69312561  1
  O  O350  1  0.04498835  0.82640571  0.19039969  1
  O  O351  1  0.04636449  0.83513126  0.69006848  1
  O  O352  1  0.37757596  0.33194571  0.19462175  1
  O  O353  1  0.37518172  0.33265604  0.69519655  1
  O  O354  1  0.38294989  0.83619743  0.19390935  1
  O  O355  1  0.37730320  0.83296523  0.69434029  1
  O  O356  1  0.71039476  0.33499784  0.20240407  1
  O  O357  1  0.70361227  0.33359998  0.69647777  1
  O  O358  1  0.71019145  0.82840375  0.19350326  1
  O  O359  1  0.70045144  0.82180032  0.69086019  1
  O  O360  1  0.21498012  0.41819650  0.20708085  1
  O  O361  1  0.21003840  0.41599073  0.69297348  1
  O  O362  1  0.21687452  0.90946866  0.19817140  1
  O  O363  1  0.21341931  0.91841135  0.69478488  1
  O  O364  1  0.54566709  0.41995583  0.19685512  1
  O  O365  1  0.54067192  0.41452821  0.69732351  1
  O  O366  1  0.54833183  0.91419277  0.19510406  1
  O  O367  1  0.53056105  0.91923891  0.69011802  1
  O  O368  1  0.87478929  0.41648916  0.19478087  1
  O  O369  1  0.87692432  0.41269091  0.69512782  1
  O  O370  1  0.87599005  0.91450941  0.20003652  1
  O  O371  1  0.88309667  0.92735208  0.69417732  1
  O  O372  1  0.04196189  0.16888939  0.19456851  1
  O  O373  1  0.04697419  0.16835999  0.69298131  1
  O  O374  1  0.03630004  0.66636772  0.19508220  1
  O  O375  1  0.04778745  0.66330779  0.69827422  1
  O  O376  1  0.38256120  0.16605341  0.20199538  1
  O  O377  1  0.37525868  0.16637000  0.69499087  1
  O  O378  1  0.37686135  0.67085174  0.19811911  1
  O  O379  1  0.37717285  0.66599769  0.69501885  1
  O  O380  1  0.70822514  0.16818095  0.19278629  1
  O  O381  1  0.70490945  0.17136168  0.69594870  1
  O  O382  1  0.70791442  0.66210494  0.19607266  1
  O  O383  1  0.70613349  0.66008497  0.69276072  1
  O  O384  1  0.11485076  0.09328041  0.30831806  1
  O  O385  1  0.12464373  0.08541195  0.79967385  1
  O  O386  1  0.12217049  0.57920699  0.30505978  1
  O  O387  1  0.12874355  0.57989342  0.80504860  1
  O  O388  1  0.46598071  0.08233745  0.30777239  1
  O  O389  1  0.45380316  0.08282820  0.80343645  1
  O  O390  1  0.45777927  0.58514051  0.30390981  1
  O  O391  1  0.45350588  0.58203926  0.80379604  1
  O  O392  1  0.78745574  0.08422444  0.30262574  1
  O  O393  1  0.78955106  0.09166358  0.80526212  1
  O  O394  1  0.78981304  0.58224985  0.30661743  1
  O  O395  1  0.78805366  0.58184244  0.80817669  1
  O  O396  1  0.29095392  0.33139894  0.31297434  1
  O  O397  1  0.29028408  0.33477404  0.80194896  1
  O  O398  1  0.29222804  0.83408809  0.30361504  1
  O  O399  1  0.29116090  0.83100336  0.80186144  1
  O  O400  1  0.62512411  0.33179643  0.30901143  1
  O  O401  1  0.61793376  0.33296170  0.80767378  1
  O  O402  1  0.62712387  0.83401686  0.30283515  1
  O  O403  1  0.61441125  0.82595326  0.80675191  1
  O  O404  1  0.95389218  0.33410808  0.30595345  1
  O  O405  1  0.95770844  0.33763785  0.80789152  1
  O  O406  1  0.95174272  0.82300124  0.30647609  1
  O  O407  1  0.97400102  0.83235956  0.80535660  1
  O  O408  1  0.11517094  0.41116858  0.30880487  1
  O  O409  1  0.12635135  0.41533918  0.80306066  1
  O  O410  1  0.11642679  0.90608087  0.30833087  1
  O  O411  1  0.12981686  0.91653158  0.80350846  1
  O  O412  1  0.45826670  0.41485512  0.30288156  1
  O  O413  1  0.45301727  0.41739669  0.80390084  1
  O  O414  1  0.46342935  0.91628774  0.30663296  1
  O  O415  1  0.45416777  0.91600163  0.80328718  1
  O  O416  1  0.78968876  0.41750476  0.30694007  1
  O  O417  1  0.78812258  0.41531843  0.80155282  1
  O  O418  1  0.79043236  0.91537360  0.30271436  1
  O  O419  1  0.79393761  0.93133125  0.80279726  1
  O  O420  1  0.28737438  0.16527382  0.30143578  1
  O  O421  1  0.29231004  0.16781121  0.80474899  1
  O  O422  1  0.29905313  0.66736061  0.31522863  1
  O  O423  1  0.29037730  0.66395015  0.80250526  1
  O  O424  1  0.62703416  0.16392993  0.30375267  1
  O  O425  1  0.61842820  0.16820808  0.80454954  1
  O  O426  1  0.62758866  0.66762718  0.30819582  1
  O  O427  1  0.61773791  0.66493258  0.80485360  1
  O  O428  1  0.95371962  0.17289898  0.30512619  1
  O  O429  1  0.95700907  0.16685890  0.80509976  1
  O  O430  1  0.95282588  0.66658941  0.30592077  1
  O  O431  1  0.95496586  0.66369135  0.79830260  1
  F  F432  1  0.02901567  0.00269884  0.19838291  1
  F  F433  1  0.04889568  0.00192695  0.70013959  1
  F  F434  1  0.03830278  0.49758158  0.19689731  1
  F  F435  1  0.04550079  0.49750784  0.70098012  1
  F  F436  1  0.38404545  -0.00024776  0.20303716  1
  F  F437  1  0.37656148  0.00172191  0.70108349  1
  F  F438  1  0.37731243  0.50198530  0.20441899  1
  F  F439  1  0.37812232  0.49864862  0.70013501  1
  F  F440  1  0.71349717  -0.00149101  0.20031859  1
  F  F441  1  0.71487215  0.01756243  0.69428514  1
  F  F442  1  0.71107263  0.50043582  0.20548731  1
  F  F443  1  0.70801350  0.49891970  0.70417558  1
  F  F444  1  0.21146859  0.25455090  0.20514711  1
  F  F445  1  0.21341006  0.25030460  0.69948434  1
  F  F446  1  0.21464887  0.74803616  0.20393647  1
  F  F447  1  0.21460619  0.74857421  0.69927276  1
  F  F448  1  0.54564933  0.25046285  0.20560268  1
  F  F449  1  0.54187967  0.25092046  0.70250339  1
  F  F450  1  0.54640663  0.74797839  0.20452473  1
  F  F451  1  0.53955369  0.74691741  0.70062214  1
  F  F452  1  0.87828173  0.25313191  0.20194923  1
  F  F453  1  0.87213819  0.25387107  0.70220206  1
  F  F454  1  0.87595900  0.74624611  0.20021499  1
  F  F455  1  0.88176152  0.73927513  0.69473973  1
  F  F456  1  0.30408854  0.00216964  0.30343841  1
  F  F457  1  0.29073061  -0.00022243  0.79739707  1
  F  F458  1  0.30438636  0.50091266  0.31248084  1
  F  F459  1  0.28821815  0.49977939  0.79482522  1
  F  F460  1  0.62548513  -0.00099230  0.29528833  1
  F  F461  1  0.61336973  0.01088289  0.79949845  1
  F  F462  1  0.62309781  0.50018653  0.30160471  1
  F  F463  1  0.61767188  0.49887541  0.80008509  1
  F  F464  1  0.94857414  0.01299786  0.30854407  1
  F  F465  1  0.95839958  0.00575626  0.79519310  1
  F  F466  1  0.94865883  0.49258858  0.30337573  1
  F  F467  1  0.95613011  0.49839248  0.79620466  1
  F  F468  1  0.11952814  0.25159805  0.29918389  1
  F  F469  1  0.12848887  0.25260374  0.79798341  1
  F  F470  1  0.11925663  0.75030099  0.30108076  1
  F  F471  1  0.12791826  0.74969270  0.79512214  1
  F  F472  1  0.45796926  0.25058056  0.30185086  1
  F  F473  1  0.45261039  0.24953374  0.79749342  1
  F  F474  1  0.45748427  0.75281504  0.30014810  1
  F  F475  1  0.45164783  0.74878459  0.79734155  1
  F  F476  1  0.78953437  0.24850695  0.29887845  1
  F  F477  1  0.78441266  0.25208938  0.79954687  1
  F  F478  1  0.78760038  0.74739337  0.29658877  1
  F  F479  1  0.78059215  0.73724432  0.79990076  1
