# generated using pymatgen
data_K24Na3Li5Mg64Fe17Si79(O5F)48
_symmetry_space_group_name_H-M   'P 1'
_cell_length_a   16.08840225
_cell_length_b   18.58895821
_cell_length_c   20.56031641
_cell_angle_alpha   90.02122202
_cell_angle_beta   100.02834304
_cell_angle_gamma   89.98911158
_symmetry_Int_Tables_number   1
_chemical_formula_structural   K24Na3Li5Mg64Fe17Si79(O5F)48
_chemical_formula_sum   'K24 Na3 Li5 Mg64 Fe17 Si79 O240 F48'
_cell_volume   6054.95960896
_cell_formula_units_Z   1
loop_
 _symmetry_equiv_pos_site_id
 _symmetry_equiv_pos_as_xyz
  1  'x, y, z'
loop_
 _atom_site_type_symbol
 _atom_site_label
 _atom_site_symmetry_multiplicity
 _atom_site_fract_x
 _atom_site_fract_y
 _atom_site_fract_z
 _atom_site_occupancy
  K  K0  1  0.00347424  0.00788093  -0.00546775  1
  K  K1  1  0.00393372  0.01214824  0.49752579  1
  K  K2  1  -0.01124493  0.49460211  -0.00248680  1
  K  K3  1  -0.00006795  0.50257906  0.50155787  1
  K  K4  1  0.33619231  0.00737914  -0.00069957  1
  K  K5  1  0.31983335  0.00606519  0.49284508  1
  K  K6  1  0.33939166  0.49870914  0.00977525  1
  K  K7  1  0.33602801  0.49453931  0.49714674  1
  K  K8  1  0.67480318  0.00971896  0.00070110  1
  K  K9  1  0.67014221  0.00321576  0.50026108  1
  K  K10  1  0.67076030  0.49380386  -0.00201163  1
  K  K11  1  0.66931162  0.48708425  0.49924770  1
  K  K12  1  0.16518610  0.25517673  -0.00163122  1
  K  K13  1  0.15248508  0.24068281  0.49902648  1
  K  K14  1  0.16379051  0.74699951  -0.00105082  1
  K  K15  1  0.17281717  0.74262178  0.49891437  1
  K  K16  1  0.49116517  0.25515561  0.00544000  1
  K  K17  1  0.50450511  0.25681083  0.49999658  1
  K  K18  1  0.49809612  0.74942179  0.00136573  1
  K  K19  1  0.49557781  0.73989767  0.49162238  1
  K  K20  1  0.83227368  0.24508573  -0.00425419  1
  K  K21  1  0.82982852  0.24434318  0.51020402  1
  K  K22  1  0.83390122  0.73706687  -0.00367917  1
  K  K23  1  0.83482283  0.74601069  0.49995581  1
  Na  Na24  1  0.83594891  0.00175896  0.25537782  1
  Na  Na25  1  0.00138410  0.92119740  0.75341304  1
  Na  Na26  1  0.83184871  0.16700765  0.74671016  1
  Li  Li27  1  0.00172691  0.25218510  0.25236974  1
  Li  Li28  1  0.49025374  0.49881511  0.24532833  1
  Li  Li29  1  0.33919079  0.57629588  0.25155736  1
  Li  Li30  1  0.00185308  0.58071064  0.25027632  1
  Li  Li31  1  0.67244596  0.08659025  0.74751739  1
  Mg  Mg32  1  0.16626349  0.49983300  0.74690761  1
  Mg  Mg33  1  0.33212670  0.74627916  0.25674152  1
  Mg  Mg34  1  0.66689305  0.25095169  0.24714550  1
  Mg  Mg35  1  0.66604530  0.75012208  0.25142269  1
  Mg  Mg36  1  0.33488259  0.25110941  0.24680655  1
  Mg  Mg37  1  0.50256997  0.00030720  0.75035411  1
  Mg  Mg38  1  0.16817559  0.50221808  0.24856249  1
  Mg  Mg39  1  0.50013664  0.49741796  0.74966047  1
  Mg  Mg40  1  -0.00052172  0.74611335  0.25143620  1
  Mg  Mg41  1  0.33334810  0.25113411  0.75123581  1
  Mg  Mg42  1  0.83129713  0.49825476  0.75050780  1
  Mg  Mg43  1  0.83595956  0.50082320  0.24983325  1
  Mg  Mg44  1  0.49891713  0.00193851  0.24906699  1
  Mg  Mg45  1  0.16364228  0.00074343  0.25362552  1
  Mg  Mg46  1  0.66658834  0.74950487  0.75235412  1
  Mg  Mg47  1  0.33380331  0.74831563  0.74944423  1
  Mg  Mg48  1  0.16759139  0.00075710  0.75218089  1
  Mg  Mg49  1  -0.00198712  0.25027549  0.74831508  1
  Mg  Mg50  1  0.83148237  0.00134664  0.74854540  1
  Mg  Mg51  1  0.00063684  0.75277188  0.75161933  1
  Mg  Mg52  1  0.66965863  0.24778508  0.74902294  1
  Mg  Mg53  1  0.49650465  0.66376155  0.24957009  1
  Mg  Mg54  1  0.50085944  0.33312324  0.75123103  1
  Mg  Mg55  1  0.49865046  0.83495611  0.25337707  1
  Mg  Mg56  1  0.33185511  0.91533964  0.25406871  1
  Mg  Mg57  1  -0.00361330  0.41509275  0.74831659  1
  Mg  Mg58  1  0.16713181  0.33432003  0.24875278  1
  Mg  Mg59  1  0.33533419  0.08483039  0.74971328  1
  Mg  Mg60  1  -0.00090166  0.08432484  0.75047726  1
  Mg  Mg61  1  0.00251192  0.41838328  0.24988497  1
  Mg  Mg62  1  0.50552655  0.16441470  0.74877157  1
  Mg  Mg63  1  0.66390180  0.41877969  0.24733264  1
  Mg  Mg64  1  0.00107619  0.08867993  0.25558720  1
  Mg  Mg65  1  0.50076837  0.66479079  0.75081519  1
  Mg  Mg66  1  0.16640571  0.83467560  0.75178879  1
  Mg  Mg67  1  0.16381643  0.16790011  0.25124461  1
  Mg  Mg68  1  0.33232784  0.91536994  0.75215534  1
  Mg  Mg69  1  0.66878349  0.41186767  0.75018929  1
  Mg  Mg70  1  0.83434374  0.83391638  0.75296561  1
  Mg  Mg71  1  0.66939806  0.58209181  0.75273812  1
  Mg  Mg72  1  0.33219359  0.58222950  0.74668517  1
  Mg  Mg73  1  0.49781133  0.33889095  0.24557958  1
  Mg  Mg74  1  0.66866258  0.08454778  0.24934952  1
  Mg  Mg75  1  0.33016302  0.08596319  0.24830141  1
  Mg  Mg76  1  0.83430667  0.66475944  0.75246283  1
  Mg  Mg77  1  0.16788975  0.66379569  0.25388160  1
  Mg  Mg78  1  0.16841632  0.83233873  0.25666657  1
  Mg  Mg79  1  0.49991854  0.83419555  0.75010303  1
  Mg  Mg80  1  0.83428274  0.83377781  0.25220717  1
  Mg  Mg81  1  0.16518293  0.16621295  0.75035510  1
  Mg  Mg82  1  0.00087250  0.91646243  0.25547245  1
  Mg  Mg83  1  0.16601531  0.33484441  0.74807622  1
  Mg  Mg84  1  0.66170704  0.58317627  0.24899740  1
  Mg  Mg85  1  0.83283007  0.33464601  0.74821738  1
  Mg  Mg86  1  0.83651568  0.33403031  0.24837671  1
  Mg  Mg87  1  0.66876413  0.91801014  0.25230155  1
  Mg  Mg88  1  0.33396032  0.41482644  0.74839036  1
  Mg  Mg89  1  0.16642513  0.66515389  0.74566096  1
  Mg  Mg90  1  -0.00121869  0.58568201  0.74704750  1
  Mg  Mg91  1  0.83454170  0.66431932  0.24956476  1
  Mg  Mg92  1  0.49715975  0.16792067  0.24566879  1
  Mg  Mg93  1  0.33646566  0.41952869  0.24694488  1
  Mg  Mg94  1  0.83722688  0.16879076  0.25347505  1
  Mg  Mg95  1  0.66716348  0.91896900  0.75096535  1
  Fe  Fe96  1  0.69168139  0.32860553  0.60539950  1
  Fe  Fe97  1  0.79933326  0.41080246  0.89383655  1
  Fe  Fe98  1  0.31124526  0.83202310  0.39461357  1
  Fe  Fe99  1  0.19065669  0.57877346  0.60608068  1
  Fe  Fe100  1  0.47315824  0.41879862  0.88888062  1
  Fe  Fe101  1  0.35300142  0.33482707  0.10557955  1
  Fe  Fe102  1  0.01914065  0.16319931  0.61004299  1
  Fe  Fe103  1  0.47640007  0.57634685  0.38697307  1
  Fe  Fe104  1  0.53009110  0.42344155  0.10725221  1
  Fe  Fe105  1  0.97189961  0.33047227  0.89043214  1
  Fe  Fe106  1  0.86255269  0.42215791  0.60573530  1
  Fe  Fe107  1  0.80674352  0.08386090  0.39158615  1
  Fe  Fe108  1  0.80751017  0.58325235  0.89244419  1
  Fe  Fe109  1  0.35304595  0.15997172  0.10609712  1
  Fe  Fe110  1  0.13684912  0.08431500  0.39182601  1
  Fe  Fe111  1  0.14832195  0.91539842  0.89393881  1
  Fe  Fe112  1  0.30140970  0.33918802  0.88818307  1
  Si  Si113  1  0.35527701  0.67385907  0.11553154  1
  Si  Si114  1  0.69691795  0.83582127  0.11596905  1
  Si  Si115  1  0.68480437  0.15974761  0.61032434  1
  Si  Si116  1  0.63747015  0.16624558  0.38368653  1
  Si  Si117  1  0.52215439  0.91547147  0.61441014  1
  Si  Si118  1  0.68669406  0.83181546  0.61577791  1
  Si  Si119  1  0.98146011  0.16137191  0.88819680  1
  Si  Si120  1  0.86311970  0.91918209  0.11762385  1
  Si  Si121  1  0.31380320  0.16871286  0.88585153  1
  Si  Si122  1  0.63595345  0.67212664  0.88817610  1
  Si  Si123  1  0.47422283  0.91585711  0.88572627  1
  Si  Si124  1  0.30742412  0.16748223  0.38693464  1
  Si  Si125  1  0.52464241  0.41842844  0.61173620  1
  Si  Si126  1  0.13540808  0.91096338  0.39311288  1
  Si  Si127  1  0.97264728  0.83351861  0.88934887  1
  Si  Si128  1  0.19364272  0.40922113  0.60934720  1
  Si  Si129  1  0.80755345  0.91470194  0.88761399  1
  Si  Si130  1  0.18495725  0.07673989  0.11301715  1
  Si  Si131  1  0.18859274  0.58986398  0.11602064  1
  Si  Si132  1  0.69906431  0.33218199  0.11091768  1
  Si  Si133  1  0.69701240  0.16578927  0.11383412  1
  Si  Si134  1  0.31365236  0.82665018  0.88877155  1
  Si  Si135  1  0.47867342  0.41015776  0.38686316  1
  Si  Si136  1  0.35631451  0.83824302  0.11618090  1
  Si  Si137  1  0.64078093  0.83700748  0.88591124  1
  Si  Si138  1  0.85536181  0.59331229  0.61078541  1
  Si  Si139  1  0.02349853  0.67308154  0.61007468  1
  Si  Si140  1  0.52797032  0.58370206  0.61648798  1
  Si  Si141  1  0.69505072  0.67095249  0.11363464  1
  Si  Si142  1  0.63046971  0.32364096  0.88818245  1
  Si  Si143  1  0.02717537  0.16960633  0.11554780  1
  Si  Si144  1  0.36375773  0.66623016  0.61248949  1
  Si  Si145  1  0.68853143  0.66881154  0.61611290  1
  Si  Si146  1  0.19351373  0.91636881  0.61515500  1
  Si  Si147  1  0.02988451  0.33599610  0.11579006  1
  Si  Si148  1  0.85292784  0.07359970  0.61050941  1
  Si  Si149  1  0.47778824  0.58552178  0.88482746  1
  Si  Si150  1  0.52484958  0.59638780  0.10979168  1
  Si  Si151  1  0.98004250  0.66946575  0.88805988  1
  Si  Si152  1  0.15055132  0.08404214  0.88956937  1
  Si  Si153  1  0.85729024  0.58156169  0.11550445  1
  Si  Si154  1  0.64412689  0.32975959  0.38157745  1
  Si  Si155  1  0.14458889  0.58642356  0.88324928  1
  Si  Si156  1  0.14487244  0.41759503  0.38490139  1
  Si  Si157  1  0.97066896  0.82572918  0.38745357  1
  Si  Si158  1  0.18581633  0.91369221  0.11840163  1
  Si  Si159  1  0.14114329  0.58191676  0.38497801  1
  Si  Si160  1  0.31245945  0.66302401  0.88351791  1
  Si  Si161  1  0.64263496  0.67005520  0.38754211  1
  Si  Si162  1  0.36213841  0.33087039  0.61286089  1
  Si  Si163  1  0.53133085  0.08044133  0.11096206  1
  Si  Si164  1  0.30966685  0.33303139  0.38411421  1
  Si  Si165  1  0.85163134  0.91115334  0.61537241  1
  Si  Si166  1  0.80610423  0.58460796  0.38425997  1
  Si  Si167  1  0.86584019  0.08705734  0.11677261  1
  Si  Si168  1  0.80998486  0.91083875  0.38918503  1
  Si  Si169  1  0.02253181  0.83077469  0.11753182  1
  Si  Si170  1  0.52735709  0.91386903  0.11579508  1
  Si  Si171  1  0.02498287  0.83648818  0.61541062  1
  Si  Si172  1  0.80626485  0.41871339  0.38262897  1
  Si  Si173  1  0.36313726  0.16566955  0.61401629  1
  Si  Si174  1  0.02237866  0.66721192  0.11686737  1
  Si  Si175  1  0.47843738  0.92370181  0.38908864  1
  Si  Si176  1  0.64516586  0.16040964  0.88402332  1
  Si  Si177  1  0.64203428  0.83651546  0.38722611  1
  Si  Si178  1  0.02882980  0.33406978  0.61008955  1
  Si  Si179  1  0.47653512  0.08110288  0.88495393  1
  Si  Si180  1  0.30730390  0.66167423  0.39179552  1
  Si  Si181  1  0.47418959  0.08831821  0.38320504  1
  Si  Si182  1  0.35767276  0.83172760  0.61513138  1
  Si  Si183  1  0.81108440  0.07820597  0.88424397  1
  Si  Si184  1  0.97530503  0.34162350  0.38419923  1
  Si  Si185  1  0.19753031  0.08247734  0.61413018  1
  Si  Si186  1  0.97445172  0.66164532  0.38457185  1
  Si  Si187  1  0.18873728  0.42479345  0.11152731  1
  Si  Si188  1  0.52313320  0.07882218  0.61358684  1
  Si  Si189  1  0.86343590  0.41562023  0.11475215  1
  Si  Si190  1  0.13246436  0.42236501  0.88484079  1
  Si  Si191  1  0.96922464  0.17624435  0.39091730  1
  O  O192  1  0.26289959  0.09499363  0.07663650  1
  O  O193  1  0.27928250  0.11766022  0.58569863  1
  O  O194  1  0.26794963  0.62821881  0.08618596  1
  O  O195  1  0.28657537  0.61783866  0.57632929  1
  O  O196  1  0.61387478  0.11641467  0.08424318  1
  O  O197  1  0.60315645  0.10543743  0.58124183  1
  O  O198  1  0.60056753  0.64320297  0.08060584  1
  O  O199  1  0.61085959  0.61367616  0.58741179  1
  O  O200  1  0.93867572  0.12711971  0.08240969  1
  O  O201  1  0.92646687  0.10420247  0.57359994  1
  O  O202  1  0.93648000  0.62027926  0.08700645  1
  O  O203  1  0.93136587  0.63602446  0.58156408  1
  O  O204  1  0.10385161  0.37562801  0.08301580  1
  O  O205  1  0.12058395  0.34912126  0.58489593  1
  O  O206  1  0.10649101  0.85953532  0.08916086  1
  O  O207  1  0.10185374  0.87847978  0.58629449  1
  O  O208  1  0.44173535  0.36716738  0.06782656  1
  O  O209  1  0.43837115  0.37071906  0.58317288  1
  O  O210  1  0.43589541  0.87491954  0.08561981  1
  O  O211  1  0.43744919  0.86772210  0.58634243  1
  O  O212  1  0.78497819  0.36271831  0.08550942  1
  O  O213  1  0.77612345  0.36403846  0.56368743  1
  O  O214  1  0.76928941  0.88341798  0.08715164  1
  O  O215  1  0.76916588  0.85894889  0.58489113  1
  O  O216  1  0.26349931  0.39879029  0.07505527  1
  O  O217  1  0.27734013  0.37614276  0.58240720  1
  O  O218  1  0.27004277  0.88550942  0.08922717  1
  O  O219  1  0.26937025  0.87381575  0.58556517  1
  O  O220  1  0.62261588  0.38050857  0.07464055  1
  O  O221  1  0.59655112  0.38915248  0.57344558  1
  O  O222  1  0.60211526  0.86858982  0.08685279  1
  O  O223  1  0.60394370  0.88215172  0.58594451  1
  O  O224  1  0.94439576  0.38271801  0.08646220  1
  O  O225  1  0.96554326  0.39796246  0.57864842  1
  O  O226  1  0.93868801  0.87908076  0.08566711  1
  O  O227  1  0.93534504  0.87885652  0.58844561  1
  O  O228  1  0.10214101  0.12804383  0.08442937  1
  O  O229  1  0.11482531  0.12455931  0.57894824  1
  O  O230  1  0.10318509  0.63778079  0.08494027  1
  O  O231  1  0.09470428  0.63595378  0.57455570  1
  O  O232  1  0.44773123  0.11915719  0.07313878  1
  O  O233  1  0.44061214  0.12876012  0.58273299  1
  O  O234  1  0.43527900  0.64238459  0.08367277  1
  O  O235  1  0.45163180  0.64006362  0.58785345  1
  O  O236  1  0.77506305  0.12553324  0.08507892  1
  O  O237  1  0.76511657  0.11892803  0.58481158  1
  O  O238  1  0.76942466  0.62585379  0.08470355  1
  O  O239  1  0.77207480  0.64659197  0.58597450  1
  O  O240  1  0.05046076  0.12954967  0.42649217  1
  O  O241  1  0.06448859  0.10932260  0.91703676  1
  O  O242  1  0.05734113  0.61244203  0.41334280  1
  O  O243  1  0.06777369  0.62343325  0.91496572  1
  O  O244  1  0.39222372  0.11695714  0.41315657  1
  O  O245  1  0.39511486  0.11352053  0.91289235  1
  O  O246  1  0.37967538  0.60407084  0.42182502  1
  O  O247  1  0.39018093  0.60865690  0.91235669  1
  O  O248  1  0.70502922  0.10919378  0.42070297  1
  O  O249  1  0.73113467  0.11369988  0.91554855  1
  O  O250  1  0.73370985  0.62860054  0.41512949  1
  O  O251  1  0.71312744  0.62488694  0.92521560  1
  O  O252  1  0.23020983  0.37012417  0.41433533  1
  O  O253  1  0.20063937  0.36278845  0.91729806  1
  O  O254  1  0.21201155  0.85813655  0.42542937  1
  O  O255  1  0.23860452  0.85021034  0.92669060  1
  O  O256  1  0.56134704  0.35611239  0.41187251  1
  O  O257  1  0.54215135  0.33834175  0.91414952  1
  O  O258  1  0.56360566  0.87417318  0.41638651  1
  O  O259  1  0.56130411  0.87206600  0.91561934  1
  O  O260  1  0.89666012  0.38044435  0.41384956  1
  O  O261  1  0.88289860  0.34950011  0.93305214  1
  O  O262  1  0.88560763  0.85099034  0.41554846  1
  O  O263  1  0.88512544  0.85972149  0.91705193  1
  O  O264  1  0.06294733  0.38636194  0.41423122  1
  O  O265  1  0.04642981  0.40910275  0.91397835  1
  O  O266  1  0.04893937  0.87803261  0.41761471  1
  O  O267  1  0.04634799  0.88789221  0.92249439  1
  O  O268  1  0.39656902  0.37571577  0.41648990  1
  O  O269  1  0.37386974  0.41243491  0.92063930  1
  O  O270  1  0.40261727  0.89655167  0.42494407  1
  O  O271  1  0.39875448  0.87648565  0.91661044  1
  O  O272  1  0.72746151  0.37983142  0.41034407  1
  O  O273  1  0.70097104  0.37941207  0.92384935  1
  O  O274  1  0.72647662  0.88204010  0.41946831  1
  O  O275  1  0.72399034  0.88489174  0.91666200  1
  O  O276  1  0.23628717  0.13595759  0.42554147  1
  O  O277  1  0.23004783  0.14017480  0.91468828  1
  O  O278  1  0.21876395  0.63438228  0.41770250  1
  O  O279  1  0.22821998  0.63687456  0.91205009  1
  O  O280  1  0.54805102  0.14692608  0.41001044  1
  O  O281  1  0.56633385  0.12124751  0.91466739  1
  O  O282  1  0.57002249  0.63738708  0.42321666  1
  O  O283  1  0.54464447  0.65218273  0.91006101  1
  O  O284  1  0.88773354  0.15356391  0.42326679  1
  O  O285  1  0.89863006  0.12191763  0.91431218  1
  O  O286  1  0.89570876  0.62532169  0.41500619  1
  O  O287  1  0.90496313  0.64040450  0.92345861  1
  O  O288  1  0.15584382  -0.00694413  0.08931394  1
  O  O289  1  0.19273617  -0.00183617  0.58625489  1
  O  O290  1  0.16804177  0.50911705  0.08545917  1
  O  O291  1  0.17044678  0.48521060  0.57168629  1
  O  O292  1  0.52867101  -0.00515468  0.08487615  1
  O  O293  1  0.50273454  -0.00382308  0.58412768  1
  O  O294  1  0.51614122  0.51977072  0.07379975  1
  O  O295  1  0.50227054  0.50336667  0.58764506  1
  O  O296  1  0.85797236  0.00251129  0.08978205  1
  O  O297  1  0.83011742  -0.00999203  0.58177038  1
  O  O298  1  0.84716240  0.49887557  0.08659557  1
  O  O299  1  0.83705512  0.51817485  0.57291091  1
  O  O300  1  0.01887709  0.25275929  0.08692956  1
  O  O301  1  -0.00285738  0.25680698  0.57750893  1
  O  O302  1  0.00252351  0.74951481  0.08674488  1
  O  O303  1  0.01353643  0.75664153  0.58100305  1
  O  O304  1  0.32093110  0.24617310  0.06738420  1
  O  O305  1  0.35224982  0.24774574  0.58344505  1
  O  O306  1  0.34020978  0.75699946  0.08419338  1
  O  O307  1  0.34809622  0.75009522  0.58597661  1
  O  O308  1  0.68816465  0.24735135  0.08329665  1
  O  O309  1  0.66576403  0.23454142  0.56989621  1
  O  O310  1  0.70133287  0.75433313  0.08566582  1
  O  O311  1  0.66177976  0.75029454  0.58714421  1
  O  O312  1  0.15064097  -0.00988389  0.42617017  1
  O  O313  1  0.17933382  0.00825843  0.92595706  1
  O  O314  1  0.16043137  0.49983242  0.41471293  1
  O  O315  1  0.16536026  0.50528803  0.91098257  1
  O  O316  1  0.50218965  0.00778398  0.41352613  1
  O  O317  1  0.48666847  -0.00202523  0.91462154  1
  O  O318  1  0.50311305  0.48483531  0.42540694  1
  O  O319  1  0.51738655  0.51191057  0.91648332  1
  O  O320  1  0.83857515  -0.01197168  0.42049807  1
  O  O321  1  0.82496424  -0.00402832  0.91874610  1
  O  O322  1  0.81163167  0.50169706  0.41215553  1
  O  O323  1  0.82700579  0.49859925  0.93678750  1
  O  O324  1  0.32624287  0.25093552  0.41372620  1
  O  O325  1  0.34151695  0.24609137  0.91626896  1
  O  O326  1  0.33357797  0.73888854  0.42835573  1
  O  O327  1  0.34110591  0.74337671  0.91313348  1
  O  O328  1  0.66526722  0.24820868  0.41017995  1
  O  O329  1  0.66044098  0.24074647  0.91554660  1
  O  O330  1  0.65799477  0.75428384  0.41542486  1
  O  O331  1  0.65451976  0.75595240  0.91595647  1
  O  O332  1  0.99032116  0.26114010  0.41480408  1
  O  O333  1  1.00153621  0.23707496  0.92622648  1
  O  O334  1  0.99058488  0.74333060  0.41645073  1
  O  O335  1  0.99978088  0.75197952  0.91803731  1
  O  O336  1  0.20757267  0.08097079  0.19371843  1
  O  O337  1  0.21529792  0.08236502  0.69497805  1
  O  O338  1  0.20545257  0.58786554  0.19528173  1
  O  O339  1  0.21119292  0.58408050  0.69767653  1
  O  O340  1  0.54366530  0.08215928  0.19184364  1
  O  O341  1  0.53670176  0.07908839  0.69314029  1
  O  O342  1  0.54826526  0.59629039  0.18950030  1
  O  O343  1  0.54545877  0.58478341  0.69702141  1
  O  O344  1  0.88498251  0.09151105  0.19557755  1
  O  O345  1  0.87928165  0.07210732  0.68988323  1
  O  O346  1  0.87211977  0.58365706  0.19485036  1
  O  O347  1  0.87661364  0.59008596  0.69151959  1
  O  O348  1  0.04743666  0.33776208  0.19533502  1
  O  O349  1  0.04674592  0.33490410  0.69156989  1
  O  O350  1  0.04149448  0.83187196  0.19786588  1
  O  O351  1  0.04720132  0.82859628  0.69442334  1
  O  O352  1  0.37649757  0.33348114  0.19829193  1
  O  O353  1  0.37883833  0.32975197  0.69268919  1
  O  O354  1  0.37823499  0.83712559  0.19613975  1
  O  O355  1  0.37662850  0.83328815  0.69579981  1
  O  O356  1  0.71278946  0.33346631  0.19185811  1
  O  O357  1  0.70831165  0.33158817  0.69720250  1
  O  O358  1  0.71131356  0.83434102  0.19611987  1
  O  O359  1  0.70560240  0.83244776  0.69618434  1
  O  O360  1  0.20759566  0.41917297  0.19221862  1
  O  O361  1  0.21068945  0.41747926  0.69001260  1
  O  O362  1  0.20623416  0.91485899  0.19866984  1
  O  O363  1  0.21407653  0.91463718  0.69528337  1
  O  O364  1  0.54734664  0.41823419  0.19831277  1
  O  O365  1  0.54431880  0.41607476  0.69236120  1
  O  O366  1  0.54278117  0.91480340  0.19605042  1
  O  O367  1  0.54141547  0.91461652  0.69484837  1
  O  O368  1  0.87849615  0.41803299  0.19487238  1
  O  O369  1  0.87696113  0.42176980  0.69735539  1
  O  O370  1  0.88181016  0.91009765  0.19654940  1
  O  O371  1  0.86444692  0.91257733  0.69463594  1
  O  O372  1  0.04442268  0.16620755  0.19485947  1
  O  O373  1  0.04521481  0.16565720  0.70132871  1
  O  O374  1  0.04333917  0.66893082  0.19618486  1
  O  O375  1  0.04241261  0.66998766  0.69125399  1
  O  O376  1  0.37622014  0.16475789  0.19876034  1
  O  O377  1  0.38026868  0.16511542  0.69434134  1
  O  O378  1  0.37635280  0.67646490  0.19463785  1
  O  O379  1  0.37852871  0.66709828  0.69365482  1
  O  O380  1  0.71060154  0.16771164  0.19361550  1
  O  O381  1  0.69614931  0.16639857  0.68905126  1
  O  O382  1  0.71096398  0.66964820  0.19400918  1
  O  O383  1  0.70684179  0.66942803  0.69633528  1
  O  O384  1  0.12291574  0.08426943  0.30033530  1
  O  O385  1  0.13145928  0.08227726  0.80874907  1
  O  O386  1  0.12589817  0.58224127  0.30559923  1
  O  O387  1  0.12303875  0.58754431  0.80282531  1
  O  O388  1  0.45601881  0.08329385  0.30290572  1
  O  O389  1  0.45878569  0.08121006  0.80456675  1
  O  O390  1  0.45889373  0.58360605  0.29818310  1
  O  O391  1  0.45633427  0.58493672  0.80345977  1
  O  O392  1  0.78313865  0.09240637  0.30155416  1
  O  O393  1  0.78682155  0.07342553  0.80613539  1
  O  O394  1  0.78937234  0.58558925  0.30405318  1
  O  O395  1  0.78879790  0.58465965  0.79974318  1
  O  O396  1  0.28938107  0.33365627  0.30413252  1
  O  O397  1  0.28697019  0.33427475  0.79564326  1
  O  O398  1  0.29064542  0.83330931  0.30248100  1
  O  O399  1  0.29491862  0.83052127  0.80769439  1
  O  O400  1  0.62581583  0.33223080  0.30150339  1
  O  O401  1  0.61953556  0.32820748  0.80675194  1
  O  O402  1  0.62346013  0.83569894  0.30648817  1
  O  O403  1  0.62231512  0.83469321  0.80547994  1
  O  O404  1  0.95556461  0.34139506  0.30463856  1
  O  O405  1  0.95622171  0.33220370  0.79853027  1
  O  O406  1  0.95518502  0.82888177  0.30685786  1
  O  O407  1  0.95200196  0.82790500  0.80943895  1
  O  O408  1  0.12599001  0.41730926  0.30491225  1
  O  O409  1  0.12121847  0.42116197  0.80297824  1
  O  O410  1  0.12220523  0.91281437  0.31122119  1
  O  O411  1  0.13766135  0.91617736  0.80392667  1
  O  O412  1  0.45570857  0.41281320  0.30740751  1
  O  O413  1  0.45454579  0.41703991  0.79605622  1
  O  O414  1  0.45850293  0.91916191  0.30791985  1
  O  O415  1  0.45605045  0.91451099  0.80533373  1
  O  O416  1  0.79031453  0.41794519  0.30232787  1
  O  O417  1  0.78656012  0.41877815  0.80177842  1
  O  O418  1  0.78626274  0.90698913  0.30912578  1
  O  O419  1  0.78824654  0.91354281  0.80745272  1
  O  O420  1  0.28829815  0.16627148  0.30617836  1
  O  O421  1  0.29382608  0.16511917  0.80464516  1
  O  O422  1  0.28678973  0.66962577  0.31150146  1
  O  O423  1  0.29280188  0.66631610  0.80312029  1
  O  O424  1  0.62013729  0.16611676  0.30249321  1
  O  O425  1  0.62321821  0.16300642  0.80459740  1
  O  O426  1  0.62535138  0.66937853  0.30652097  1
  O  O427  1  0.62269429  0.66943934  0.80696296  1
  O  O428  1  0.95501262  0.16817705  0.31059442  1
  O  O429  1  0.96647919  0.16586447  0.80871117  1
  O  O430  1  0.95344036  0.66725390  0.30524548  1
  O  O431  1  0.95990700  0.66835008  0.80672955  1
  F  F432  1  0.04439146  -0.00506747  0.20234203  1
  F  F433  1  0.05347916  0.00921259  0.69944697  1
  F  F434  1  0.04699024  0.49858932  0.20112229  1
  F  F435  1  0.04535392  0.50406220  0.70014073  1
  F  F436  1  0.37749545  -0.00247084  0.20297025  1
  F  F437  1  0.38007887  -0.00277537  0.70265904  1
  F  F438  1  0.37354447  0.49795563  0.19547715  1
  F  F439  1  0.37866715  0.50232592  0.69766115  1
  F  F440  1  0.69999080  -0.00263022  0.19768861  1
  F  F441  1  0.70992085  -0.00642985  0.70000101  1
  F  F442  1  0.71448248  0.50325464  0.20018035  1
  F  F443  1  0.70751934  0.50194613  0.69896177  1
  F  F444  1  0.21145120  0.24936255  0.20156472  1
  F  F445  1  0.21362447  0.24533906  0.69971027  1
  F  F446  1  0.20970426  0.74937573  0.20462968  1
  F  F447  1  0.21424203  0.75173962  0.70172072  1
  F  F448  1  0.54651569  0.24917745  0.19884506  1
  F  F449  1  0.54319210  0.24896378  0.70103591  1
  F  F450  1  0.54614150  0.75443235  0.20377523  1
  F  F451  1  0.54496177  0.75069744  0.70292788  1
  F  F452  1  0.87603564  0.25100465  0.20203466  1
  F  F453  1  0.88130900  0.25724181  0.69474991  1
  F  F454  1  0.87727962  0.74953533  0.20165687  1
  F  F455  1  0.87750647  0.75027159  0.70405496  1
  F  F456  1  0.28753778  0.00085457  0.29844518  1
  F  F457  1  0.29370389  0.00021944  0.79831434  1
  F  F458  1  0.28528344  0.49494511  0.29809607  1
  F  F459  1  0.28820322  0.50003322  0.79452303  1
  F  F460  1  0.61880331  -0.00009604  0.29760281  1
  F  F461  1  0.61579848  -0.00941570  0.80291280  1
  F  F462  1  0.63446952  0.50240855  0.30151516  1
  F  F463  1  0.62071556  0.49937623  0.79637303  1
  F  F464  1  0.96918590  0.00036941  0.30452353  1
  F  F465  1  0.94829498  0.00872144  0.80217901  1
  F  F466  1  0.95326389  0.49861600  0.29956638  1
  F  F467  1  0.95538414  0.50644948  0.79570113  1
  F  F468  1  0.12710043  0.25262248  0.29955106  1
  F  F469  1  0.12466756  0.25233793  0.79663375  1
  F  F470  1  0.11891252  0.74868475  0.30074438  1
  F  F471  1  0.12380507  0.74810440  0.79718489  1
  F  F472  1  0.45762189  0.25008910  0.29697598  1
  F  F473  1  0.45517900  0.24550394  0.79575523  1
  F  F474  1  0.45664576  0.75211951  0.30017025  1
  F  F475  1  0.45543841  0.75074435  0.79719600  1
  F  F476  1  0.78668162  0.25454547  0.29716747  1
  F  F477  1  0.78482992  0.25627790  0.80124802  1
  F  F478  1  0.78771232  0.74838792  0.29770022  1
  F  F479  1  0.78635318  0.75041901  0.79950507  1
