# generated using pymatgen
data_K24Na3Li5Mg64Fe17Si79(O5F)48
_symmetry_space_group_name_H-M   'P 1'
_cell_length_a   16.07442541
_cell_length_b   18.57200058
_cell_length_c   20.54107002
_cell_angle_alpha   90.00343429
_cell_angle_beta   100.00729475
_cell_angle_gamma   89.99542639
_symmetry_Int_Tables_number   1
_chemical_formula_structural   K24Na3Li5Mg64Fe17Si79(O5F)48
_chemical_formula_sum   'K24 Na3 Li5 Mg64 Fe17 Si79 O240 F48'
_cell_volume   6038.91494755
_cell_formula_units_Z   1
loop_
 _symmetry_equiv_pos_site_id
 _symmetry_equiv_pos_as_xyz
  1  'x, y, z'
loop_
 _atom_site_type_symbol
 _atom_site_label
 _atom_site_symmetry_multiplicity
 _atom_site_fract_x
 _atom_site_fract_y
 _atom_site_fract_z
 _atom_site_occupancy
  K  K0  1  0.00262543  0.00410074  0.02222088  1
  K  K1  1  0.00509941  -0.00236067  0.49093312  1
  K  K2  1  -0.00474342  0.49332358  0.00787707  1
  K  K3  1  -0.00317045  0.49962902  0.49047876  1
  K  K4  1  0.33075240  -0.00675501  0.00974141  1
  K  K5  1  0.32607972  0.00634253  0.48980491  1
  K  K6  1  0.33372311  0.49985630  0.00673788  1
  K  K7  1  0.33105183  0.50809268  0.49676193  1
  K  K8  1  0.67819304  0.00143548  0.01781261  1
  K  K9  1  0.66611241  -0.00025850  0.49072000  1
  K  K10  1  0.67014131  0.49657556  0.01530548  1
  K  K11  1  0.66798264  0.50138046  0.49352718  1
  K  K12  1  0.15666359  0.25028800  0.00548197  1
  K  K13  1  0.15707879  0.24813539  0.49409844  1
  K  K14  1  0.16584215  0.75301506  0.00785549  1
  K  K15  1  0.15976832  0.75104463  0.49200928  1
  K  K16  1  0.51096024  0.25300047  0.00925259  1
  K  K17  1  0.50447133  0.24909386  0.49464366  1
  K  K18  1  0.50788278  0.75075593  0.01112159  1
  K  K19  1  0.50538595  0.74581550  0.49396621  1
  K  K20  1  0.85219584  0.24960637  0.01474460  1
  K  K21  1  0.83073442  0.24493505  0.49410533  1
  K  K22  1  0.83829265  0.75216455  0.00871910  1
  K  K23  1  0.82976111  0.75288367  0.49377495  1
  Na  Na24  1  0.83758426  0.49989049  0.24750844  1
  Na  Na25  1  0.00010265  0.92391480  0.25168832  1
  Na  Na26  1  -0.00127737  0.57755231  0.25064006  1
  Li  Li27  1  0.84386392  0.00101094  0.25045238  1
  Li  Li28  1  0.15949382  0.00579673  0.25197321  1
  Li  Li29  1  0.66764840  0.41707687  0.75310205  1
  Li  Li30  1  0.16676416  0.16090889  0.25096652  1
  Li  Li31  1  0.50197727  0.33367425  0.24493898  1
  Mg  Mg32  1  -0.00104327  0.25114788  0.75267446  1
  Mg  Mg33  1  0.33509401  0.25018274  0.25045906  1
  Mg  Mg34  1  0.16851686  0.00019821  0.74700973  1
  Mg  Mg35  1  0.33247105  0.25149713  0.75282074  1
  Mg  Mg36  1  -0.00080557  0.75044798  0.25156630  1
  Mg  Mg37  1  0.83334619  -0.00235358  0.74828724  1
  Mg  Mg38  1  0.00150406  0.75054557  0.74796062  1
  Mg  Mg39  1  0.82937564  0.49813901  0.75309598  1
  Mg  Mg40  1  0.16921706  0.49935627  0.25255368  1
  Mg  Mg41  1  0.66627496  0.75108293  0.74803117  1
  Mg  Mg42  1  0.50385455  0.49720548  0.24872483  1
  Mg  Mg43  1  0.16540889  0.49863661  0.75125149  1
  Mg  Mg44  1  0.50209873  0.49933264  0.75000509  1
  Mg  Mg45  1  0.00513769  0.24783123  0.24858144  1
  Mg  Mg46  1  0.66590411  0.25054208  0.24352822  1
  Mg  Mg47  1  0.66726043  0.25260335  0.75200753  1
  Mg  Mg48  1  0.33245580  0.75020010  0.25237135  1
  Mg  Mg49  1  0.33539400  0.75081182  0.74502141  1
  Mg  Mg50  1  0.66403342  0.75126294  0.24642991  1
  Mg  Mg51  1  0.49883152  0.00061614  0.24906153  1
  Mg  Mg52  1  0.50008838  -0.00020041  0.74730104  1
  Mg  Mg53  1  0.16210151  0.33403426  0.75258020  1
  Mg  Mg54  1  0.32962060  0.08477157  0.25297129  1
  Mg  Mg55  1  0.83334522  0.83784503  0.24894418  1
  Mg  Mg56  1  0.49945993  0.83608770  0.24895586  1
  Mg  Mg57  1  0.66566944  0.58226452  0.24555728  1
  Mg  Mg58  1  0.66604975  0.91730725  0.24732952  1
  Mg  Mg59  1  0.16776748  0.66618305  0.25316114  1
  Mg  Mg60  1  0.00128623  0.91444725  0.74669460  1
  Mg  Mg61  1  0.83590650  0.16309609  0.24688436  1
  Mg  Mg62  1  0.16704116  0.83531757  0.74543613  1
  Mg  Mg63  1  0.33207534  0.41631443  0.75140710  1
  Mg  Mg64  1  -0.00184816  0.58317496  0.75112920  1
  Mg  Mg65  1  0.16661633  0.83636506  0.25358365  1
  Mg  Mg66  1  0.50065060  0.66419349  0.24989826  1
  Mg  Mg67  1  0.66533303  0.08426139  0.74967591  1
  Mg  Mg68  1  0.83100860  0.66607108  0.75059010  1
  Mg  Mg69  1  0.17007019  0.33070277  0.25093731  1
  Mg  Mg70  1  0.16574765  0.66569668  0.74777140  1
  Mg  Mg71  1  0.83242973  0.66682449  0.24594721  1
  Mg  Mg72  1  0.83236486  0.33522423  0.75456224  1
  Mg  Mg73  1  0.33139447  0.08565047  0.74942679  1
  Mg  Mg74  1  0.49959865  0.16736518  0.75072297  1
  Mg  Mg75  1  0.00440293  0.08222497  0.25045939  1
  Mg  Mg76  1  0.33973239  0.41413335  0.24929395  1
  Mg  Mg77  1  0.66518994  0.41439164  0.24456293  1
  Mg  Mg78  1  0.83164458  0.83353888  0.74739539  1
  Mg  Mg79  1  0.00247962  0.41493452  0.24993673  1
  Mg  Mg80  1  -0.00083957  0.08423029  0.75042328  1
  Mg  Mg81  1  0.33275079  0.91572426  0.74460459  1
  Mg  Mg82  1  -0.00281918  0.41334960  0.75323673  1
  Mg  Mg83  1  0.33231352  0.58485577  0.74683938  1
  Mg  Mg84  1  0.50220139  0.33538557  0.75225006  1
  Mg  Mg85  1  0.49961337  0.16935112  0.24803195  1
  Mg  Mg86  1  0.83485105  0.33316295  0.24438081  1
  Mg  Mg87  1  0.16189392  0.16690370  0.74887601  1
  Mg  Mg88  1  0.66382253  0.91485295  0.74579519  1
  Mg  Mg89  1  0.49691917  0.66603798  0.74645339  1
  Mg  Mg90  1  0.32888075  0.91943414  0.25458777  1
  Mg  Mg91  1  0.66462966  0.58179125  0.74995073  1
  Mg  Mg92  1  0.83418595  0.16497526  0.75243721  1
  Mg  Mg93  1  0.33541066  0.58382624  0.25181814  1
  Mg  Mg94  1  0.49803590  0.83548121  0.74414489  1
  Mg  Mg95  1  0.66832163  0.08220597  0.24508247  1
  Fe  Fe96  1  0.01765156  0.33550236  0.61016280  1
  Fe  Fe97  1  0.36213641  0.83381020  0.60414472  1
  Fe  Fe98  1  0.69552822  0.83322476  0.60811824  1
  Fe  Fe99  1  0.52830414  0.92242283  0.60515021  1
  Fe  Fe100  1  0.52067023  0.41268718  0.10789160  1
  Fe  Fe101  1  0.63769831  0.83431130  0.38851345  1
  Fe  Fe102  1  0.86158708  0.08042575  0.10924111  1
  Fe  Fe103  1  0.31282431  0.66550235  0.39192601  1
  Fe  Fe104  1  0.97392468  0.33251193  0.89577160  1
  Fe  Fe105  1  0.01670024  0.16632873  0.61065575  1
  Fe  Fe106  1  0.35451675  0.66270002  0.60595829  1
  Fe  Fe107  1  0.86383562  0.41794341  0.10685219  1
  Fe  Fe108  1  0.02867925  0.83193191  0.60726521  1
  Fe  Fe109  1  0.14086718  0.91752648  0.39118852  1
  Fe  Fe110  1  0.52029696  0.58560651  0.10732400  1
  Fe  Fe111  1  0.51974721  0.91796304  0.10762658  1
  Fe  Fe112  1  0.19852256  0.92392373  0.60711173  1
  Si  Si113  1  0.35825135  0.17352593  0.61685037  1
  Si  Si114  1  0.97409354  0.83384634  0.88636179  1
  Si  Si115  1  0.52070933  0.09221768  0.61289637  1
  Si  Si116  1  0.69406281  0.33056066  0.10672496  1
  Si  Si117  1  0.80563787  0.91392868  0.88578571  1
  Si  Si118  1  0.01977930  0.66026752  0.61331148  1
  Si  Si119  1  0.19091675  0.41211197  0.61594925  1
  Si  Si120  1  0.18561883  0.57550617  0.61407560  1
  Si  Si121  1  0.03248754  0.16662046  0.11412808  1
  Si  Si122  1  0.31160120  0.33622553  0.38761185  1
  Si  Si123  1  0.19558811  0.08126346  0.11829051  1
  Si  Si124  1  0.68763470  0.16462153  0.10964172  1
  Si  Si125  1  0.47370375  0.41572271  0.88683954  1
  Si  Si126  1  0.64477396  0.16497544  0.38286026  1
  Si  Si127  1  0.14323047  0.58727883  0.88704171  1
  Si  Si128  1  0.14285822  0.41622452  0.38620875  1
  Si  Si129  1  0.97419304  0.66712522  0.88669946  1
  Si  Si130  1  0.14288168  0.08894466  0.38789323  1
  Si  Si131  1  0.69076148  0.66370238  0.61468566  1
  Si  Si132  1  0.52638171  0.41281769  0.61699377  1
  Si  Si133  1  0.02982720  0.83001215  0.11539545  1
  Si  Si134  1  0.03610775  0.33260837  0.11388485  1
  Si  Si135  1  0.47432509  0.08515041  0.88628642  1
  Si  Si136  1  0.63751507  0.83348312  0.88518018  1
  Si  Si137  1  0.47414704  0.58181734  0.88497373  1
  Si  Si138  1  0.63782774  0.66805929  0.88470506  1
  Si  Si139  1  0.80515383  0.58666923  0.88713213  1
  Si  Si140  1  0.35255661  0.16717887  0.11517214  1
  Si  Si141  1  0.63891002  0.33300900  0.88669455  1
  Si  Si142  1  0.85956093  0.59200584  0.10843699  1
  Si  Si143  1  0.47339751  0.91921725  0.88524548  1
  Si  Si144  1  0.85249054  0.42234508  0.61482118  1
  Si  Si145  1  0.64377177  0.66296593  0.38664115  1
  Si  Si146  1  0.31090008  0.83446309  0.38900136  1
  Si  Si147  1  0.19074332  0.91796413  0.11672215  1
  Si  Si148  1  0.80500595  0.58046631  0.38207784  1
  Si  Si149  1  0.35237392  0.66922679  0.11310166  1
  Si  Si150  1  0.47525734  0.08835949  0.38446725  1
  Si  Si151  1  0.69296613  0.83437465  0.10923886  1
  Si  Si152  1  0.64198551  0.16720241  0.88686428  1
  Si  Si153  1  0.30956046  0.66789669  0.88519401  1
  Si  Si154  1  0.47971928  0.57557590  0.38772528  1
  Si  Si155  1  0.69266386  0.16756978  0.61602835  1
  Si  Si156  1  0.19161518  0.58071887  0.11538166  1
  Si  Si157  1  0.30772987  0.33397209  0.88833049  1
  Si  Si158  1  0.48019823  0.41209499  0.38433711  1
  Si  Si159  1  0.97568803  0.16945277  0.38496141  1
  Si  Si160  1  0.80525239  0.91926176  0.38459370  1
  Si  Si161  1  0.96672669  0.82915028  0.38764462  1
  Si  Si162  1  0.35541591  0.32802961  0.11319548  1
  Si  Si163  1  0.53042144  0.57810595  0.61238896  1
  Si  Si164  1  0.30694595  0.16704924  0.88742108  1
  Si  Si165  1  0.69343961  0.66852861  0.10866324  1
  Si  Si166  1  0.80704347  0.41268661  0.38188299  1
  Si  Si167  1  0.30980554  0.83276755  0.88530890  1
  Si  Si168  1  0.80577176  0.07944490  0.88643249  1
  Si  Si169  1  0.14001538  0.58299559  0.38873044  1
  Si  Si170  1  0.64571949  0.32945437  0.38264149  1
  Si  Si171  1  0.85475634  0.58307575  0.61803811  1
  Si  Si172  1  0.14511412  0.42108449  0.89168890  1
  Si  Si173  1  0.31004390  0.17132692  0.38646686  1
  Si  Si174  1  0.97520189  0.15882729  0.89094557  1
  Si  Si175  1  0.80265038  0.41987283  0.89010606  1
  Si  Si176  1  0.86352108  0.91561949  0.61330134  1
  Si  Si177  1  0.96858055  0.66498725  0.38473246  1
  Si  Si178  1  0.14300910  0.91385965  0.88664138  1
  Si  Si179  1  0.14377422  0.07886779  0.88713677  1
  Si  Si180  1  0.51689088  0.08870350  0.11133056  1
  Si  Si181  1  0.86002739  0.91008491  0.11115915  1
  Si  Si182  1  0.19168905  0.09369818  0.61278969  1
  Si  Si183  1  0.19940885  0.41675429  0.11691624  1
  Si  Si184  1  0.69394531  0.33233566  0.61768111  1
  Si  Si185  1  0.97558768  0.33339581  0.38386228  1
  Si  Si186  1  0.35844217  0.33730937  0.61730380  1
  Si  Si187  1  0.03048166  0.66838330  0.11409735  1
  Si  Si188  1  0.81075836  0.08422082  0.38191434  1
  Si  Si189  1  0.46813251  0.92259490  0.38670495  1
  Si  Si190  1  0.35020112  0.83239928  0.11390056  1
  Si  Si191  1  0.85246609  0.07633486  0.61419014  1
  O  O192  1  0.27654055  0.11091697  0.08463846  1
  O  O193  1  0.28265696  0.11799022  0.58811725  1
  O  O194  1  0.26970424  0.61667667  0.08466929  1
  O  O195  1  0.26694304  0.59369623  0.58185803  1
  O  O196  1  0.59770201  0.12194876  0.08183840  1
  O  O197  1  0.60428443  0.12610891  0.58591780  1
  O  O198  1  0.61545919  0.61987195  0.07271342  1
  O  O199  1  0.62157585  0.59892449  0.58974391  1
  O  O200  1  0.94902982  0.12717122  0.07390734  1
  O  O201  1  0.93188109  0.09639907  0.57969748  1
  O  O202  1  0.94136367  0.62991496  0.08038037  1
  O  O203  1  0.94156674  0.60159056  0.58983547  1
  O  O204  1  0.11986013  0.36553783  0.08696851  1
  O  O205  1  0.12312364  0.35392924  0.58208461  1
  O  O206  1  0.10317468  0.87470305  0.08424920  1
  O  O207  1  0.12561273  0.84978170  0.57494273  1
  O  O208  1  0.43321264  0.34529600  0.07602366  1
  O  O209  1  0.44224276  0.36340874  0.58740439  1
  O  O210  1  0.42572419  0.85721580  0.07574304  1
  O  O211  1  0.46444813  0.84333939  0.57479380  1
  O  O212  1  0.77498763  0.35442039  0.07415658  1
  O  O213  1  0.77030583  0.36992932  0.58621127  1
  O  O214  1  0.77669356  0.86042099  0.07866472  1
  O  O215  1  0.80201182  0.84982437  0.58431117  1
  O  O216  1  0.27880835  0.38614919  0.08455180  1
  O  O217  1  0.28226621  0.39417297  0.59070667  1
  O  O218  1  0.26681657  0.88230503  0.08237967  1
  O  O219  1  0.30163918  0.91709140  0.58003881  1
  O  O220  1  0.61438538  0.37905667  0.07259877  1
  O  O221  1  0.60530811  0.37509665  0.58804402  1
  O  O222  1  0.61408119  0.88323040  0.07347153  1
  O  O223  1  0.63038541  0.91095212  0.57683205  1
  O  O224  1  0.95750212  0.37800881  0.07518108  1
  O  O225  1  0.93269900  0.40598006  0.58006147  1
  O  O226  1  0.93939698  0.86739216  0.08384376  1
  O  O227  1  0.95127150  0.90925538  0.58507210  1
  O  O228  1  0.11392678  0.13017905  0.08545150  1
  O  O229  1  0.12481835  0.15704117  0.58660753  1
  O  O230  1  0.10537688  0.62485883  0.08327978  1
  O  O231  1  0.10246492  0.62609329  0.58634436  1
  O  O232  1  0.43709158  0.14470775  0.08470559  1
  O  O233  1  0.44580435  0.15395520  0.58988277  1
  O  O234  1  0.42804947  0.64889621  0.07442107  1
  O  O235  1  0.45476488  0.62819160  0.57692010  1
  O  O236  1  0.75866819  0.12823825  0.07350419  1
  O  O237  1  0.77077337  0.13061692  0.58688455  1
  O  O238  1  0.77806803  0.64439164  0.07786233  1
  O  O239  1  0.78007942  0.64057664  0.58955476  1
  O  O240  1  0.06519367  0.13159215  0.41811963  1
  O  O241  1  0.06352343  0.11213710  0.91673923  1
  O  O242  1  0.05430987  0.61729108  0.41219349  1
  O  O243  1  0.06391330  0.62552102  0.91620838  1
  O  O244  1  0.40044237  0.12932521  0.41707874  1
  O  O245  1  0.39747298  0.12633862  0.91587036  1
  O  O246  1  0.40341255  0.60205818  0.42313482  1
  O  O247  1  0.39530708  0.62078348  0.91373581  1
  O  O248  1  0.73075438  0.11973517  0.41436594  1
  O  O249  1  0.72961060  0.12294369  0.91459250  1
  O  O250  1  0.72774784  0.61278340  0.41621305  1
  O  O251  1  0.73041549  0.63210261  0.91495089  1
  O  O252  1  0.23398987  0.37598971  0.41759790  1
  O  O253  1  0.23522720  0.37797238  0.91878462  1
  O  O254  1  0.23002408  0.85364382  0.42265858  1
  O  O255  1  0.23014011  0.86838502  0.91621476  1
  O  O256  1  0.56459557  0.36262090  0.41303588  1
  O  O257  1  0.55835154  0.36872308  0.91533569  1
  O  O258  1  0.54484303  0.87255446  0.42171306  1
  O  O259  1  0.56283609  0.87741191  0.91472658  1
  O  O260  1  0.89821269  0.37408694  0.41319674  1
  O  O261  1  0.88550464  0.37912017  0.92825523  1
  O  O262  1  0.88494810  0.86584884  0.41463647  1
  O  O263  1  0.89663949  0.87388588  0.91606742  1
  O  O264  1  0.06604031  0.37382700  0.41467035  1
  O  O265  1  0.07366344  0.38631316  0.92770304  1
  O  O266  1  0.04815644  0.87424787  0.42180629  1
  O  O267  1  0.06437268  0.87467150  0.91632080  1
  O  O268  1  0.40119135  0.37806186  0.41747909  1
  O  O269  1  0.39695799  0.37563582  0.91639419  1
  O  O270  1  0.38105336  0.89939706  0.41214002  1
  O  O271  1  0.39571840  0.87941572  0.91499626  1
  O  O272  1  0.73175926  0.37441475  0.41695499  1
  O  O273  1  0.71978669  0.38340079  0.91567011  1
  O  O274  1  0.72822614  0.89531502  0.42145495  1
  O  O275  1  0.73039850  0.87005260  0.91463780  1
  O  O276  1  0.23134511  0.13689595  0.41694991  1
  O  O277  1  0.23097782  0.12478144  0.91679976  1
  O  O278  1  0.22006502  0.62754987  0.42744448  1
  O  O279  1  0.22914930  0.63400743  0.91584283  1
  O  O280  1  0.56452503  0.13142016  0.41379488  1
  O  O281  1  0.56335668  0.12764635  0.91544399  1
  O  O282  1  0.56638601  0.62156625  0.41544454  1
  O  O283  1  0.56243264  0.62493559  0.91381975  1
  O  O284  1  0.89526424  0.13207151  0.41295584  1
  O  O285  1  0.89775737  0.11409154  0.91729097  1
  O  O286  1  0.89313154  0.62183456  0.41508650  1
  O  O287  1  0.89657441  0.62710840  0.91578088  1
  O  O288  1  0.17811887  -0.00015665  0.08557497  1
  O  O289  1  0.15852753  0.01766806  0.58117349  1
  O  O290  1  0.17985269  0.49829359  0.08558293  1
  O  O291  1  0.15717382  0.49252102  0.59020843  1
  O  O292  1  0.49168493  0.01227865  0.07514545  1
  O  O293  1  0.49030572  0.01824247  0.57719754  1
  O  O294  1  0.48822673  0.49919077  0.06577154  1
  O  O295  1  0.51240318  0.49368732  0.58557256  1
  O  O296  1  0.85102256  -0.01358480  0.07184003  1
  O  O297  1  0.81830037  -0.00495276  0.59178067  1
  O  O298  1  0.84574858  0.51358408  0.07314384  1
  O  O299  1  0.81896608  0.50421318  0.59043782  1
  O  O300  1  0.02979505  0.24996245  0.08454928  1
  O  O301  1  -0.03001324  0.25138368  0.57451940  1
  O  O302  1  0.02805623  0.74943656  0.07968868  1
  O  O303  1  -0.00904636  0.73634485  0.58005640  1
  O  O304  1  0.31979597  0.24687841  0.08672259  1
  O  O305  1  0.33279320  0.25583038  0.58917660  1
  O  O306  1  0.31820563  0.75060958  0.08915646  1
  O  O307  1  0.31137009  0.74789566  0.57095568  1
  O  O308  1  0.66982925  0.24688054  0.08159212  1
  O  O309  1  0.68185837  0.25024693  0.58633319  1
  O  O310  1  0.67447785  0.75161645  0.08084765  1
  O  O311  1  0.65822832  0.73856480  0.58097507  1
  O  O312  1  0.15695526  0.01265547  0.42587786  1
  O  O313  1  0.15776892  -0.00388743  0.91731481  1
  O  O314  1  0.14702670  0.49790100  0.41727556  1
  O  O315  1  0.16005401  0.50603596  0.91772237  1
  O  O316  1  0.48641162  0.00681388  0.41402607  1
  O  O317  1  0.48088923  0.00228460  0.91498325  1
  O  O318  1  0.50274093  0.49229920  0.41594087  1
  O  O319  1  0.48292052  0.49895990  0.91419164  1
  O  O320  1  0.82879240  0.00296212  0.41159535  1
  O  O321  1  0.80615492  -0.00357798  0.91491119  1
  O  O322  1  0.81590449  0.49631053  0.40929563  1
  O  O323  1  0.80676095  0.50510299  0.91658677  1
  O  O324  1  0.32267219  0.25404911  0.41816829  1
  O  O325  1  0.31320873  0.25031883  0.91647866  1
  O  O326  1  0.35120363  0.75793518  0.41769231  1
  O  O327  1  0.32359937  0.75018254  0.91547361  1
  O  O328  1  0.65811497  0.24710494  0.41426614  1
  O  O329  1  0.65077866  0.24975743  0.91656644  1
  O  O330  1  0.65958820  0.74008903  0.42263992  1
  O  O331  1  0.63956694  0.75065394  0.91455669  1
  O  O332  1  0.98160825  0.25217122  0.41614963  1
  O  O333  1  0.98655961  0.23601614  0.92723132  1
  O  O334  1  0.97581466  0.74525987  0.41909991  1
  O  O335  1  0.98194721  0.75038131  0.91600109  1
  O  O336  1  0.21599376  0.08340282  0.19676690  1
  O  O337  1  0.21159230  0.08889101  0.69527007  1
  O  O338  1  0.20977748  0.58124315  0.19530578  1
  O  O339  1  0.20593689  0.58021548  0.69585780  1
  O  O340  1  0.53837493  0.08565486  0.19213686  1
  O  O341  1  0.54211047  0.08839642  0.69457174  1
  O  O342  1  0.54277519  0.58335887  0.19977330  1
  O  O343  1  0.54321127  0.58049073  0.69383598  1
  O  O344  1  0.88180908  0.08515835  0.19876354  1
  O  O345  1  0.87329110  0.08263513  0.69593915  1
  O  O346  1  0.87213092  0.59302247  0.18707468  1
  O  O347  1  0.87487644  0.58304185  0.69905204  1
  O  O348  1  0.04975902  0.33238747  0.19443361  1
  O  O349  1  0.04404386  0.33472829  0.70334669  1
  O  O350  1  0.04859088  0.82567732  0.19415421  1
  O  O351  1  0.04567402  0.83132690  0.70122013  1
  O  O352  1  0.37315928  0.33122034  0.19330351  1
  O  O353  1  0.37751499  0.33462415  0.69814614  1
  O  O354  1  0.37351056  0.83508549  0.19452501  1
  O  O355  1  0.37827940  0.83346705  0.69889718  1
  O  O356  1  0.71074645  0.33193840  0.18822674  1
  O  O357  1  0.71208540  0.33054926  0.69746747  1
  O  O358  1  0.70837512  0.83447979  0.18969014  1
  O  O359  1  0.71199743  0.83224237  0.70163144  1
  O  O360  1  0.21658738  0.41677572  0.19707120  1
  O  O361  1  0.21009424  0.41412870  0.69771833  1
  O  O362  1  0.21325483  0.91330068  0.19535818  1
  O  O363  1  0.21214679  0.91889068  0.70112999  1
  O  O364  1  0.54429138  0.41624166  0.19853155  1
  O  O365  1  0.54012183  0.41496810  0.69678039  1
  O  O366  1  0.54047693  0.91905465  0.19850763  1
  O  O367  1  0.54423914  0.91994666  0.69957582  1
  O  O368  1  0.88663564  0.40908291  0.19646370  1
  O  O369  1  0.87212649  0.41840031  0.69596201  1
  O  O370  1  0.86920511  0.91372184  0.18969853  1
  O  O371  1  0.87859839  0.91554243  0.69600918  1
  O  O372  1  0.04350791  0.16808914  0.19360222  1
  O  O373  1  0.04110257  0.16744388  0.70437631  1
  O  O374  1  0.04966165  0.67125028  0.19320620  1
  O  O375  1  0.04100681  0.66279244  0.69520271  1
  O  O376  1  0.37496208  0.16635215  0.19527040  1
  O  O377  1  0.37658635  0.17157719  0.69795006  1
  O  O378  1  0.37579952  0.66526028  0.19368439  1
  O  O379  1  0.37725427  0.66491348  0.69961342  1
  O  O380  1  0.70849083  0.16488239  0.19047231  1
  O  O381  1  0.70907951  0.16740362  0.69690939  1
  O  O382  1  0.70766684  0.66730546  0.18959383  1
  O  O383  1  0.70934882  0.66490832  0.69636122  1
  O  O384  1  0.12257089  0.08870803  0.30885672  1
  O  O385  1  0.12679142  0.08077829  0.80706712  1
  O  O386  1  0.13489377  0.58161487  0.30933131  1
  O  O387  1  0.12303431  0.58490301  0.80666276  1
  O  O388  1  0.45760045  0.08778881  0.30434836  1
  O  O389  1  0.45669318  0.08655698  0.80583762  1
  O  O390  1  0.45835319  0.57964630  0.30700433  1
  O  O391  1  0.45634733  0.58154671  0.80478117  1
  O  O392  1  0.78576074  0.08867688  0.30298472  1
  O  O393  1  0.78866106  0.08193072  0.80593294  1
  O  O394  1  0.78460978  0.58945277  0.30326288  1
  O  O395  1  0.78897534  0.58558504  0.80680527  1
  O  O396  1  0.29396184  0.33529666  0.30764533  1
  O  O397  1  0.28999878  0.33423355  0.80776123  1
  O  O398  1  0.29187624  0.83298239  0.30709965  1
  O  O399  1  0.29010914  0.83199742  0.80563235  1
  O  O400  1  0.63058251  0.32940552  0.30358874  1
  O  O401  1  0.62038867  0.32990191  0.80690095  1
  O  O402  1  0.62081418  0.83261776  0.29700026  1
  O  O403  1  0.62106223  0.83328992  0.80536340  1
  O  O404  1  0.95933300  0.33009689  0.30423168  1
  O  O405  1  0.95256040  0.33304631  0.80405718  1
  O  O406  1  0.95025137  0.82594778  0.30782604  1
  O  O407  1  0.95565596  0.83285306  0.80646965  1
  O  O408  1  0.13006089  0.41438227  0.30633929  1
  O  O409  1  0.12606021  0.41941773  0.81080371  1
  O  O410  1  0.13352986  0.91861946  0.30359463  1
  O  O411  1  0.12365689  0.91623265  0.80703987  1
  O  O412  1  0.45690678  0.41596852  0.30535943  1
  O  O413  1  0.45527678  0.41585350  0.80632683  1
  O  O414  1  0.45482675  0.91983413  0.30576415  1
  O  O415  1  0.45537639  0.91980856  0.80547051  1
  O  O416  1  0.78452793  0.40611367  0.30322441  1
  O  O417  1  0.79198169  0.41772773  0.80990104  1
  O  O418  1  0.78537361  0.91555939  0.30446973  1
  O  O419  1  0.79061798  0.91587296  0.80574755  1
  O  O420  1  0.29679983  0.17049411  0.30734068  1
  O  O421  1  0.28997543  0.16777754  0.80708778  1
  O  O422  1  0.29064529  0.66509135  0.29996667  1
  O  O423  1  0.28860848  0.66575635  0.80518522  1
  O  O424  1  0.62477189  0.16595639  0.30286300  1
  O  O425  1  0.62286206  0.16723975  0.80616938  1
  O  O426  1  0.62461861  0.66628490  0.30581458  1
  O  O427  1  0.62179843  0.66656730  0.80439375  1
  O  O428  1  0.95851097  0.17084028  0.30523590  1
  O  O429  1  0.95473205  0.16253202  0.81013878  1
  O  O430  1  0.94970850  0.67079115  0.30560518  1
  O  O431  1  0.95702999  0.66639270  0.80648226  1
  F  F432  1  0.04640406  0.01208636  0.19145243  1
  F  F433  1  0.04612005  0.00150012  0.70550736  1
  F  F434  1  0.05573322  0.48952193  0.19853457  1
  F  F435  1  0.04409633  0.49898530  0.70716489  1
  F  F436  1  0.37711697  0.00173259  0.20256931  1
  F  F437  1  0.37938146  0.00546045  0.70451361  1
  F  F438  1  0.37864157  0.50018086  0.20202362  1
  F  F439  1  0.37879724  0.49772850  0.70379026  1
  F  F440  1  0.70001384  0.00014971  0.19524836  1
  F  F441  1  0.71157728  0.00208105  0.70477316  1
  F  F442  1  0.70032716  0.49903314  0.19561343  1
  F  F443  1  0.71196645  0.50121949  0.70492319  1
  F  F444  1  0.21689489  0.25448855  0.20238916  1
  F  F445  1  0.21335950  0.25215023  0.70714860  1
  F  F446  1  0.21143996  0.75085877  0.20330221  1
  F  F447  1  0.21116813  0.74761111  0.70355136  1
  F  F448  1  0.54700971  0.24552512  0.19812722  1
  F  F449  1  0.54483245  0.25094460  0.70340606  1
  F  F450  1  0.54179190  0.74772077  0.19876325  1
  F  F451  1  0.54603923  0.74821872  0.70297303  1
  F  F452  1  0.88148795  0.24808203  0.19948296  1
  F  F453  1  0.87429051  0.24839864  0.70597341  1
  F  F454  1  0.87880380  0.75199641  0.19931521  1
  F  F455  1  0.87915691  0.74735404  0.70539392  1
  F  F456  1  0.29956900  0.00366760  0.30511436  1
  F  F457  1  0.29013888  0.00407263  0.80052623  1
  F  F458  1  0.29219210  0.49780225  0.29893068  1
  F  F459  1  0.28809461  0.50066538  0.79911089  1
  F  F460  1  0.62015674  0.00487825  0.29793855  1
  F  F461  1  0.62144698  0.00376846  0.80013370  1
  F  F462  1  0.62586308  0.49818807  0.30052059  1
  F  F463  1  0.61765832  0.50469595  0.80207436  1
  F  F464  1  0.95621926  0.01312122  0.30803425  1
  F  F465  1  0.95454098  -0.00168103  0.79880568  1
  F  F466  1  0.97008704  0.48524011  0.31247349  1
  F  F467  1  0.95337428  0.50095640  0.80103392  1
  F  F468  1  0.12178645  0.25623307  0.30225699  1
  F  F469  1  0.12537991  0.24974636  0.80509328  1
  F  F470  1  0.12087785  0.74826442  0.30082782  1
  F  F471  1  0.12227272  0.74615506  0.80036121  1
  F  F472  1  0.45520706  0.24716461  0.29956564  1
  F  F473  1  0.45487630  0.25109767  0.80100715  1
  F  F474  1  0.45565317  0.74958158  0.29535116  1
  F  F475  1  0.45758972  0.74983238  0.79992267  1
  F  F476  1  0.78782382  0.24847131  0.29223781  1
  F  F477  1  0.78633665  0.24766438  0.80207134  1
  F  F478  1  0.78431523  0.75069387  0.29235529  1
  F  F479  1  0.78943808  0.74797983  0.80167143  1
