# generated using pymatgen
data_K24Na3Li5Mg64Fe17Si79(O5F)48
_symmetry_space_group_name_H-M   'P 1'
_cell_length_a   16.08501854
_cell_length_b   18.56977792
_cell_length_c   20.54015532
_cell_angle_alpha   89.99835533
_cell_angle_beta   100.00090941
_cell_angle_gamma   90.00923854
_symmetry_Int_Tables_number   1
_chemical_formula_structural   K24Na3Li5Mg64Fe17Si79(O5F)48
_chemical_formula_sum   'K24 Na3 Li5 Mg64 Fe17 Si79 O240 F48'
_cell_volume   6042.02108662
_cell_formula_units_Z   1
loop_
 _symmetry_equiv_pos_site_id
 _symmetry_equiv_pos_as_xyz
  1  'x, y, z'
loop_
 _atom_site_type_symbol
 _atom_site_label
 _atom_site_symmetry_multiplicity
 _atom_site_fract_x
 _atom_site_fract_y
 _atom_site_fract_z
 _atom_site_occupancy
  K  K0  1  0.00423508  0.00048760  -0.00282741  1
  K  K1  1  0.01466892  -0.00585508  0.50994664  1
  K  K2  1  0.00233989  0.50188885  -0.00367143  1
  K  K3  1  0.00189736  0.49588054  0.50043879  1
  K  K4  1  0.32163317  -0.00183285  -0.01269715  1
  K  K5  1  0.32363045  -0.00030750  0.50221887  1
  K  K6  1  0.33482318  0.50070223  -0.00774489  1
  K  K7  1  0.33181409  0.49830495  0.50589375  1
  K  K8  1  0.66178889  -0.00301858  -0.00259314  1
  K  K9  1  0.66395566  0.00257379  0.50104162  1
  K  K10  1  0.66551683  0.50662433  0.00354686  1
  K  K11  1  0.66203181  0.50543386  0.49773594  1
  K  K12  1  0.17015346  0.24239756  -0.00770979  1
  K  K13  1  0.17209609  0.25314908  0.49948989  1
  K  K14  1  0.17097521  0.75311924  -0.00264158  1
  K  K15  1  0.17787427  0.75351272  0.50557766  1
  K  K16  1  0.50008733  0.24903661  -0.00773073  1
  K  K17  1  0.49043503  0.24526613  0.50154875  1
  K  K18  1  0.49518999  0.74876576  -0.00075339  1
  K  K19  1  0.50272956  0.75272108  0.49536199  1
  K  K20  1  0.83255406  0.24346664  -0.00390841  1
  K  K21  1  0.84345802  0.24309297  0.50355224  1
  K  K22  1  0.83111935  0.75788148  0.00236398  1
  K  K23  1  0.83957326  0.75265248  0.50086721  1
  Na  Na24  1  0.33328920  0.75096358  0.74844872  1
  Na  Na25  1  0.17022189  0.67127597  0.25162077  1
  Na  Na26  1  0.66411996  0.58483954  0.24306196  1
  Li  Li27  1  0.66325969  0.74789286  0.24350552  1
  Li  Li28  1  0.49772551  -0.00118798  0.25236028  1
  Li  Li29  1  0.33429128  0.41533350  0.75802269  1
  Li  Li30  1  0.33015406  0.91203728  0.74380688  1
  Li  Li31  1  0.16953890  0.16418887  0.25830003  1
  Mg  Mg32  1  0.66553397  0.24877330  0.24869233  1
  Mg  Mg33  1  0.32947863  0.24752788  0.25265132  1
  Mg  Mg34  1  0.17197208  -0.00033361  0.75053852  1
  Mg  Mg35  1  0.33381844  0.25170629  0.75579630  1
  Mg  Mg36  1  0.66581287  0.24789798  0.75236378  1
  Mg  Mg37  1  0.83130547  -0.00164403  0.24377044  1
  Mg  Mg38  1  0.49742634  0.49966042  0.75542998  1
  Mg  Mg39  1  0.83182750  0.50112965  0.24934446  1
  Mg  Mg40  1  0.00201170  0.25039565  0.25472499  1
  Mg  Mg41  1  0.16568468  0.00250963  0.25321810  1
  Mg  Mg42  1  0.00246484  0.74847849  0.74555769  1
  Mg  Mg43  1  0.50090986  0.50100916  0.24670802  1
  Mg  Mg44  1  0.83612836  0.00051592  0.74646362  1
  Mg  Mg45  1  -0.00039798  0.75119061  0.24664615  1
  Mg  Mg46  1  0.16836460  0.50251148  0.25194973  1
  Mg  Mg47  1  0.00170853  0.24899716  0.74941434  1
  Mg  Mg48  1  0.66651652  0.75173234  0.74843918  1
  Mg  Mg49  1  0.17017782  0.49738527  0.75487834  1
  Mg  Mg50  1  0.49720941  -0.00349521  0.75035071  1
  Mg  Mg51  1  0.83310437  0.49956822  0.74758970  1
  Mg  Mg52  1  0.33252775  0.75340562  0.25001050  1
  Mg  Mg53  1  0.16865238  0.83503731  0.25077321  1
  Mg  Mg54  1  0.33212592  0.08420465  0.25469246  1
  Mg  Mg55  1  0.00160767  0.08385858  0.74715492  1
  Mg  Mg56  1  0.83241469  0.66485369  0.74586238  1
  Mg  Mg57  1  0.33199752  0.08147149  0.75444811  1
  Mg  Mg58  1  0.50070419  0.16463561  0.75390495  1
  Mg  Mg59  1  0.66254548  0.08110452  0.24801081  1
  Mg  Mg60  1  0.33336301  0.41572442  0.25097652  1
  Mg  Mg61  1  0.49702605  0.83452202  0.74686797  1
  Mg  Mg62  1  0.82945260  0.66900298  0.24667875  1
  Mg  Mg63  1  0.49874314  0.33285058  0.24793881  1
  Mg  Mg64  1  0.16603485  0.16394522  0.75112264  1
  Mg  Mg65  1  0.66578469  0.41559100  0.75181129  1
  Mg  Mg66  1  0.83172516  0.33393090  0.74890100  1
  Mg  Mg67  1  0.50211715  0.66937163  0.24448505  1
  Mg  Mg68  1  0.00073606  0.58507463  0.24979204  1
  Mg  Mg69  1  0.00156275  0.08559994  0.24969956  1
  Mg  Mg70  1  0.16672541  0.66499190  0.74936486  1
  Mg  Mg71  1  0.50141485  0.83581717  0.24911337  1
  Mg  Mg72  1  0.49912704  0.66671740  0.75282106  1
  Mg  Mg73  1  0.66536821  0.91738992  0.74763182  1
  Mg  Mg74  1  0.66592041  0.41645752  0.24813065  1
  Mg  Mg75  1  0.83445424  0.83379949  0.74530357  1
  Mg  Mg76  1  0.33595329  0.58627507  0.24886575  1
  Mg  Mg77  1  0.49933221  0.33493415  0.75825072  1
  Mg  Mg78  1  0.66586339  0.58528205  0.75010993  1
  Mg  Mg79  1  0.83482895  0.16442008  0.75012607  1
  Mg  Mg80  1  0.33602149  0.58018734  0.75496632  1
  Mg  Mg81  1  0.00174762  0.41588640  0.25420678  1
  Mg  Mg82  1  0.00328156  0.91457411  0.74736923  1
  Mg  Mg83  1  0.16827202  0.33312725  0.25445549  1
  Mg  Mg84  1  0.83355847  0.16521851  0.24913566  1
  Mg  Mg85  1  0.33611653  0.91861985  0.25384953  1
  Mg  Mg86  1  0.16995541  0.33392997  0.75322490  1
  Mg  Mg87  1  0.66237915  0.91445486  0.24541564  1
  Mg  Mg88  1  -0.00328079  0.58198096  0.74646038  1
  Mg  Mg89  1  0.49740291  0.16290234  0.25083257  1
  Mg  Mg90  1  0.82764787  0.83355351  0.24252648  1
  Mg  Mg91  1  0.83568227  0.33445387  0.25273022  1
  Mg  Mg92  1  0.16870539  0.83446186  0.74761180  1
  Mg  Mg93  1  0.66588313  0.08382515  0.75112128  1
  Mg  Mg94  1  -0.00295383  0.91604133  0.24586173  1
  Mg  Mg95  1  -0.00256955  0.41537627  0.74907549  1
  Fe  Fe96  1  0.48026039  0.58785527  0.89429520  1
  Fe  Fe97  1  0.02492499  0.82846390  0.60758170  1
  Fe  Fe98  1  0.64218882  0.16149161  0.89286746  1
  Fe  Fe99  1  0.30619417  0.16585593  0.39348504  1
  Fe  Fe100  1  0.85145194  0.58199016  0.60646322  1
  Fe  Fe101  1  0.19931408  0.91355297  0.60708119  1
  Fe  Fe102  1  0.20081891  0.08910435  0.60896270  1
  Fe  Fe103  1  0.85110342  0.41307523  0.60851266  1
  Fe  Fe104  1  0.13788324  0.08203148  0.89189204  1
  Fe  Fe105  1  0.97584445  0.33123647  0.39324742  1
  Fe  Fe106  1  0.31285015  0.33530905  0.89442761  1
  Fe  Fe107  1  0.85383973  0.08091212  0.60735614  1
  Fe  Fe108  1  0.31193408  0.83397030  0.39217410  1
  Fe  Fe109  1  0.02546390  0.17017072  0.60684743  1
  Fe  Fe110  1  0.85874647  0.91768306  0.10356452  1
  Fe  Fe111  1  0.52435134  0.91851151  0.60816241  1
  Fe  Fe112  1  0.51785933  0.58384395  0.10450701  1
  Si  Si113  1  0.85425631  0.91234089  0.60991798  1
  Si  Si114  1  0.63898868  0.83314488  0.38283485  1
  Si  Si115  1  0.02851127  0.33815535  0.11613633  1
  Si  Si116  1  0.64714388  0.67481738  0.88777141  1
  Si  Si117  1  0.19513318  0.58118403  0.11462510  1
  Si  Si118  1  0.52462485  0.08565285  0.61608143  1
  Si  Si119  1  0.52301351  0.91712798  0.11251287  1
  Si  Si120  1  0.02693952  0.17318238  0.11732156  1
  Si  Si121  1  0.64047613  0.67015084  0.38160874  1
  Si  Si122  1  0.13404023  0.07841888  0.38679037  1
  Si  Si123  1  0.19567342  0.57977224  0.61672177  1
  Si  Si124  1  0.13441620  0.91317447  0.38416776  1
  Si  Si125  1  0.80610271  0.58536090  0.88532257  1
  Si  Si126  1  0.14147391  0.91173187  0.89006019  1
  Si  Si127  1  0.80910087  0.58675881  0.38260549  1
  Si  Si128  1  0.47958236  0.92061934  0.38676005  1
  Si  Si129  1  0.69543849  0.66856174  0.10840135  1
  Si  Si130  1  0.14512475  0.42253674  0.38998281  1
  Si  Si131  1  0.35588898  0.16200690  0.11530400  1
  Si  Si132  1  0.85995312  0.09023159  0.11006737  1
  Si  Si133  1  0.47197470  0.07547185  0.89025697  1
  Si  Si134  1  0.97502594  0.66858623  0.38374137  1
  Si  Si135  1  0.64021361  0.33317357  0.38311644  1
  Si  Si136  1  0.85903364  0.41759691  0.11481520  1
  Si  Si137  1  0.97108111  0.15919232  0.38673226  1
  Si  Si138  1  0.48624010  0.41874746  0.89446142  1
  Si  Si139  1  0.69250121  0.83446962  0.61318436  1
  Si  Si140  1  0.64675981  0.83802583  0.88409228  1
  Si  Si141  1  0.19470662  0.41555047  0.61935240  1
  Si  Si142  1  0.02644623  0.65697015  0.61021716  1
  Si  Si143  1  0.36255777  0.33683967  0.62142506  1
  Si  Si144  1  0.35703761  0.32687764  0.11585174  1
  Si  Si145  1  0.85995069  0.58435674  0.11150584  1
  Si  Si146  1  0.35586942  0.84073585  0.11460901  1
  Si  Si147  1  0.80478051  0.42075357  0.88666693  1
  Si  Si148  1  0.13673681  0.41654695  0.89069766  1
  Si  Si149  1  0.52439350  0.08391046  0.11426571  1
  Si  Si150  1  0.96753217  0.83409174  0.38037871  1
  Si  Si151  1  0.35205527  0.67483547  0.11091762  1
  Si  Si152  1  0.81306690  0.91699822  0.88233077  1
  Si  Si153  1  0.69020519  0.16782644  0.11360633  1
  Si  Si154  1  0.52091425  0.41088752  0.11079893  1
  Si  Si155  1  0.47776441  0.41712623  0.38327042  1
  Si  Si156  1  0.47831803  0.08459096  0.38851263  1
  Si  Si157  1  0.02664496  0.34050103  0.61423333  1
  Si  Si158  1  0.52706893  0.58281631  0.61556298  1
  Si  Si159  1  0.64138584  0.16806721  0.38411697  1
  Si  Si160  1  0.03032913  0.82869549  0.10911344  1
  Si  Si161  1  0.96897349  0.33615830  0.88703122  1
  Si  Si162  1  0.13590815  0.58320259  0.88607750  1
  Si  Si163  1  0.97159776  0.66549660  0.88383886  1
  Si  Si164  1  0.68781245  0.16664132  0.61453816  1
  Si  Si165  1  0.19076511  0.92016609  0.11573105  1
  Si  Si166  1  0.47969020  0.58157186  0.38442289  1
  Si  Si167  1  0.30557031  0.83031041  0.88559656  1
  Si  Si168  1  0.02667407  0.66217340  0.11321935  1
  Si  Si169  1  0.31185991  0.33964651  0.38973329  1
  Si  Si170  1  0.52698245  0.41775115  0.61834963  1
  Si  Si171  1  0.30132116  0.66328530  0.88883969  1
  Si  Si172  1  0.64677977  0.33267453  0.89121384  1
  Si  Si173  1  0.97378074  0.82888825  0.88419194  1
  Si  Si174  1  0.80205129  0.91523339  0.38063072  1
  Si  Si175  1  0.31202637  0.16441663  0.89259721  1
  Si  Si176  1  0.81003442  0.07958707  0.88757368  1
  Si  Si177  1  0.36806404  0.82575240  0.60829054  1
  Si  Si178  1  0.14274422  0.58672756  0.38546306  1
  Si  Si179  1  0.80259196  0.08043499  0.38141928  1
  Si  Si180  1  0.31754070  0.66307658  0.38797210  1
  Si  Si181  1  0.96985336  0.17083771  0.89023595  1
  Si  Si182  1  0.69264818  0.33382692  0.11477142  1
  Si  Si183  1  0.68487922  0.32707417  0.61486709  1
  Si  Si184  1  0.36085985  0.65969652  0.61572188  1
  Si  Si185  1  0.68671645  0.83423655  0.10618506  1
  Si  Si186  1  0.19586277  0.41729478  0.11565966  1
  Si  Si187  1  0.36942903  0.17304123  0.61839739  1
  Si  Si188  1  0.80317264  0.41994799  0.38728144  1
  Si  Si189  1  0.68701066  0.67196201  0.61180847  1
  Si  Si190  1  0.47459267  0.90942028  0.88540126  1
  Si  Si191  1  0.18869163  0.08336057  0.11795812  1
  O  O192  1  0.26886804  0.11719500  0.08687200  1
  O  O193  1  0.30070755  0.11916963  0.57925098  1
  O  O194  1  0.26234175  0.63081753  0.08306874  1
  O  O195  1  0.27793658  0.60891507  0.58612624  1
  O  O196  1  0.60189170  0.12484838  0.08434115  1
  O  O197  1  0.61211119  0.10806085  0.58879414  1
  O  O198  1  0.61643217  0.61851132  0.07658684  1
  O  O199  1  0.60481981  0.61883640  0.58428272  1
  O  O200  1  0.93479915  0.13857380  0.08416239  1
  O  O201  1  0.94384656  0.10455555  0.56731282  1
  O  O202  1  0.93939477  0.61878189  0.08025406  1
  O  O203  1  0.95685202  0.59659372  0.58031535  1
  O  O204  1  0.10344478  0.38058776  0.08569004  1
  O  O205  1  0.11604601  0.36337352  0.58776774  1
  O  O206  1  0.11211581  0.86722198  0.08362987  1
  O  O207  1  0.11123506  0.85574777  0.56583187  1
  O  O208  1  0.43976452  0.35574708  0.08684605  1
  O  O209  1  0.43971224  0.37414183  0.58853287  1
  O  O210  1  0.43287032  0.87693542  0.08205000  1
  O  O211  1  0.45174525  0.84323115  0.57548514  1
  O  O212  1  0.77201069  0.37202715  0.08585674  1
  O  O213  1  0.76496301  0.34303196  0.57971961  1
  O  O214  1  0.75501098  0.87377110  0.06822528  1
  O  O215  1  0.78370242  0.84619385  0.58885517  1
  O  O216  1  0.27143418  0.37397249  0.08731071  1
  O  O217  1  0.27860459  0.38527113  0.59139703  1
  O  O218  1  0.27319884  0.89110167  0.08585311  1
  O  O219  1  0.29105799  0.87543034  0.57166785  1
  O  O220  1  0.60484315  0.37565231  0.08488940  1
  O  O221  1  0.60511105  0.38258033  0.58738036  1
  O  O222  1  0.59441995  0.87457211  0.07875407  1
  O  O223  1  0.62726679  0.89508508  0.57961708  1
  O  O224  1  0.93835267  0.37937957  0.08593950  1
  O  O225  1  0.95895712  0.40292836  0.58578001  1
  O  O226  1  0.94548098  0.86666478  0.07063534  1
  O  O227  1  0.93347467  0.89074074  0.57501113  1
  O  O228  1  0.10374179  0.13144988  0.08877117  1
  O  O229  1  0.12251972  0.15669573  0.57249884  1
  O  O230  1  0.10119763  0.61558458  0.08640076  1
  O  O231  1  0.11621276  0.63122073  0.58590997  1
  O  O232  1  0.43484507  0.12592119  0.08462912  1
  O  O233  1  0.46072692  0.15456808  0.59521479  1
  O  O234  1  0.42404947  0.64390855  0.07318000  1
  O  O235  1  0.43976443  0.62478212  0.58328115  1
  O  O236  1  0.76952025  0.13345734  0.08389276  1
  O  O237  1  0.76557842  0.14906421  0.57725068  1
  O  O238  1  0.77827397  0.63255648  0.07894513  1
  O  O239  1  0.76558376  0.65180279  0.57623212  1
  O  O240  1  0.04441414  0.09947624  0.41130115  1
  O  O241  1  0.05140661  0.12879013  0.92877262  1
  O  O242  1  0.06485118  0.62780229  0.41390139  1
  O  O243  1  0.05572268  0.61902237  0.91569576  1
  O  O244  1  0.40446948  0.11112239  0.42724157  1
  O  O245  1  0.38818735  0.10462378  0.91761705  1
  O  O246  1  0.39788242  0.60740472  0.41687208  1
  O  O247  1  0.38197776  0.61784604  0.92528535  1
  O  O248  1  0.72361447  0.11723932  0.41096935  1
  O  O249  1  0.73233027  0.09860234  0.92489585  1
  O  O250  1  0.73008999  0.62703206  0.40933003  1
  O  O251  1  0.73071604  0.62363789  0.91702381  1
  O  O252  1  0.23687599  0.38426712  0.41789516  1
  O  O253  1  0.21717523  0.37266392  0.92849422  1
  O  O254  1  0.20944198  0.86071621  0.41747979  1
  O  O255  1  0.23025214  0.86772897  0.92080183  1
  O  O256  1  0.55693618  0.36296678  0.41163059  1
  O  O257  1  0.56483107  0.36097226  0.92134056  1
  O  O258  1  0.56236516  0.86881779  0.41529749  1
  O  O259  1  0.56520843  0.86705187  0.91568328  1
  O  O260  1  0.88244360  0.37366045  0.42359034  1
  O  O261  1  0.89044861  0.37496500  0.91661495  1
  O  O262  1  0.88644460  0.86761738  0.40912389  1
  O  O263  1  0.89306827  0.86426733  0.91297148  1
  O  O264  1  0.07350925  0.38568301  0.42466538  1
  O  O265  1  0.05216080  0.38429952  0.91819943  1
  O  O266  1  0.04721343  0.88563304  0.40934501  1
  O  O267  1  0.06266107  0.86773511  0.91700123  1
  O  O268  1  0.39688975  0.39025993  0.41512018  1
  O  O269  1  0.40645714  0.39400493  0.92802132  1
  O  O270  1  0.40214748  0.89719385  0.42309112  1
  O  O271  1  0.39817714  0.86882545  0.91630358  1
  O  O272  1  0.71729843  0.38777163  0.41193786  1
  O  O273  1  0.72609444  0.38910556  0.91872900  1
  O  O274  1  0.72566375  0.87862849  0.41262185  1
  O  O275  1  0.72880938  0.89056553  0.91197939  1
  O  O276  1  0.20874069  0.13055505  0.42221177  1
  O  O277  1  0.23379708  0.13606169  0.92672032  1
  O  O278  1  0.23155391  0.62940216  0.41213468  1
  O  O279  1  0.21795946  0.63118882  0.91883749  1
  O  O280  1  0.56200510  0.13750014  0.41535765  1
  O  O281  1  0.55171509  0.12179837  0.92821758  1
  O  O282  1  0.56474184  0.62896258  0.41454090  1
  O  O283  1  0.56990572  0.65282645  0.92374708  1
  O  O284  1  0.88501383  0.12832387  0.41101640  1
  O  O285  1  0.88695127  0.13591420  0.91682927  1
  O  O286  1  0.89816115  0.62886156  0.41419755  1
  O  O287  1  0.89375382  0.62869599  0.91466816  1
  O  O288  1  0.17030388  0.00202609  0.08575698  1
  O  O289  1  0.17545706  0.00232714  0.56713155  1
  O  O290  1  0.19322219  0.49873285  0.08335928  1
  O  O291  1  0.17823000  0.49734620  0.58696183  1
  O  O292  1  0.51788151  0.00132017  0.08437414  1
  O  O293  1  0.48915815  0.01244768  0.57881058  1
  O  O294  1  0.49851168  0.48677941  0.07504462  1
  O  O295  1  0.51545494  0.49965378  0.58695671  1
  O  O296  1  0.85572168  0.01392267  0.07256411  1
  O  O297  1  0.81211428  -0.01216917  0.58112303  1
  O  O298  1  0.84810332  0.49988085  0.08361186  1
  O  O299  1  0.80376655  0.49725081  0.57132506  1
  O  O300  1  0.02402143  0.25596032  0.08660930  1
  O  O301  1  -0.00786207  0.26523097  0.58068284  1
  O  O302  1  0.02867125  0.74367943  0.08215045  1
  O  O303  1  -0.00305209  0.73359846  0.57662642  1
  O  O304  1  0.33988420  0.24477466  0.08671332  1
  O  O305  1  0.34820647  0.25608914  0.58936004  1
  O  O306  1  0.33393105  0.75938060  0.08484459  1
  O  O307  1  0.34162724  0.74002670  0.58551166  1
  O  O308  1  0.68133083  0.25116462  0.08553435  1
  O  O309  1  0.64692908  0.24672332  0.59157951  1
  O  O310  1  0.67913175  0.75080615  0.07683627  1
  O  O311  1  0.65577059  0.75392476  0.58804818  1
  O  O312  1  0.15356052  -0.00488164  0.41267983  1
  O  O313  1  0.14865200  -0.01203891  0.92874191  1
  O  O314  1  0.15557014  0.50613922  0.41875070  1
  O  O315  1  0.14438375  0.50155301  0.91775303  1
  O  O316  1  0.51071127  0.00275964  0.41136870  1
  O  O317  1  0.48442433  -0.00906030  0.91770401  1
  O  O318  1  0.50204214  0.49849554  0.41191302  1
  O  O319  1  0.51973843  0.49684127  0.92448163  1
  O  O320  1  0.81403025  -0.00208289  0.40984888  1
  O  O321  1  0.84169352  -0.00304934  0.91152121  1
  O  O322  1  0.81307792  0.50447202  0.41271771  1
  O  O323  1  0.82049803  0.50335253  0.91599031  1
  O  O324  1  0.32664879  0.26266610  0.42550516  1
  O  O325  1  0.34213468  0.24153872  0.92699037  1
  O  O326  1  0.33891149  0.73920748  0.42469119  1
  O  O327  1  0.31256027  0.74752847  0.91638691  1
  O  O328  1  0.66098565  0.25107718  0.41191394  1
  O  O329  1  0.67386092  0.25535510  0.92485912  1
  O  O330  1  0.65201888  0.75129163  0.41497895  1
  O  O331  1  0.67587538  0.75761088  0.91311131  1
  O  O332  1  0.99387152  0.23579715  0.42222794  1
  O  O333  1  0.97618689  0.25523734  0.91941095  1
  O  O334  1  0.98197082  0.75194339  0.41102200  1
  O  O335  1  0.98235988  0.74670195  0.91536559  1
  O  O336  1  0.20954960  0.08104429  0.19711147  1
  O  O337  1  0.21480003  0.08528034  0.70131702  1
  O  O338  1  0.21570147  0.57693949  0.19395329  1
  O  O339  1  0.21173444  0.58022541  0.69706057  1
  O  O340  1  0.54377268  0.08717023  0.19382922  1
  O  O341  1  0.54297703  0.08135077  0.69710887  1
  O  O342  1  0.52935591  0.58281368  0.19447606  1
  O  O343  1  0.54612779  0.58341534  0.69572407  1
  O  O344  1  0.87566324  0.08615887  0.19108836  1
  O  O345  1  0.87873664  0.08411961  0.70065190  1
  O  O346  1  0.87760399  0.58296245  0.19181269  1
  O  O347  1  0.87511499  0.58225414  0.69966662  1
  O  O348  1  0.04595239  0.33788316  0.19616761  1
  O  O349  1  0.04490918  0.33591382  0.69620720  1
  O  O350  1  0.04260041  0.83255972  0.18968546  1
  O  O351  1  0.04477247  0.83149884  0.70037373  1
  O  O352  1  0.37527481  0.33120544  0.19634461  1
  O  O353  1  0.38287011  0.33317645  0.70067291  1
  O  O354  1  0.37758470  0.83885042  0.19436971  1
  O  O355  1  0.38543508  0.83388327  0.68761237  1
  O  O356  1  0.71122820  0.33206436  0.19532712  1
  O  O357  1  0.70626140  0.33278696  0.69625100  1
  O  O358  1  0.70872734  0.83885130  0.18624534  1
  O  O359  1  0.71013538  0.83391921  0.69467145  1
  O  O360  1  0.21082523  0.41754993  0.19614923  1
  O  O361  1  0.20636629  0.41773774  0.69862638  1
  O  O362  1  0.20744912  0.92042091  0.19569884  1
  O  O363  1  0.20807753  0.91678741  0.69814458  1
  O  O364  1  0.54154943  0.41269732  0.19198362  1
  O  O365  1  0.54440141  0.41748619  0.69871437  1
  O  O366  1  0.54286111  0.91550557  0.19193305  1
  O  O367  1  0.54632478  0.91719317  0.69996706  1
  O  O368  1  0.87741342  0.41762516  0.19491482  1
  O  O369  1  0.87489580  0.41564049  0.70166309  1
  O  O370  1  0.87664650  0.91681215  0.19525870  1
  O  O371  1  0.87720299  0.91442474  0.69204804  1
  O  O372  1  0.03912926  0.17106804  0.19678633  1
  O  O373  1  0.04345763  0.16851772  0.70001914  1
  O  O374  1  0.03495753  0.66520321  0.19219996  1
  O  O375  1  0.04273820  0.66093422  0.69223734  1
  O  O376  1  0.37679196  0.16514061  0.19524083  1
  O  O377  1  0.37991258  0.17006154  0.69937004  1
  O  O378  1  0.37215703  0.67018022  0.19165101  1
  O  O379  1  0.38150341  0.65629014  0.69483902  1
  O  O380  1  0.70858070  0.16674295  0.19415727  1
  O  O381  1  0.71118834  0.16612047  0.69572836  1
  O  O382  1  0.71806828  0.67231421  0.18725170  1
  O  O383  1  0.70787648  0.66693979  0.69316023  1
  O  O384  1  0.11852545  0.08063634  0.30609372  1
  O  O385  1  0.11944057  0.08130418  0.80139881  1
  O  O386  1  0.11956389  0.57910823  0.30613583  1
  O  O387  1  0.11950307  0.58237799  0.80604031  1
  O  O388  1  0.45537741  0.08884612  0.30832244  1
  O  O389  1  0.45938311  0.08050903  0.80970914  1
  O  O390  1  0.45763843  0.58243952  0.30445148  1
  O  O391  1  0.45876549  0.58445936  0.80304927  1
  O  O392  1  0.78643354  0.08216078  0.30059604  1
  O  O393  1  0.78983298  0.08254852  0.80702352  1
  O  O394  1  0.79934905  0.58460262  0.30324219  1
  O  O395  1  0.78776326  0.58440118  0.80525818  1
  O  O396  1  0.29225850  0.33674783  0.30852557  1
  O  O397  1  0.28827816  0.33254521  0.80435543  1
  O  O398  1  0.28971310  0.83465557  0.30012085  1
  O  O399  1  0.28279825  0.83504604  0.80763065  1
  O  O400  1  0.62222730  0.33137992  0.30239550  1
  O  O401  1  0.62795083  0.33367748  0.81010970  1
  O  O402  1  0.62143858  0.83613811  0.30321101  1
  O  O403  1  0.62829452  0.83488148  0.80427320  1
  O  O404  1  0.95521102  0.33433497  0.30071941  1
  O  O405  1  0.95451570  0.33382484  0.80712623  1
  O  O406  1  0.95205435  0.83281489  0.30000106  1
  O  O407  1  0.95520316  0.83011500  0.80430908  1
  O  O408  1  0.12626705  0.41963201  0.30856470  1
  O  O409  1  0.12100726  0.41589679  0.81012091  1
  O  O410  1  0.11826434  0.91618188  0.30267528  1
  O  O411  1  0.12240336  0.91461334  0.81003748  1
  O  O412  1  0.45699871  0.41534798  0.30282588  1
  O  O413  1  0.46833790  0.41721085  0.81374479  1
  O  O414  1  0.45741213  0.91479287  0.30659054  1
  O  O415  1  0.46038387  0.91260905  0.80647464  1
  O  O416  1  0.78910011  0.41667089  0.30596889  1
  O  O417  1  0.78707308  0.41824659  0.80664484  1
  O  O418  1  0.78511117  0.91662137  0.30026365  1
  O  O419  1  0.79304254  0.91534941  0.80215563  1
  O  O420  1  0.29115093  0.16780504  0.30265568  1
  O  O421  1  0.29292497  0.16765273  0.81147233  1
  O  O422  1  0.30438378  0.66607410  0.30797280  1
  O  O423  1  0.28346980  0.65797081  0.80922351  1
  O  O424  1  0.62282758  0.16729796  0.30344281  1
  O  O425  1  0.62279474  0.16540138  0.80147674  1
  O  O426  1  0.61662435  0.67292107  0.30339831  1
  O  O427  1  0.62886879  0.66854241  0.80702333  1
  O  O428  1  0.95338269  0.16519075  0.30519986  1
  O  O429  1  0.95563720  0.17015322  0.80995226  1
  O  O430  1  0.95717077  0.66698209  0.30320748  1
  O  O431  1  0.95540596  0.66610582  0.80398740  1
  F  F432  1  0.04390293  0.00152225  0.19991420  1
  F  F433  1  0.04562864  -0.00248532  0.70154373  1
  F  F434  1  0.04599825  0.49896470  0.20208653  1
  F  F435  1  0.04796549  0.49832213  0.70643100  1
  F  F436  1  0.37396871  0.00250311  0.20446508  1
  F  F437  1  0.37968593  0.00409613  0.70522005  1
  F  F438  1  0.37673646  0.49744236  0.20204325  1
  F  F439  1  0.38019580  0.49779877  0.70512722  1
  F  F440  1  0.70968262  0.00174895  0.19606049  1
  F  F441  1  0.71298794  0.00113245  0.70404538  1
  F  F442  1  0.71760818  0.48830624  0.19599790  1
  F  F443  1  0.70932974  0.49994992  0.70341793  1
  F  F444  1  0.21363940  0.26000482  0.20032498  1
  F  F445  1  0.21306407  0.24925399  0.70564716  1
  F  F446  1  0.21504256  0.75951240  0.19573782  1
  F  F447  1  0.19850365  0.74637795  0.69894593  1
  F  F448  1  0.54421300  0.24848495  0.20045263  1
  F  F449  1  0.54420981  0.25400128  0.70741805  1
  F  F450  1  0.53699022  0.75388065  0.19537571  1
  F  F451  1  0.54795368  0.74678667  0.70233727  1
  F  F452  1  0.87711122  0.25006820  0.20148162  1
  F  F453  1  0.87853870  0.25048208  0.70466487  1
  F  F454  1  0.87991663  0.74970157  0.19667652  1
  F  F455  1  0.87920953  0.74806666  0.70084983  1
  F  F456  1  0.28629055  0.00007174  0.30173724  1
  F  F457  1  0.28720042  0.00518740  0.80760346  1
  F  F458  1  0.29038815  0.50044111  0.29930653  1
  F  F459  1  0.28604619  0.50211640  0.80510259  1
  F  F460  1  0.62674653  -0.00066244  0.29616306  1
  F  F461  1  0.62391941  -0.00026567  0.80077010  1
  F  F462  1  0.61676335  0.48885724  0.29938231  1
  F  F463  1  0.62409015  0.50152300  0.79938335  1
  F  F464  1  0.95107967  0.00155518  0.29419362  1
  F  F465  1  0.95562606  -0.00448757  0.79778353  1
  F  F466  1  0.95426370  0.50112093  0.29705174  1
  F  F467  1  0.95483668  0.50019190  0.80189549  1
  F  F468  1  0.11986009  0.25688091  0.30225171  1
  F  F469  1  0.12079173  0.25247113  0.80155398  1
  F  F470  1  0.11371300  0.75953331  0.29888817  1
  F  F471  1  0.11823282  0.74335264  0.80109145  1
  F  F472  1  0.45562420  0.25080873  0.29711897  1
  F  F473  1  0.45782158  0.24872776  0.80448037  1
  F  F474  1  0.45462145  0.75112997  0.29493720  1
  F  F475  1  0.46959045  0.75121345  0.80240822  1
  F  F476  1  0.78642496  0.24888455  0.29726997  1
  F  F477  1  0.78841071  0.25069145  0.79877197  1
  F  F478  1  0.79333359  0.75228968  0.29549680  1
  F  F479  1  0.78956957  0.74942149  0.79544108  1
