# generated using pymatgen
data_K24Na3Li5Mg64Fe17Si79(O5F)48
_symmetry_space_group_name_H-M   'P 1'
_cell_length_a   16.09153580
_cell_length_b   18.58208067
_cell_length_c   20.54499402
_cell_angle_alpha   89.98837778
_cell_angle_beta   99.99478763
_cell_angle_gamma   90.03291038
_symmetry_Int_Tables_number   1
_chemical_formula_structural   K24Na3Li5Mg64Fe17Si79(O5F)48
_chemical_formula_sum   'K24 Na3 Li5 Mg64 Fe17 Si79 O240 F48'
_cell_volume   6050.01157553
_cell_formula_units_Z   1
loop_
 _symmetry_equiv_pos_site_id
 _symmetry_equiv_pos_as_xyz
  1  'x, y, z'
loop_
 _atom_site_type_symbol
 _atom_site_label
 _atom_site_symmetry_multiplicity
 _atom_site_fract_x
 _atom_site_fract_y
 _atom_site_fract_z
 _atom_site_occupancy
  K  K0  1  0.00839955  0.00818612  -0.00565549  1
  K  K1  1  0.00360246  -0.00366314  0.50269981  1
  K  K2  1  0.00017853  0.49883775  0.00028259  1
  K  K3  1  0.00498211  0.50027108  0.50062187  1
  K  K4  1  0.33559609  -0.00887195  -0.00637523  1
  K  K5  1  0.33800225  -0.00336857  0.50301436  1
  K  K6  1  0.34325716  0.49524526  0.00501307  1
  K  K7  1  0.33672313  0.49657002  0.50058018  1
  K  K8  1  0.64653671  -0.00250685  -0.00982135  1
  K  K9  1  0.65155199  0.00217018  0.50451969  1
  K  K10  1  0.65330278  0.49167129  -0.00137694  1
  K  K11  1  0.65830584  0.49260841  0.49799056  1
  K  K12  1  0.17341654  0.25234104  0.00051059  1
  K  K13  1  0.16893263  0.25259651  0.50418733  1
  K  K14  1  0.17608111  0.74953715  -0.00065821  1
  K  K15  1  0.16175928  0.75179197  0.50347955  1
  K  K16  1  0.49454636  0.25333933  -0.00458388  1
  K  K17  1  0.50572770  0.24769053  0.50407251  1
  K  K18  1  0.48500511  0.75447349  -0.00962849  1
  K  K19  1  0.49705286  0.75525052  0.50523463  1
  K  K20  1  0.82775971  0.25457085  -0.00327133  1
  K  K21  1  0.81925981  0.25805318  0.50381633  1
  K  K22  1  0.82954119  0.74848398  0.00002838  1
  K  K23  1  0.83982884  0.74620192  0.50012865  1
  Na  Na24  1  0.33541198  0.24850070  0.24181791  1
  Na  Na25  1  0.50120063  0.17244293  0.75161865  1
  Na  Na26  1  0.16261848  0.33155157  0.74357940  1
  Li  Li27  1  0.83447864  0.49826309  0.25287471  1
  Li  Li28  1  0.34128496  0.75252566  0.74670933  1
  Li  Li29  1  0.33427352  0.91720884  0.24978883  1
  Li  Li30  1  0.50245996  0.33011973  0.75389019  1
  Li  Li31  1  0.48722083  0.83503176  0.74620649  1
  Mg  Mg32  1  0.33565152  0.25380035  0.75002968  1
  Mg  Mg33  1  0.33261207  0.75343163  0.24847474  1
  Mg  Mg34  1  0.49846437  -0.00150238  0.24918459  1
  Mg  Mg35  1  -0.00308195  0.24984755  0.74699321  1
  Mg  Mg36  1  -0.00155573  0.74997061  0.25286258  1
  Mg  Mg37  1  0.50003278  0.50101727  0.75127926  1
  Mg  Mg38  1  0.16712411  0.49969865  0.24742406  1
  Mg  Mg39  1  0.16668466  0.00019846  0.75208722  1
  Mg  Mg40  1  0.66774388  0.74911396  0.25535209  1
  Mg  Mg41  1  0.00318978  0.75028061  0.74945807  1
  Mg  Mg42  1  0.83617415  -0.00115191  0.25467715  1
  Mg  Mg43  1  0.66397426  0.75247222  0.75088007  1
  Mg  Mg44  1  0.66804381  0.25095373  0.25096538  1
  Mg  Mg45  1  0.49647657  -0.00217708  0.74891068  1
  Mg  Mg46  1  0.83160448  -0.00051626  0.75067775  1
  Mg  Mg47  1  0.16635396  0.49837877  0.74467887  1
  Mg  Mg48  1  0.66263779  0.25016709  0.75000834  1
  Mg  Mg49  1  0.00334597  0.25108639  0.25102969  1
  Mg  Mg50  1  0.17137423  -0.00082162  0.24760969  1
  Mg  Mg51  1  0.83235136  0.50057389  0.74889770  1
  Mg  Mg52  1  0.50084043  0.49764545  0.24902992  1
  Mg  Mg53  1  0.50087385  0.66550968  0.25029912  1
  Mg  Mg54  1  0.50041522  0.16525023  0.24684144  1
  Mg  Mg55  1  0.33133586  0.58515399  0.24710997  1
  Mg  Mg56  1  0.00146644  0.91524538  0.25368075  1
  Mg  Mg57  1  0.33441583  0.91232383  0.74988035  1
  Mg  Mg58  1  0.66899226  0.08322464  0.25058383  1
  Mg  Mg59  1  0.33282916  0.07943387  0.24451481  1
  Mg  Mg60  1  0.17135251  0.16550154  0.24498882  1
  Mg  Mg61  1  0.83440227  0.66689413  0.74930853  1
  Mg  Mg62  1  0.82786230  0.16551469  0.74972238  1
  Mg  Mg63  1  0.16978052  0.83442094  0.75215484  1
  Mg  Mg64  1  0.83699701  0.16643544  0.25192503  1
  Mg  Mg65  1  0.83552576  0.66279443  0.25374017  1
  Mg  Mg66  1  0.66257990  0.41469537  0.75200078  1
  Mg  Mg67  1  0.83279607  0.83403841  0.75189478  1
  Mg  Mg68  1  0.66010328  0.91457594  0.75195663  1
  Mg  Mg69  1  -0.00013684  0.58203100  0.25269072  1
  Mg  Mg70  1  0.49613814  0.67259889  0.74891379  1
  Mg  Mg71  1  0.33541034  0.08554627  0.75166125  1
  Mg  Mg72  1  -0.00101591  0.08465069  0.75000517  1
  Mg  Mg73  1  0.83518583  0.33630036  0.25291933  1
  Mg  Mg74  1  0.16641696  0.16854980  0.74913787  1
  Mg  Mg75  1  0.66058965  0.08419847  0.74844551  1
  Mg  Mg76  1  0.83038273  0.33480375  0.74822107  1
  Mg  Mg77  1  0.66812056  0.41620751  0.24965490  1
  Mg  Mg78  1  0.50060249  0.83423891  0.25324461  1
  Mg  Mg79  1  0.66773712  0.91418209  0.25606418  1
  Mg  Mg80  1  0.16825679  0.66705367  0.74558296  1
  Mg  Mg81  1  0.66494089  0.58538496  0.74987807  1
  Mg  Mg82  1  0.33353603  0.41450213  0.24714889  1
  Mg  Mg83  1  0.66991025  0.58102835  0.25088619  1
  Mg  Mg84  1  0.33204198  0.58621757  0.74582925  1
  Mg  Mg85  1  -0.00188371  0.41569087  0.74561573  1
  Mg  Mg86  1  0.00208670  0.91611671  0.75192068  1
  Mg  Mg87  1  0.16611723  0.66559756  0.24855403  1
  Mg  Mg88  1  0.00467536  0.08447834  0.24986963  1
  Mg  Mg89  1  0.16814909  0.33486715  0.24817541  1
  Mg  Mg90  1  0.16650941  0.83492582  0.25011531  1
  Mg  Mg91  1  0.33548242  0.41662617  0.74859818  1
  Mg  Mg92  1  0.00123852  0.58494830  0.74715615  1
  Mg  Mg93  1  0.83554048  0.83348902  0.25610418  1
  Mg  Mg94  1  0.00113131  0.41788800  0.25301086  1
  Mg  Mg95  1  0.50185592  0.33397732  0.24779127  1
  Fe  Fe96  1  0.18768701  0.58686373  0.10749108  1
  Fe  Fe97  1  0.52890702  0.41760695  0.10765821  1
  Fe  Fe98  1  0.68881226  0.16722530  0.60993139  1
  Fe  Fe99  1  0.36246438  0.15558498  0.10273977  1
  Fe  Fe100  1  0.97579822  0.83369245  0.39378743  1
  Fe  Fe101  1  0.52004438  0.91348827  0.61068366  1
  Fe  Fe102  1  0.64199771  0.33108287  0.89264744  1
  Fe  Fe103  1  0.01611951  0.33056000  0.60514839  1
  Fe  Fe104  1  0.47269828  0.91399100  0.88994683  1
  Fe  Fe105  1  0.18840857  0.07633152  0.10346591  1
  Fe  Fe106  1  0.35472398  0.33386024  0.10385629  1
  Fe  Fe107  1  0.35773942  0.66590688  0.60882880  1
  Fe  Fe108  1  0.63797772  0.33346746  0.38995023  1
  Fe  Fe109  1  0.14409227  0.41579099  0.38955217  1
  Fe  Fe110  1  0.14067076  0.92015202  0.89164942  1
  Fe  Fe111  1  0.02820278  0.66783766  0.60839612  1
  Fe  Fe112  1  0.64015557  0.83148759  0.39465314  1
  Si  Si113  1  0.97790883  0.66202381  0.38891176  1
  Si  Si114  1  0.13691399  0.41661794  0.88265197  1
  Si  Si115  1  0.30348549  0.82741822  0.89011045  1
  Si  Si116  1  0.52908534  0.59045716  0.11331150  1
  Si  Si117  1  0.85172850  0.42230316  0.61152778  1
  Si  Si118  1  0.80616556  0.91988666  0.39269455  1
  Si  Si119  1  0.47147792  0.58499491  0.38482341  1
  Si  Si120  1  0.30432478  0.66041887  0.88316426  1
  Si  Si121  1  0.81112691  0.42024907  0.88829624  1
  Si  Si122  1  0.52813579  0.91438901  0.11632337  1
  Si  Si123  1  0.46720082  0.41896710  0.38815987  1
  Si  Si124  1  0.81047202  0.58516362  0.88558254  1
  Si  Si125  1  0.80790096  0.41463011  0.38729906  1
  Si  Si126  1  0.30624417  0.33011817  0.38522410  1
  Si  Si127  1  0.69478660  0.83226295  0.61499197  1
  Si  Si128  1  0.97955467  0.16685719  0.38632476  1
  Si  Si129  1  0.97273735  0.33260875  0.38839269  1
  Si  Si130  1  0.64600702  0.83088654  0.89054239  1
  Si  Si131  1  0.14323599  0.09235847  0.88655220  1
  Si  Si132  1  0.14311802  0.92197104  0.38783597  1
  Si  Si133  1  0.85917677  0.58030043  0.11754414  1
  Si  Si134  1  0.19404398  0.41418251  0.61092734  1
  Si  Si135  1  0.69828793  0.66806710  0.11739445  1
  Si  Si136  1  0.19164592  0.08763225  0.61538793  1
  Si  Si137  1  0.47025555  0.91562811  0.38688442  1
  Si  Si138  1  0.02364607  0.33242638  0.11527168  1
  Si  Si139  1  0.36297055  0.67112053  0.11212265  1
  Si  Si140  1  0.81042886  0.07783647  0.88749544  1
  Si  Si141  1  0.47096944  0.42143584  0.88695617  1
  Si  Si142  1  0.53817948  0.08043806  0.11197398  1
  Si  Si143  1  0.36091036  0.33690166  0.61446841  1
  Si  Si144  1  0.51677020  0.08201250  0.61002492  1
  Si  Si145  1  0.35469773  0.17150904  0.61528928  1
  Si  Si146  1  0.47612166  0.08005499  0.38425318  1
  Si  Si147  1  0.30841435  0.67333874  0.38422043  1
  Si  Si148  1  0.52497338  0.42162298  0.61685107  1
  Si  Si149  1  0.01917442  0.83042760  0.11606132  1
  Si  Si150  1  0.52969462  0.58596481  0.61324639  1
  Si  Si151  1  0.97080790  0.16818838  0.88421975  1
  Si  Si152  1  0.18262710  0.90809806  0.11229345  1
  Si  Si153  1  0.01762762  0.66867869  0.11354755  1
  Si  Si154  1  0.70155702  0.33125589  0.11371538  1
  Si  Si155  1  0.18434761  0.41743879  0.10825118  1
  Si  Si156  1  0.47250720  0.08403155  0.88838497  1
  Si  Si157  1  0.97631376  0.66693065  0.88557057  1
  Si  Si158  1  0.13986996  0.57947767  0.88454382  1
  Si  Si159  1  0.69437365  0.66733820  0.61656937  1
  Si  Si160  1  0.30958506  0.17463083  0.88474314  1
  Si  Si161  1  0.01933622  0.15992990  0.61156053  1
  Si  Si162  1  0.47573656  0.58602635  0.88533162  1
  Si  Si163  1  0.97238349  0.83204445  0.88855940  1
  Si  Si164  1  0.30383299  0.83664250  0.38312305  1
  Si  Si165  1  0.85829359  0.91485118  0.61764212  1
  Si  Si166  1  0.68807866  0.33811489  0.61357353  1
  Si  Si167  1  0.19210551  0.92234637  0.61478174  1
  Si  Si168  1  0.64449659  0.16133254  0.38667361  1
  Si  Si169  1  0.97222163  0.33386093  0.88424502  1
  Si  Si170  1  0.19385730  0.57677301  0.60733730  1
  Si  Si171  1  0.81135202  0.57834911  0.38561906  1
  Si  Si172  1  0.86424668  0.41545551  0.11779718  1
  Si  Si173  1  0.02498798  0.83944546  0.61380971  1
  Si  Si174  1  0.64385381  0.66601307  0.88662628  1
  Si  Si175  1  0.70114669  0.16540132  0.11641255  1
  Si  Si176  1  0.85887109  0.91945388  0.11685616  1
  Si  Si177  1  0.85786916  0.07854927  0.61376440  1
  Si  Si178  1  0.34719127  0.83217005  0.60863424  1
  Si  Si179  1  0.64709865  0.16103965  0.89033353  1
  Si  Si180  1  0.64590111  0.65893809  0.38936457  1
  Si  Si181  1  0.14692862  0.58514829  0.38662450  1
  Si  Si182  1  0.81398426  0.08357404  0.38671416  1
  Si  Si183  1  0.31252095  0.16503529  0.38240336  1
  Si  Si184  1  0.86416275  0.08351769  0.11637924  1
  Si  Si185  1  0.80786991  0.91304097  0.88744361  1
  Si  Si186  1  0.02500992  0.16927265  0.11195908  1
  Si  Si187  1  0.85613945  0.58506045  0.61291355  1
  Si  Si188  1  0.14733932  0.08698340  0.38500026  1
  Si  Si189  1  0.69604202  0.83306037  0.11792954  1
  Si  Si190  1  0.30687118  0.33962563  0.88234000  1
  Si  Si191  1  0.35847549  0.83637170  0.11645247  1
  O  O192  1  0.28161322  0.08938312  0.06499746  1
  O  O193  1  0.26719970  0.12670878  0.58333545  1
  O  O194  1  0.28494094  0.62227784  0.07629479  1
  O  O195  1  0.27963842  0.59278380  0.57853089  1
  O  O196  1  0.62636044  0.10867991  0.08763914  1
  O  O197  1  0.59172470  0.11570727  0.57454499  1
  O  O198  1  0.61023276  0.62855715  0.08616358  1
  O  O199  1  0.61886964  0.61064511  0.58812511  1
  O  O200  1  0.94353353  0.11506559  0.08540995  1
  O  O201  1  0.94794024  0.09619862  0.58830548  1
  O  O202  1  0.93670595  0.61507785  0.08456606  1
  O  O203  1  0.93369186  0.60836250  0.57741295  1
  O  O204  1  0.10598831  0.35779754  0.08484017  1
  O  O205  1  0.12008658  0.35764584  0.58147415  1
  O  O206  1  0.10448632  0.84898598  0.08604370  1
  O  O207  1  0.10384407  0.87920739  0.58599808  1
  O  O208  1  0.44242245  0.36398283  0.06201096  1
  O  O209  1  0.44237003  0.37180295  0.58607116  1
  O  O210  1  0.43685364  0.87616799  0.08700000  1
  O  O211  1  0.42671208  0.85680288  0.57395044  1
  O  O212  1  0.78851186  0.35921084  0.08754232  1
  O  O213  1  0.76787028  0.37345503  0.58390518  1
  O  O214  1  0.77159037  0.87493357  0.08740851  1
  O  O215  1  0.78426569  0.85620354  0.59011757  1
  O  O216  1  0.26112172  0.39506358  0.07143820  1
  O  O217  1  0.27968378  0.38705101  0.58200350  1
  O  O218  1  0.26911409  0.87716478  0.08730232  1
  O  O219  1  0.26751289  0.88959001  0.58037853  1
  O  O220  1  0.62714756  0.38213942  0.07814699  1
  O  O221  1  0.60623447  0.39054624  0.58700878  1
  O  O222  1  0.60425134  0.86972771  0.08845267  1
  O  O223  1  0.62017122  0.88320866  0.57956522  1
  O  O224  1  0.94631083  0.38841750  0.08568055  1
  O  O225  1  0.92771869  0.39727889  0.57463187  1
  O  O226  1  0.93929023  0.88507420  0.08752756  1
  O  O227  1  0.94343334  0.89331167  0.58865550  1
  O  O228  1  0.09985838  0.14478455  0.07444865  1
  O  O229  1  0.10500312  0.13147334  0.58459822  1
  O  O230  1  0.09545926  0.64967917  0.07670639  1
  O  O231  1  0.11904985  0.63114136  0.57332978  1
  O  O232  1  0.46444065  0.12896878  0.07239538  1
  O  O233  1  0.43283736  0.13535662  0.58591005  1
  O  O234  1  0.45026708  0.64584053  0.08682307  1
  O  O235  1  0.45791207  0.63935461  0.57649995  1
  O  O236  1  0.78414265  0.13542479  0.08756390  1
  O  O237  1  0.78545401  0.13196235  0.57781105  1
  O  O238  1  0.77419495  0.62768752  0.08704323  1
  O  O239  1  0.77790734  0.64148844  0.58723322  1
  O  O240  1  0.06522884  0.11947493  0.41505706  1
  O  O241  1  0.06187100  0.13126627  0.91329712  1
  O  O242  1  0.06058658  0.61038349  0.41414167  1
  O  O243  1  0.06209560  0.62055048  0.91378182  1
  O  O244  1  0.39668381  0.11684300  0.41352961  1
  O  O245  1  0.39679062  0.13184216  0.91494855  1
  O  O246  1  0.39459701  0.62719347  0.41309903  1
  O  O247  1  0.39647122  0.62320160  0.91420442  1
  O  O248  1  0.73047963  0.11231159  0.41412018  1
  O  O249  1  0.73037937  0.10740808  0.91946545  1
  O  O250  1  0.72755052  0.60505096  0.41602388  1
  O  O251  1  0.72988940  0.61832488  0.91566533  1
  O  O252  1  0.22876173  0.34907670  0.42334461  1
  O  O253  1  0.22411429  0.37273229  0.91014675  1
  O  O254  1  0.22398367  0.86874559  0.41452906  1
  O  O255  1  0.22856020  0.85886167  0.92673208  1
  O  O256  1  0.54949357  0.37647274  0.42553477  1
  O  O257  1  0.55026809  0.37474811  0.92343744  1
  O  O258  1  0.54234214  0.86236466  0.42494846  1
  O  O259  1  0.57248320  0.86229470  0.92619764  1
  O  O260  1  0.88580216  0.35774583  0.41399040  1
  O  O261  1  0.90089581  0.37753893  0.91667307  1
  O  O262  1  0.88026359  0.86566243  0.42644993  1
  O  O263  1  0.88563094  0.85789135  0.91524998  1
  O  O264  1  0.04746096  0.38478631  0.42280902  1
  O  O265  1  0.06289391  0.37254212  0.91342126  1
  O  O266  1  0.06592758  0.89755604  0.42371562  1
  O  O267  1  0.04597902  0.88373425  0.92465182  1
  O  O268  1  0.38548915  0.38410883  0.41537917  1
  O  O269  1  0.38561399  0.39193378  0.91401594  1
  O  O270  1  0.38173806  0.89071632  0.41104172  1
  O  O271  1  0.39118517  0.86345317  0.92714470  1
  O  O272  1  0.73131689  0.39208635  0.42475178  1
  O  O273  1  0.73965173  0.38834711  0.92591667  1
  O  O274  1  0.72065953  0.90421816  0.42181326  1
  O  O275  1  0.73083456  0.88051042  0.92124575  1
  O  O276  1  0.23057392  0.13596495  0.41539704  1
  O  O277  1  0.22654991  0.14318021  0.91259214  1
  O  O278  1  0.22487467  0.64342852  0.41180951  1
  O  O279  1  0.22986800  0.61820694  0.91570328  1
  O  O280  1  0.56476676  0.12190133  0.41391744  1
  O  O281  1  0.56383372  0.12545179  0.91544868  1
  O  O282  1  0.56244719  0.62310567  0.41520062  1
  O  O283  1  0.56363838  0.63103836  0.91612745  1
  O  O284  1  0.89805160  0.13302125  0.41466049  1
  O  O285  1  0.89658939  0.12550857  0.91611440  1
  O  O286  1  0.89410845  0.62843434  0.41536928  1
  O  O287  1  0.89539273  0.63291505  0.91542435  1
  O  O288  1  0.15065371  -0.01789249  0.07573710  1
  O  O289  1  0.17828496  0.00536221  0.58548804  1
  O  O290  1  0.14743422  0.49526829  0.07933106  1
  O  O291  1  0.16483039  0.49432572  0.58066921  1
  O  O292  1  0.52886931  -0.00459650  0.08562559  1
  O  O293  1  0.49074282  0.00503820  0.57440037  1
  O  O294  1  0.51218143  0.51463619  0.07601445  1
  O  O295  1  0.50907403  0.50312695  0.58454138  1
  O  O296  1  0.84511219  0.00148151  0.08714397  1
  O  O297  1  0.83091718  -0.00472020  0.58892500  1
  O  O298  1  0.84276571  0.49771803  0.08853341  1
  O  O299  1  0.82182963  0.50481611  0.58771854  1
  O  O300  1  -0.00633186  0.25168434  0.08693603  1
  O  O301  1  -0.01152157  0.23441994  0.57472305  1
  O  O302  1  -0.01599554  0.75081665  0.08926911  1
  O  O303  1  0.00525663  0.76309673  0.57706207  1
  O  O304  1  0.32259538  0.24408100  0.06991815  1
  O  O305  1  0.34457656  0.25424850  0.58418781  1
  O  O306  1  0.34891427  0.75490760  0.08421144  1
  O  O307  1  0.31446050  0.75493915  0.57578398  1
  O  O308  1  0.68542976  0.24692023  0.08693054  1
  O  O309  1  0.66941287  0.26143205  0.57746621  1
  O  O310  1  0.69548397  0.75094016  0.08812018  1
  O  O311  1  0.67360089  0.74880819  0.58808366  1
  O  O312  1  0.16809319  0.00523418  0.41410521  1
  O  O313  1  0.15783093  0.01549281  0.92284394  1
  O  O314  1  0.17723590  0.50918568  0.42041977  1
  O  O315  1  0.14260757  0.49785376  0.91620227  1
  O  O316  1  0.48679453  -0.00126158  0.41558652  1
  O  O317  1  0.47965134  0.00792822  0.92780005  1
  O  O318  1  0.47354900  0.50370636  0.41568570  1
  O  O319  1  0.48652554  0.50518133  0.91725349  1
  O  O320  1  0.83832840  0.00308716  0.41553931  1
  O  O321  1  0.83045584  -0.00490487  0.91664794  1
  O  O322  1  0.83738682  0.49714254  0.41310537  1
  O  O323  1  0.83052184  0.50432129  0.91512112  1
  O  O324  1  0.33598607  0.24692784  0.40910607  1
  O  O325  1  0.32153114  0.25763868  0.91298717  1
  O  O326  1  0.32555676  0.75524251  0.41398487  1
  O  O327  1  0.30988556  0.74116158  0.91413088  1
  O  O328  1  0.65972118  0.23859131  0.42225887  1
  O  O329  1  0.66676820  0.23730075  0.92819357  1
  O  O330  1  0.66770603  0.73598335  0.42487185  1
  O  O331  1  0.66529475  0.74645256  0.91856088  1
  O  O332  1  0.99397459  0.24865652  0.41497492  1
  O  O333  1  0.97330544  0.25097330  0.91327690  1
  O  O334  1  0.99879413  0.73913121  0.42406461  1
  O  O335  1  0.98946854  0.74828282  0.91617634  1
  O  O336  1  0.20889905  0.08093677  0.19594846  1
  O  O337  1  0.20813051  0.08465942  0.69566910  1
  O  O338  1  0.21042419  0.58569544  0.19928274  1
  O  O339  1  0.20688777  0.58201118  0.68910456  1
  O  O340  1  0.55086570  0.08047080  0.19298226  1
  O  O341  1  0.54291794  0.07652751  0.69023419  1
  O  O342  1  0.54606293  0.58641773  0.19451765  1
  O  O343  1  0.54522510  0.58566314  0.69434656  1
  O  O344  1  0.88035802  0.08255609  0.19700700  1
  O  O345  1  0.87456412  0.08152292  0.69513279  1
  O  O346  1  0.87914911  0.58549586  0.19687431  1
  O  O347  1  0.87602540  0.58555225  0.69442580  1
  O  O348  1  0.04032789  0.33287564  0.19554110  1
  O  O349  1  0.02733624  0.33182215  0.69508081  1
  O  O350  1  0.04000369  0.83317884  0.19640853  1
  O  O351  1  0.04141133  0.83474960  0.69457597  1
  O  O352  1  0.38542214  0.34339714  0.19465299  1
  O  O353  1  0.37424329  0.33574732  0.69369974  1
  O  O354  1  0.38018832  0.83193136  0.19602838  1
  O  O355  1  0.36594812  0.83540573  0.68849031  1
  O  O356  1  0.71676430  0.33125022  0.19440416  1
  O  O357  1  0.71116951  0.33709201  0.69424798  1
  O  O358  1  0.71468065  0.83357298  0.19815951  1
  O  O359  1  0.71203738  0.83287052  0.69620896  1
  O  O360  1  0.20843994  0.41716213  0.18966963  1
  O  O361  1  0.21557013  0.42253194  0.69050516  1
  O  O362  1  0.19949341  0.91302289  0.19229290  1
  O  O363  1  0.20977058  0.91973600  0.69495041  1
  O  O364  1  0.54753773  0.41928115  0.19969046  1
  O  O365  1  0.54471975  0.42481956  0.69616061  1
  O  O366  1  0.54626443  0.91504127  0.19645954  1
  O  O367  1  0.54521623  0.91591922  0.70091224  1
  O  O368  1  0.88171420  0.41381953  0.19738540  1
  O  O369  1  0.87236560  0.41940902  0.69303701  1
  O  O370  1  0.87597827  0.91838440  0.19720683  1
  O  O371  1  0.87698624  0.91572347  0.69857855  1
  O  O372  1  0.04224372  0.16628933  0.19311620  1
  O  O373  1  0.03911899  0.16440505  0.69264171  1
  O  O374  1  0.03935784  0.66679240  0.19457568  1
  O  O375  1  0.04424747  0.66740318  0.70034302  1
  O  O376  1  0.38610985  0.15339246  0.19396935  1
  O  O377  1  0.36669661  0.16878460  0.69436114  1
  O  O378  1  0.37723831  0.66902302  0.19331271  1
  O  O379  1  0.37911321  0.66532443  0.69930682  1
  O  O380  1  0.71674456  0.16502798  0.19707924  1
  O  O381  1  0.71022793  0.16521941  0.70157272  1
  O  O382  1  0.71324517  0.66763208  0.19770484  1
  O  O383  1  0.71223453  0.66710308  0.69730998  1
  O  O384  1  0.12421214  0.08514740  0.30488116  1
  O  O385  1  0.12225646  0.08611577  0.80556733  1
  O  O386  1  0.12473531  0.58518210  0.30559508  1
  O  O387  1  0.12228553  0.58113899  0.80443012  1
  O  O388  1  0.46020874  0.08036212  0.30425000  1
  O  O389  1  0.45245667  0.07744763  0.80873134  1
  O  O390  1  0.45572544  0.58522009  0.30417384  1
  O  O391  1  0.46024759  0.58556145  0.80552602  1
  O  O392  1  0.79514569  0.08363015  0.30579333  1
  O  O393  1  0.79323009  0.07959457  0.80751648  1
  O  O394  1  0.78974322  0.58455785  0.30604463  1
  O  O395  1  0.79161768  0.58553916  0.80525351  1
  O  O396  1  0.28481463  0.33890900  0.30564178  1
  O  O397  1  0.29406163  0.33722530  0.80333139  1
  O  O398  1  0.28518029  0.83138676  0.30353906  1
  O  O399  1  0.28573908  0.83668940  0.81013483  1
  O  O400  1  0.62496042  0.33250389  0.29881657  1
  O  O401  1  0.62808843  0.33324460  0.80264790  1
  O  O402  1  0.62343129  0.83123980  0.30235233  1
  O  O403  1  0.63603758  0.83122445  0.81124381  1
  O  O404  1  0.95816350  0.33189218  0.30728066  1
  O  O405  1  0.95199671  0.33449504  0.80429227  1
  O  O406  1  0.95572291  0.83380827  0.30160639  1
  O  O407  1  0.95652030  0.83253177  0.80747447  1
  O  O408  1  0.12251532  0.41725650  0.29771441  1
  O  O409  1  0.11546545  0.42382845  0.80366733  1
  O  O410  1  0.12326612  0.91856240  0.30685152  1
  O  O411  1  0.12074451  0.91769172  0.79982153  1
  O  O412  1  0.45557733  0.41946055  0.30781519  1
  O  O413  1  0.45477116  0.42478009  0.80726593  1
  O  O414  1  0.46299142  0.91566842  0.30718481  1
  O  O415  1  0.45111225  0.91794926  0.80020722  1
  O  O416  1  0.78806717  0.41288600  0.30698055  1
  O  O417  1  0.79217816  0.41918273  0.80734938  1
  O  O418  1  0.79187858  0.91706629  0.31047841  1
  O  O419  1  0.79025690  0.91541169  0.80712541  1
  O  O420  1  0.28823271  0.15826205  0.30372159  1
  O  O421  1  0.28949454  0.16942759  0.80469184  1
  O  O422  1  0.29173775  0.67053270  0.30378352  1
  O  O423  1  0.28339499  0.65815527  0.80405349  1
  O  O424  1  0.62831523  0.16311838  0.30563701  1
  O  O425  1  0.63585912  0.16466021  0.81088753  1
  O  O426  1  0.62582143  0.66338355  0.30807222  1
  O  O427  1  0.62655215  0.66636772  0.80659114  1
  O  O428  1  0.96062875  0.16552722  0.30560663  1
  O  O429  1  0.95144834  0.16593729  0.80389195  1
  O  O430  1  0.95821926  0.66566636  0.30766312  1
  O  O431  1  0.95574083  0.66639025  0.80544345  1
  F  F432  1  0.04354064  -0.00107207  0.20376117  1
  F  F433  1  0.04337253  0.00216884  0.70239863  1
  F  F434  1  0.04275421  0.50273297  0.20069245  1
  F  F435  1  0.04251976  0.50111451  0.69893537  1
  F  F436  1  0.38294893  -0.00386832  0.20004937  1
  F  F437  1  0.37300794  0.00306744  0.70024821  1
  F  F438  1  0.38019530  0.50368904  0.20153570  1
  F  F439  1  0.38084277  0.50182091  0.70204152  1
  F  F440  1  0.71629972  -0.00264272  0.20545323  1
  F  F441  1  0.71233049  -0.00209427  0.70497017  1
  F  F442  1  0.71033415  0.50038531  0.20195777  1
  F  F443  1  0.71172826  0.50147862  0.70505459  1
  F  F444  1  0.19763429  0.25139385  0.19662066  1
  F  F445  1  0.21504514  0.24104689  0.69735429  1
  F  F446  1  0.21018327  0.75032838  0.20078929  1
  F  F447  1  0.20265795  0.75248498  0.70100225  1
  F  F448  1  0.55183482  0.24495170  0.19813452  1
  F  F449  1  0.55213745  0.25668746  0.69402145  1
  F  F450  1  0.54761228  0.74811535  0.20333559  1
  F  F451  1  0.55132505  0.74590887  0.69984356  1
  F  F452  1  0.88126695  0.24902445  0.20464044  1
  F  F453  1  0.87383255  0.24881249  0.70205087  1
  F  F454  1  0.87588079  0.74842866  0.20404560  1
  F  F455  1  0.87964562  0.75134984  0.70378405  1
  F  F456  1  0.28844765  -0.00134286  0.29703767  1
  F  F457  1  0.28588478  0.00230578  0.79829937  1
  F  F458  1  0.28967192  0.50034572  0.29562309  1
  F  F459  1  0.28638271  0.50173963  0.79528393  1
  F  F460  1  0.62273855  0.00057018  0.29793640  1
  F  F461  1  0.62294309  0.00139986  0.80108417  1
  F  F462  1  0.62157230  0.50273191  0.30045194  1
  F  F463  1  0.62347527  0.50365116  0.80071449  1
  F  F464  1  0.95730569  0.00168665  0.30034242  1
  F  F465  1  0.95410201  0.00066493  0.79907126  1
  F  F466  1  0.95984138  0.50040086  0.30102921  1
  F  F467  1  0.95309149  0.50151682  0.79587129  1
  F  F468  1  0.12197344  0.24748897  0.29796091  1
  F  F469  1  0.11213975  0.24043974  0.80043013  1
  F  F470  1  0.12094558  0.74984399  0.29675946  1
  F  F471  1  0.12077332  0.75068094  0.80117192  1
  F  F472  1  0.47194940  0.24864505  0.29947180  1
  F  F473  1  0.44788989  0.25854399  0.80504998  1
  F  F474  1  0.45469695  0.74830649  0.29824528  1
  F  F475  1  0.46106396  0.75013556  0.80219491  1
  F  F476  1  0.79142927  0.24828230  0.29942646  1
  F  F477  1  0.79089908  0.25249346  0.79958904  1
  F  F478  1  0.78981117  0.74853457  0.30133362  1
  F  F479  1  0.78994044  0.74885380  0.79917691  1
