# generated using pymatgen
data_K24Na3Li5Mg64Fe17Si79(O5F)48
_symmetry_space_group_name_H-M   'P 1'
_cell_length_a   16.10100041
_cell_length_b   18.61061427
_cell_length_c   20.57227816
_cell_angle_alpha   89.97356830
_cell_angle_beta   100.03604188
_cell_angle_gamma   90.03839373
_symmetry_Int_Tables_number   1
_chemical_formula_structural   K24Na3Li5Mg64Fe17Si79(O5F)48
_chemical_formula_sum   'K24 Na3 Li5 Mg64 Fe17 Si79 O240 F48'
_cell_volume   6070.14453127
_cell_formula_units_Z   1
loop_
 _symmetry_equiv_pos_site_id
 _symmetry_equiv_pos_as_xyz
  1  'x, y, z'
loop_
 _atom_site_type_symbol
 _atom_site_label
 _atom_site_symmetry_multiplicity
 _atom_site_fract_x
 _atom_site_fract_y
 _atom_site_fract_z
 _atom_site_occupancy
  K  K0  1  0.01447256  -0.00802781  0.00456553  1
  K  K1  1  0.00251647  -0.00358071  0.49496277  1
  K  K2  1  0.00323392  0.49699577  0.00026636  1
  K  K3  1  -0.00268795  0.50075359  0.49552882  1
  K  K4  1  0.32465125  0.00244612  0.01670849  1
  K  K5  1  0.32994002  -0.00481114  0.49053468  1
  K  K6  1  0.34217235  0.48960900  0.00768708  1
  K  K7  1  0.33771693  0.50464596  0.49019477  1
  K  K8  1  0.67149549  -0.00241390  0.00597310  1
  K  K9  1  0.65486443  0.00745436  0.49296485  1
  K  K10  1  0.66241606  0.49666020  -0.00487958  1
  K  K11  1  0.66122691  0.49573737  0.50678760  1
  K  K12  1  0.17458539  0.26310764  0.01514955  1
  K  K13  1  0.17812836  0.25373187  0.49361440  1
  K  K14  1  0.16894824  0.74637715  0.01231178  1
  K  K15  1  0.16818710  0.75352775  0.48016516  1
  K  K16  1  0.49773226  0.25766282  0.00672747  1
  K  K17  1  0.50527153  0.25625721  0.48999088  1
  K  K18  1  0.49957530  0.74445722  0.00636124  1
  K  K19  1  0.48572200  0.74593623  0.48904971  1
  K  K20  1  0.83704416  0.24928392  -0.00042311  1
  K  K21  1  0.81529663  0.25184101  0.49390865  1
  K  K22  1  0.82734762  0.74051119  0.00208637  1
  K  K23  1  0.83383967  0.74781726  0.49645745  1
  Na  Na24  1  0.65625189  0.25283875  0.24962297  1
  Na  Na25  1  0.16556787  0.82677061  0.24993096  1
  Na  Na26  1  0.66667549  0.42256571  0.75480269  1
  Li  Li27  1  0.50581287  0.49637855  0.75951763  1
  Li  Li28  1  0.82383155  0.49981104  0.75620344  1
  Li  Li29  1  0.50220106  0.33606339  0.24854945  1
  Li  Li30  1  0.32588647  0.91111903  0.24613401  1
  Li  Li31  1  0.17056360  0.66920628  0.24006157  1
  Mg  Mg32  1  0.66753975  0.74828637  0.74861627  1
  Mg  Mg33  1  0.66814825  0.25087121  0.74738292  1
  Mg  Mg34  1  0.16903288  0.50518653  0.25403634  1
  Mg  Mg35  1  0.33597589  0.25244562  0.25630454  1
  Mg  Mg36  1  0.83049602  0.00107853  0.24800550  1
  Mg  Mg37  1  0.00073580  0.74830048  0.74872759  1
  Mg  Mg38  1  0.00015529  0.25088313  0.75125082  1
  Mg  Mg39  1  0.17053746  -0.00048162  0.74293696  1
  Mg  Mg40  1  0.00589926  0.74897627  0.25075895  1
  Mg  Mg41  1  0.32900730  0.75182901  0.24873869  1
  Mg  Mg42  1  0.50269575  0.49757362  0.25400579  1
  Mg  Mg43  1  0.50177960  -0.00174166  0.74226920  1
  Mg  Mg44  1  0.49445900  -0.00124407  0.25117422  1
  Mg  Mg45  1  0.83562319  -0.00059638  0.74440947  1
  Mg  Mg46  1  -0.00152384  0.25265467  0.25101110  1
  Mg  Mg47  1  0.66875885  0.75202379  0.24758720  1
  Mg  Mg48  1  0.16564546  -0.00218043  0.24868688  1
  Mg  Mg49  1  0.33524113  0.25290227  0.75088508  1
  Mg  Mg50  1  0.83601184  0.49978199  0.24905668  1
  Mg  Mg51  1  0.33428559  0.74845195  0.74628554  1
  Mg  Mg52  1  0.16401172  0.49822275  0.75454410  1
  Mg  Mg53  1  0.16670837  0.66461783  0.75152007  1
  Mg  Mg54  1  0.16588511  0.16706430  0.25180394  1
  Mg  Mg55  1  0.50170338  0.66237803  0.75279404  1
  Mg  Mg56  1  0.33503897  0.58070404  0.75246206  1
  Mg  Mg57  1  0.00222753  0.58586585  0.25076183  1
  Mg  Mg58  1  0.66621939  0.91501028  0.74314652  1
  Mg  Mg59  1  0.32907565  0.08065124  0.25174828  1
  Mg  Mg60  1  0.66168481  0.08363192  0.25335139  1
  Mg  Mg61  1  0.49543499  0.16852419  0.25371776  1
  Mg  Mg62  1  0.33293505  0.58671212  0.25323101  1
  Mg  Mg63  1  0.16909799  0.83454816  0.74364814  1
  Mg  Mg64  1  0.50210346  0.16682690  0.74566765  1
  Mg  Mg65  1  0.50312600  0.33816757  0.75323412  1
  Mg  Mg66  1  0.16947180  0.33670378  0.25373968  1
  Mg  Mg67  1  0.66722998  0.58494299  0.24841668  1
  Mg  Mg68  1  0.82759668  0.16817848  0.25318695  1
  Mg  Mg69  1  0.50042752  0.83323984  0.74287917  1
  Mg  Mg70  1  -0.00312811  0.41734719  0.75522989  1
  Mg  Mg71  1  -0.00072025  0.41783019  0.25275381  1
  Mg  Mg72  1  0.83286790  0.66195404  0.75273866  1
  Mg  Mg73  1  0.83333119  0.83476104  0.24569506  1
  Mg  Mg74  1  0.83125300  0.33622543  0.75091849  1
  Mg  Mg75  1  -0.00144424  0.91604279  0.24405492  1
  Mg  Mg76  1  -0.00296475  0.08544533  0.24979815  1
  Mg  Mg77  1  0.66745866  0.58061125  0.75242947  1
  Mg  Mg78  1  0.33579665  0.08470945  0.74465519  1
  Mg  Mg79  1  0.00358826  0.91483177  0.74468368  1
  Mg  Mg80  1  0.16920194  0.16665684  0.74720888  1
  Mg  Mg81  1  0.83457359  0.83287258  0.74560312  1
  Mg  Mg82  1  0.83434933  0.66580770  0.24624857  1
  Mg  Mg83  1  0.50063453  0.66665466  0.25190381  1
  Mg  Mg84  1  0.66602293  0.08406939  0.74238317  1
  Mg  Mg85  1  0.00216515  0.08385274  0.74585379  1
  Mg  Mg86  1  0.83209434  0.16584340  0.74521300  1
  Mg  Mg87  1  0.66523607  0.41567371  0.25060565  1
  Mg  Mg88  1  0.33816522  0.41610723  0.25751016  1
  Mg  Mg89  1  0.49592898  0.83439383  0.24858871  1
  Mg  Mg90  1  -0.00255177  0.58207884  0.75501560  1
  Mg  Mg91  1  0.66492078  0.91516471  0.24860349  1
  Mg  Mg92  1  0.33645682  0.41761666  0.75384726  1
  Mg  Mg93  1  0.16641417  0.33522769  0.75470368  1
  Mg  Mg94  1  0.83024161  0.33455939  0.25045636  1
  Mg  Mg95  1  0.33352237  0.91479243  0.74202464  1
  Fe  Fe96  1  0.36632257  0.33312976  0.11791521  1
  Fe  Fe97  1  0.63761559  0.16843548  0.39240592  1
  Fe  Fe98  1  0.02558242  0.66091325  0.11005687  1
  Fe  Fe99  1  0.85432746  0.40834198  0.11150502  1
  Fe  Fe100  1  0.19191463  0.91304166  0.10860040  1
  Fe  Fe101  1  0.13921314  0.41536746  0.89310348  1
  Fe  Fe102  1  0.69246103  0.16694643  0.60596611  1
  Fe  Fe103  1  0.52432654  0.91247592  0.60404959  1
  Fe  Fe104  1  0.30357265  0.66841285  0.39073342  1
  Fe  Fe105  1  0.80801195  0.57921589  0.89280630  1
  Fe  Fe106  1  0.85337127  0.57652717  0.10991445  1
  Fe  Fe107  1  0.47637881  0.41774499  0.89301341  1
  Fe  Fe108  1  0.53486036  0.41708225  0.11178284  1
  Fe  Fe109  1  0.69119681  0.83764923  0.10855793  1
  Fe  Fe110  1  0.01764269  0.83140708  0.10466732  1
  Fe  Fe111  1  0.31267031  0.33427139  0.39681294  1
  Fe  Fe112  1  0.19493307  0.91810885  0.60297016  1
  Si  Si113  1  0.02898557  0.16962159  0.61346554  1
  Si  Si114  1  0.69299791  0.66586430  0.61385292  1
  Si  Si115  1  0.13671838  0.92095398  0.38291630  1
  Si  Si116  1  0.80892001  0.08014402  0.38911799  1
  Si  Si117  1  0.47248433  0.59025329  0.88817484  1
  Si  Si118  1  0.14388415  0.58776732  0.88908812  1
  Si  Si119  1  0.18964828  0.57918318  0.61733865  1
  Si  Si120  1  0.64339193  0.83461796  0.88137654  1
  Si  Si121  1  0.47584376  0.91596775  0.88003725  1
  Si  Si122  1  0.52650771  0.58461697  0.11588200  1
  Si  Si123  1  0.85946323  0.58236379  0.61703622  1
  Si  Si124  1  0.30555939  0.32782369  0.88891005  1
  Si  Si125  1  0.46936908  0.07995475  0.38818573  1
  Si  Si126  1  0.13542631  0.41559425  0.39244665  1
  Si  Si127  1  0.68969851  0.33677705  0.61263254  1
  Si  Si128  1  0.81036389  0.91491478  0.88041827  1
  Si  Si129  1  0.14388790  0.91802801  0.88016094  1
  Si  Si130  1  0.19939536  0.58337449  0.11565198  1
  Si  Si131  1  0.47625515  0.91481386  0.38521970  1
  Si  Si132  1  0.18567976  0.08390066  0.11373391  1
  Si  Si133  1  0.18934941  0.41471124  0.61734705  1
  Si  Si134  1  0.51825496  0.08244924  0.60742953  1
  Si  Si135  1  0.68394282  0.16261760  0.11759800  1
  Si  Si136  1  0.36100565  0.17373070  0.61239491  1
  Si  Si137  1  0.35363325  0.16557985  0.11705170  1
  Si  Si138  1  0.64261652  0.83461334  0.38546899  1
  Si  Si139  1  0.97063553  0.32689736  0.88914351  1
  Si  Si140  1  0.13418507  0.58004782  0.39110414  1
  Si  Si141  1  0.96986750  0.33200963  0.38802769  1
  Si  Si142  1  0.64591132  0.66956648  0.38578586  1
  Si  Si143  1  0.68872278  0.66910537  0.11215050  1
  Si  Si144  1  0.80899645  0.40770480  0.88841528  1
  Si  Si145  1  0.14512122  0.08265599  0.88104266  1
  Si  Si146  1  0.97305050  0.66956152  0.38616564  1
  Si  Si147  1  0.81102624  0.07896811  0.88125004  1
  Si  Si148  1  0.31275963  0.16315072  0.88234680  1
  Si  Si149  1  0.35822860  0.33874810  0.61532135  1
  Si  Si150  1  0.30837593  0.83801241  0.38654152  1
  Si  Si151  1  0.69665776  0.32645702  0.11340242  1
  Si  Si152  1  0.02162423  0.33355305  0.61558883  1
  Si  Si153  1  0.52633039  0.58597400  0.61649650  1
  Si  Si154  1  0.35516344  0.66025293  0.61553068  1
  Si  Si155  1  0.86737968  0.08116489  0.60937080  1
  Si  Si156  1  0.85876801  0.41712497  0.61691828  1
  Si  Si157  1  0.97719137  0.67107849  0.88756814  1
  Si  Si158  1  0.64504027  0.34248848  0.39092162  1
  Si  Si159  1  0.64460474  0.16078052  0.88288838  1
  Si  Si160  1  0.81034233  0.91562512  0.38532488  1
  Si  Si161  1  0.97128992  0.16711027  0.38690067  1
  Si  Si162  1  0.36411130  0.66577932  0.11685067  1
  Si  Si163  1  0.85886684  0.92628853  0.10846565  1
  Si  Si164  1  0.64156225  0.32387799  0.88804131  1
  Si  Si165  1  0.85267236  0.09174288  0.11503684  1
  Si  Si166  1  0.48082085  0.58813395  0.39050823  1
  Si  Si167  1  0.19399649  0.09099597  0.60886895  1
  Si  Si168  1  0.97708274  0.16169515  0.88288058  1
  Si  Si169  1  0.36269565  0.82978250  0.11205850  1
  Si  Si170  1  0.13537751  0.08445083  0.38593052  1
  Si  Si171  1  0.36083265  0.82394631  0.60750587  1
  Si  Si172  1  0.69891601  0.83201447  0.60838058  1
  Si  Si173  1  0.48149827  0.42416768  0.39399412  1
  Si  Si174  1  0.02385734  0.66263729  0.61518309  1
  Si  Si175  1  0.63810067  0.67011766  0.88710309  1
  Si  Si176  1  0.51784494  0.08086324  0.11691116  1
  Si  Si177  1  0.52334476  0.42073661  0.61747196  1
  Si  Si178  1  0.80871697  0.42145303  0.38775289  1
  Si  Si179  1  0.02823792  0.82775041  0.60931115  1
  Si  Si180  1  0.52285304  0.91800206  0.11247063  1
  Si  Si181  1  0.80945996  0.58660894  0.38601414  1
  Si  Si182  1  0.31003718  0.83553090  0.88127474  1
  Si  Si183  1  0.30703639  0.67108808  0.88516289  1
  Si  Si184  1  0.86554284  0.91415516  0.61090714  1
  Si  Si185  1  0.97458710  0.83379439  0.38399631  1
  Si  Si186  1  0.03068824  0.33705194  0.11660137  1
  Si  Si187  1  0.19661327  0.42046574  0.11885572  1
  Si  Si188  1  0.47749627  0.08028174  0.88084715  1
  Si  Si189  1  0.30500427  0.16094193  0.38888672  1
  Si  Si190  1  0.02277689  0.17094947  0.11632826  1
  Si  Si191  1  0.97854925  0.83570718  0.88111301  1
  O  O192  1  0.26927107  0.11654135  0.08729076  1
  O  O193  1  0.27508429  0.12823766  0.58241473  1
  O  O194  1  0.28821051  0.60867278  0.08904621  1
  O  O195  1  0.27176638  0.60971720  0.58856075  1
  O  O196  1  0.60190421  0.11021227  0.08752346  1
  O  O197  1  0.60062848  0.10570328  0.57719562  1
  O  O198  1  0.61099202  0.61160701  0.08793694  1
  O  O199  1  0.60332493  0.62473265  0.58398070  1
  O  O200  1  0.93317960  0.12877021  0.08660856  1
  O  O201  1  0.95425648  0.11193233  0.58477771  1
  O  O202  1  0.95149563  0.58827756  0.07675131  1
  O  O203  1  0.93769219  0.61796222  0.58403747  1
  O  O204  1  0.11723809  0.36478748  0.09226222  1
  O  O205  1  0.10330157  0.36802799  0.58742472  1
  O  O206  1  0.10575116  0.85912761  0.06171143  1
  O  O207  1  0.10279523  0.85614512  0.57324546  1
  O  O208  1  0.44755390  0.36043991  0.07107675  1
  O  O209  1  0.43413132  0.37825464  0.58474979  1
  O  O210  1  0.44876224  0.85889530  0.08459702  1
  O  O211  1  0.44771674  0.83717029  0.57973375  1
  O  O212  1  0.78377922  0.32879659  0.08361264  1
  O  O213  1  0.76896520  0.37878416  0.58502789  1
  O  O214  1  0.78079117  0.87679476  0.07240231  1
  O  O215  1  0.78463079  0.86325733  0.58261784  1
  O  O216  1  0.27338311  0.39293896  0.08462955  1
  O  O217  1  0.26834840  0.38043870  0.58681312  1
  O  O218  1  0.28817484  0.88022983  0.07426133  1
  O  O219  1  0.28869187  0.87963297  0.57292216  1
  O  O220  1  0.62870900  0.38397051  0.07680171  1
  O  O221  1  0.60355756  0.38589493  0.58769592  1
  O  O222  1  0.60234988  0.90163515  0.07657504  1
  O  O223  1  0.62307387  0.88225604  0.57308623  1
  O  O224  1  0.95533235  0.38639904  0.07987873  1
  O  O225  1  0.93688099  0.37993201  0.58459677  1
  O  O226  1  0.94193749  0.90911501  0.07786247  1
  O  O227  1  0.94393209  0.87721318  0.58196066  1
  O  O228  1  0.10131225  0.13534995  0.08636817  1
  O  O229  1  0.11440731  0.14722486  0.58506220  1
  O  O230  1  0.12759632  0.63706307  0.07955829  1
  O  O231  1  0.10412758  0.62605620  0.58711240  1
  O  O232  1  0.43463023  0.12934743  0.08763470  1
  O  O233  1  0.44148564  0.14213546  0.58356438  1
  O  O234  1  0.44982811  0.64245881  0.08868263  1
  O  O235  1  0.43671779  0.62832128  0.58623493  1
  O  O236  1  0.76661849  0.13742486  0.08396134  1
  O  O237  1  0.78920709  0.12915891  0.57582487  1
  O  O238  1  0.77157078  0.64833966  0.08232319  1
  O  O239  1  0.77080013  0.62452120  0.58542201  1
  O  O240  1  0.06139311  0.12772025  0.41717032  1
  O  O241  1  0.06390335  0.11537215  0.90996852  1
  O  O242  1  0.05635540  0.62365190  0.41937780  1
  O  O243  1  0.06376673  0.62564946  0.91527515  1
  O  O244  1  0.38220110  0.10408572  0.41475116  1
  O  O245  1  0.39686177  0.11404843  0.90974807  1
  O  O246  1  0.40909697  0.62389411  0.42610572  1
  O  O247  1  0.39021274  0.62525722  0.91712651  1
  O  O248  1  0.73656477  0.11323230  0.42479198  1
  O  O249  1  0.73020200  0.11213602  0.91020745  1
  O  O250  1  0.73235711  0.62479062  0.41720205  1
  O  O251  1  0.71369639  0.62081194  0.92374412  1
  O  O252  1  0.22142940  0.37812639  0.42982418  1
  O  O253  1  0.21991524  0.34317879  0.91796873  1
  O  O254  1  0.22969090  0.88577022  0.41037347  1
  O  O255  1  0.23009701  0.87297285  0.90882431  1
  O  O256  1  0.57085552  0.38270697  0.42414688  1
  O  O257  1  0.56551866  0.35260970  0.92269387  1
  O  O258  1  0.56418524  0.86955230  0.41643175  1
  O  O259  1  0.56351536  0.87277593  0.90876690  1
  O  O260  1  0.89471531  0.37473652  0.41768287  1
  O  O261  1  0.88410615  0.34762227  0.91611786  1
  O  O262  1  0.89643075  0.87028958  0.41644491  1
  O  O263  1  0.89695366  0.87008665  0.90870142  1
  O  O264  1  0.05799695  0.37161244  0.42054535  1
  O  O265  1  0.04605308  0.37705080  0.92573609  1
  O  O266  1  0.06265521  0.87689623  0.41468540  1
  O  O267  1  0.06148303  0.88659408  0.90769514  1
  O  O268  1  0.40962059  0.38884297  0.43093234  1
  O  O269  1  0.37955058  0.38108199  0.92214924  1
  O  O270  1  0.39814206  0.88139149  0.41752368  1
  O  O271  1  0.39672967  0.88058880  0.91007427  1
  O  O272  1  0.73287290  0.38913883  0.42239906  1
  O  O273  1  0.72632373  0.37184128  0.91455479  1
  O  O274  1  0.73041185  0.87934627  0.41469804  1
  O  O275  1  0.72948538  0.88166137  0.90906817  1
  O  O276  1  0.22332647  0.12472860  0.41727985  1
  O  O277  1  0.23158827  0.12730304  0.91038138  1
  O  O278  1  0.22109545  0.61644863  0.42797865  1
  O  O279  1  0.22456448  0.64264447  0.91374238  1
  O  O280  1  0.54545181  0.12893529  0.42629182  1
  O  O281  1  0.56500068  0.12301672  0.91169698  1
  O  O282  1  0.56929721  0.63439856  0.41753526  1
  O  O283  1  0.54888619  0.64929636  0.91198199  1
  O  O284  1  0.89894417  0.12272713  0.41725053  1
  O  O285  1  0.89790582  0.12341352  0.91140526  1
  O  O286  1  0.89389922  0.63356886  0.41759644  1
  O  O287  1  0.90041227  0.64311030  0.92063285  1
  O  O288  1  0.16736065  0.00902250  0.07467243  1
  O  O289  1  0.17122788  0.01447537  0.57367736  1
  O  O290  1  0.17301673  0.50121810  0.08793960  1
  O  O291  1  0.17161308  0.49701663  0.58846875  1
  O  O292  1  0.49204769  0.00022274  0.08660167  1
  O  O293  1  0.48305638  0.00499241  0.57802822  1
  O  O294  1  0.49817205  0.50935558  0.08108506  1
  O  O295  1  0.51487440  0.50362233  0.58673526  1
  O  O296  1  0.83401794  0.01135311  0.08453048  1
  O  O297  1  0.85647299  -0.00330120  0.58248463  1
  O  O298  1  0.80285665  0.49143277  0.07809708  1
  O  O299  1  0.85146344  0.50001239  0.58777951  1
  O  O300  1  0.01364801  0.25319803  0.08802384  1
  O  O301  1  0.00480841  0.25122505  0.58566409  1
  O  O302  1  -0.02007304  0.74436881  0.06790746  1
  O  O303  1  0.00621297  0.74407548  0.58494109  1
  O  O304  1  0.33435032  0.24165043  0.08100750  1
  O  O305  1  0.34534420  0.25649189  0.58509454  1
  O  O306  1  0.34370246  0.74615385  0.08384746  1
  O  O307  1  0.33008206  0.74040742  0.58608370  1
  O  O308  1  0.65665005  0.24376237  0.09326211  1
  O  O309  1  0.67454503  0.26111296  0.57319748  1
  O  O310  1  0.65369311  0.74601635  0.08025387  1
  O  O311  1  0.68927260  0.74765937  0.58180272  1
  O  O312  1  0.13794359  0.00249362  0.41657151  1
  O  O313  1  0.15913366  0.00018290  0.90934536  1
  O  O314  1  0.12885349  0.49754147  0.42207990  1
  O  O315  1  0.16533056  0.51045825  0.92314428  1
  O  O316  1  0.49016660  -0.00349771  0.41567739  1
  O  O317  1  0.48956068  -0.00210207  0.90958935  1
  O  O318  1  0.50021277  0.50745006  0.42259515  1
  O  O319  1  0.49472588  0.51392588  0.92351969  1
  O  O320  1  0.82654327  -0.00356704  0.41664850  1
  O  O321  1  0.82468828  -0.00320462  0.91034852  1
  O  O322  1  0.82559551  0.50465057  0.41671978  1
  O  O323  1  0.83107004  0.48445483  0.92450767  1
  O  O324  1  0.32306120  0.23708672  0.42705495  1
  O  O325  1  0.33284398  0.24304957  0.91184072  1
  O  O326  1  0.31146126  0.76300736  0.42741358  1
  O  O327  1  0.32305175  0.75460296  0.91200166  1
  O  O328  1  0.65866108  0.26314869  0.42371136  1
  O  O329  1  0.66373615  0.23957787  0.91608177  1
  O  O330  1  0.65987594  0.75236387  0.41525878  1
  O  O331  1  0.65661333  0.75487645  0.91338553  1
  O  O332  1  0.97389195  0.24912033  0.41763569  1
  O  O333  1  0.99033391  0.24182124  0.91407446  1
  O  O334  1  0.98295462  0.75224825  0.41644033  1
  O  O335  1  0.99950817  0.75582237  0.91042688  1
  O  O336  1  0.20297003  0.08526693  0.19458119  1
  O  O337  1  0.21185030  0.08626363  0.69021322  1
  O  O338  1  0.21544187  0.57983340  0.19574439  1
  O  O339  1  0.20667214  0.58210338  0.69761096  1
  O  O340  1  0.53853120  0.07989044  0.19667253  1
  O  O341  1  0.54017175  0.08326927  0.68968232  1
  O  O342  1  0.54426019  0.58528157  0.19720178  1
  O  O343  1  0.54598883  0.58988881  0.69544851  1
  O  O344  1  0.87336167  0.08858790  0.19548805  1
  O  O345  1  0.88165974  0.08124877  0.69071363  1
  O  O346  1  0.87919442  0.58232545  0.20280848  1
  O  O347  1  0.88203104  0.58884517  0.69570806  1
  O  O348  1  0.04438140  0.33430266  0.19782086  1
  O  O349  1  0.04133830  0.33159898  0.69569271  1
  O  O350  1  0.03044726  0.83292344  0.19563164  1
  O  O351  1  0.04541041  0.83169973  0.69051167  1
  O  O352  1  0.37804472  0.33448300  0.20762117  1
  O  O353  1  0.37410490  0.33396907  0.69523698  1
  O  O354  1  0.38008611  0.82946912  0.19196824  1
  O  O355  1  0.37556068  0.83023008  0.68951006  1
  O  O356  1  0.71483417  0.33846132  0.19342184  1
  O  O357  1  0.71381946  0.32744351  0.69185010  1
  O  O358  1  0.71188384  0.83583857  0.20059063  1
  O  O359  1  0.71341229  0.83319494  0.68965821  1
  O  O360  1  0.21085789  0.42023013  0.19983784  1
  O  O361  1  0.20848667  0.41472276  0.69732222  1
  O  O362  1  0.20975041  0.92338138  0.19638903  1
  O  O363  1  0.21256612  0.91688431  0.69538942  1
  O  O364  1  0.54754075  0.42065483  0.20228787  1
  O  O365  1  0.53533521  0.41626195  0.69553319  1
  O  O366  1  0.54230201  0.91657916  0.19346687  1
  O  O367  1  0.54641023  0.91533291  0.69660795  1
  O  O368  1  0.88041702  0.41486210  0.20412722  1
  O  O369  1  0.88107277  0.41191710  0.69597004  1
  O  O370  1  0.87197352  0.92224212  0.19021260  1
  O  O371  1  0.88105677  0.91553872  0.69167210  1
  O  O372  1  0.04011609  0.16861407  0.19677465  1
  O  O373  1  0.04564577  0.16741412  0.69412926  1
  O  O374  1  0.04508413  0.66645388  0.20180271  1
  O  O375  1  0.04365200  0.66510369  0.69560806  1
  O  O376  1  0.37041497  0.16424948  0.19771338  1
  O  O377  1  0.37678238  0.16920625  0.69308115  1
  O  O378  1  0.38205205  0.66673986  0.19698357  1
  O  O379  1  0.37509474  0.66320771  0.69590759  1
  O  O380  1  0.71116267  0.15573089  0.19632044  1
  O  O381  1  0.71267964  0.16533916  0.69805442  1
  O  O382  1  0.70852080  0.66861760  0.19424832  1
  O  O383  1  0.71087850  0.67011085  0.69363906  1
  O  O384  1  0.11698025  0.08662858  0.30592855  1
  O  O385  1  0.12634039  0.08273911  0.80035418  1
  O  O386  1  0.11926225  0.57671288  0.31189932  1
  O  O387  1  0.12437864  0.58549868  0.80752222  1
  O  O388  1  0.45277464  0.08018024  0.30769498  1
  O  O389  1  0.45896104  0.08181931  0.80032468  1
  O  O390  1  0.46180797  0.58693874  0.30997258  1
  O  O391  1  0.45066840  0.58938749  0.80791890  1
  O  O392  1  0.79042788  0.08172679  0.30840543  1
  O  O393  1  0.79457700  0.07962067  0.80101480  1
  O  O394  1  0.78932340  0.58618614  0.30652048  1
  O  O395  1  0.78687484  0.58676256  0.80235111  1
  O  O396  1  0.28667261  0.33421612  0.30620734  1
  O  O397  1  0.28898395  0.33030076  0.80686549  1
  O  O398  1  0.30018690  0.83157719  0.30845606  1
  O  O399  1  0.29214271  0.83369918  0.80084301  1
  O  O400  1  0.62689630  0.34494376  0.31238278  1
  O  O401  1  0.62045072  0.32032920  0.80804143  1
  O  O402  1  0.62368006  0.83411689  0.30565021  1
  O  O403  1  0.62625481  0.83406133  0.80100136  1
  O  O404  1  0.95656583  0.33167958  0.30833340  1
  O  O405  1  0.95822020  0.32871742  0.80796102  1
  O  O406  1  0.95133976  0.83732027  0.30473561  1
  O  O407  1  0.95922956  0.83553114  0.80020983  1
  O  O408  1  0.12156569  0.41446875  0.31186371  1
  O  O409  1  0.11909167  0.41573770  0.80081259  1
  O  O410  1  0.11241455  0.92673942  0.30464318  1
  O  O411  1  0.12508347  0.91760564  0.79972935  1
  O  O412  1  0.45688743  0.42530508  0.31481288  1
  O  O413  1  0.45265501  0.41391510  0.80260208  1
  O  O414  1  0.46320450  0.91467523  0.30597761  1
  O  O415  1  0.45544121  0.91608141  0.79971980  1
  O  O416  1  0.79057036  0.41917608  0.30821692  1
  O  O417  1  0.79912983  0.41141411  0.80933329  1
  O  O418  1  0.79142204  0.91757116  0.30542992  1
  O  O419  1  0.79241307  0.91615130  0.79971862  1
  O  O420  1  0.28504620  0.16557358  0.30831755  1
  O  O421  1  0.29193847  0.16359931  0.80159444  1
  O  O422  1  0.29173056  0.66855256  0.30132273  1
  O  O423  1  0.28927477  0.66896651  0.80435053  1
  O  O424  1  0.61420025  0.15792399  0.30345171  1
  O  O425  1  0.62364240  0.16092379  0.80263671  1
  O  O426  1  0.62751996  0.66909687  0.30582375  1
  O  O427  1  0.62367374  0.67122311  0.80608567  1
  O  O428  1  0.95506733  0.16684824  0.30678816  1
  O  O429  1  0.95831314  0.16217073  0.80224043  1
  O  O430  1  0.95297322  0.66842635  0.30701633  1
  O  O431  1  0.95919114  0.66946697  0.80597537  1
  F  F432  1  0.04050842  0.00591786  0.20039890  1
  F  F433  1  0.04723315  0.00034036  0.69755807  1
  F  F434  1  0.04819694  0.49831887  0.20766478  1
  F  F435  1  0.04379679  0.50227597  0.70227323  1
  F  F436  1  0.37722801  0.00327656  0.20289493  1
  F  F437  1  0.37837217  0.00077445  0.69796003  1
  F  F438  1  0.38079211  0.50194326  0.20963104  1
  F  F439  1  0.36398022  0.50061456  0.69915471  1
  F  F440  1  0.70961638  0.00052761  0.20406595  1
  F  F441  1  0.71542860  -0.00129411  0.69748783  1
  F  F442  1  0.71317769  0.50159586  0.20601248  1
  F  F443  1  0.71085976  0.51104390  0.69390791  1
  F  F444  1  0.20924312  0.24979427  0.20534378  1
  F  F445  1  0.21203478  0.25142972  0.70239657  1
  F  F446  1  0.21928484  0.74512461  0.19148682  1
  F  F447  1  0.21137868  0.74718909  0.70007331  1
  F  F448  1  0.52379050  0.24692552  0.19885340  1
  F  F449  1  0.54462899  0.24983781  0.70037484  1
  F  F450  1  0.54663179  0.75060646  0.20425460  1
  F  F451  1  0.54630731  0.74808077  0.70127657  1
  F  F452  1  0.87910360  0.24787293  0.20444092  1
  F  F453  1  0.88200864  0.24852013  0.70184593  1
  F  F454  1  0.87756937  0.75088664  0.20314670  1
  F  F455  1  0.88062748  0.74958948  0.70040334  1
  F  F456  1  0.27894732  0.00902783  0.30413867  1
  F  F457  1  0.29096649  0.00177820  0.79424511  1
  F  F458  1  0.28904127  0.50211735  0.30420671  1
  F  F459  1  0.28480582  0.50045472  0.80063487  1
  F  F460  1  0.62011439  -0.00394161  0.29888339  1
  F  F461  1  0.62475449  0.00098579  0.79375255  1
  F  F462  1  0.62568375  0.50677732  0.30233177  1
  F  F463  1  0.61781870  0.51300730  0.80708165  1
  F  F464  1  0.95023085  0.00207737  0.29586826  1
  F  F465  1  0.95818769  -0.00114498  0.79374452  1
  F  F466  1  0.95626457  0.49959681  0.30481159  1
  F  F467  1  0.96131246  0.50063728  0.80263685  1
  F  F468  1  0.11846785  0.24986590  0.30059638  1
  F  F469  1  0.12183884  0.24562857  0.79761235  1
  F  F470  1  0.10786755  0.75306223  0.31872455  1
  F  F471  1  0.12290084  0.75304049  0.79509586  1
  F  F472  1  0.44845182  0.23837801  0.31109973  1
  F  F473  1  0.45475625  0.24568792  0.79641400  1
  F  F474  1  0.45911908  0.75068432  0.29974009  1
  F  F475  1  0.45426570  0.75286862  0.79470292  1
  F  F476  1  0.79864068  0.25092294  0.30403347  1
  F  F477  1  0.79150649  0.24658766  0.79777294  1
  F  F478  1  0.78940994  0.74989992  0.29908399  1
  F  F479  1  0.78971449  0.75379363  0.79545442  1
