# generated using pymatgen
data_K24Na3Li5Mg64Fe17Si79(O5F)48
_symmetry_space_group_name_H-M   'P 1'
_cell_length_a   16.07818533
_cell_length_b   18.56735324
_cell_length_c   20.55179737
_cell_angle_alpha   90.00707288
_cell_angle_beta   100.00463225
_cell_angle_gamma   90.01181901
_symmetry_Int_Tables_number   1
_chemical_formula_structural   K24Na3Li5Mg64Fe17Si79(O5F)48
_chemical_formula_sum   'K24 Na3 Li5 Mg64 Fe17 Si79 O240 F48'
_cell_volume   6042.01906362
_cell_formula_units_Z   1
loop_
 _symmetry_equiv_pos_site_id
 _symmetry_equiv_pos_as_xyz
  1  'x, y, z'
loop_
 _atom_site_type_symbol
 _atom_site_label
 _atom_site_symmetry_multiplicity
 _atom_site_fract_x
 _atom_site_fract_y
 _atom_site_fract_z
 _atom_site_occupancy
  K  K0  1  0.00022021  0.00351388  0.00327404  1
  K  K1  1  -0.00313230  0.00786672  0.48543883  1
  K  K2  1  -0.00030226  0.51320879  -0.00124032  1
  K  K3  1  -0.00639227  0.50203124  0.49582938  1
  K  K4  1  0.33692189  0.00128432  0.00611042  1
  K  K5  1  0.33423061  -0.00742369  0.49126583  1
  K  K6  1  0.33332654  0.50091368  -0.00205480  1
  K  K7  1  0.33802723  0.50501652  0.49866831  1
  K  K8  1  0.65716035  -0.00411293  0.00205625  1
  K  K9  1  0.66864949  -0.00523655  0.49416478  1
  K  K10  1  0.67175492  0.49711002  -0.00020605  1
  K  K11  1  0.66280862  0.48894457  0.49587064  1
  K  K12  1  0.16395416  0.24942572  0.00334377  1
  K  K13  1  0.15920549  0.24415920  0.49173046  1
  K  K14  1  0.16465972  0.75430382  -0.00139863  1
  K  K15  1  0.16286432  0.76249330  0.49521775  1
  K  K16  1  0.50736686  0.24488082  0.00526326  1
  K  K17  1  0.50550873  0.24487454  0.48583831  1
  K  K18  1  0.50326536  0.75587020  -0.00134464  1
  K  K19  1  0.49638891  0.75317739  0.49580026  1
  K  K20  1  0.83032498  0.24826156  0.00096825  1
  K  K21  1  0.82068521  0.24232968  0.48784155  1
  K  K22  1  0.83272945  0.74264196  -0.00008260  1
  K  K23  1  0.83481785  0.74696691  0.50183192  1
  Na  Na24  1  -0.00016532  0.75039430  0.75184109  1
  Na  Na25  1  0.33697871  0.08180740  0.24572175  1
  Na  Na26  1  0.49925427  0.17032066  0.25358479  1
  Li  Li27  1  0.50151394  -0.00185442  0.75118263  1
  Li  Li28  1  0.33205835  0.75057750  0.24959955  1
  Li  Li29  1  0.66753827  0.58508506  0.75852094  1
  Li  Li30  1  0.33368743  0.58453383  0.74851002  1
  Li  Li31  1  0.50453813  0.32784738  0.25348608  1
  Mg  Mg32  1  0.66384920  0.74640820  0.75300109  1
  Mg  Mg33  1  0.83526302  -0.00052781  0.25333102  1
  Mg  Mg34  1  0.16882297  -0.00046747  0.25433211  1
  Mg  Mg35  1  0.66266278  0.24865755  0.25404695  1
  Mg  Mg36  1  0.66814729  0.74940180  0.24885132  1
  Mg  Mg37  1  0.00002414  0.25175055  0.75024261  1
  Mg  Mg38  1  0.16808434  0.50200602  0.24498653  1
  Mg  Mg39  1  0.16779077  0.50269224  0.74921833  1
  Mg  Mg40  1  0.33738196  0.25154359  0.24864191  1
  Mg  Mg41  1  0.66524100  0.24934648  0.75310948  1
  Mg  Mg42  1  -0.00092959  0.24805816  0.25056685  1
  Mg  Mg43  1  0.83206485  -0.00121604  0.75316832  1
  Mg  Mg44  1  0.33334504  0.25110674  0.74781710  1
  Mg  Mg45  1  0.83439166  0.49997370  0.24999485  1
  Mg  Mg46  1  0.16586798  -0.00045166  0.75007399  1
  Mg  Mg47  1  0.33284411  0.74902284  0.74706762  1
  Mg  Mg48  1  0.82910162  0.50108585  0.75003833  1
  Mg  Mg49  1  0.49972815  0.49737917  0.25346331  1
  Mg  Mg50  1  0.00173274  0.75238997  0.24861719  1
  Mg  Mg51  1  0.50095023  -0.00101424  0.24884921  1
  Mg  Mg52  1  0.49903398  0.50196389  0.74942736  1
  Mg  Mg53  1  0.33426381  0.91307798  0.25240056  1
  Mg  Mg54  1  0.49958521  0.66416171  0.75035617  1
  Mg  Mg55  1  0.00054078  0.08519796  0.75110268  1
  Mg  Mg56  1  0.17003938  0.66845439  0.24552903  1
  Mg  Mg57  1  0.49758534  0.83134816  0.24994986  1
  Mg  Mg58  1  0.00100925  0.91591069  0.75033597  1
  Mg  Mg59  1  0.33508184  0.08215925  0.74648254  1
  Mg  Mg60  1  0.66722992  0.41728929  0.75222698  1
  Mg  Mg61  1  0.33228184  0.58587954  0.24749569  1
  Mg  Mg62  1  0.16738864  0.16682679  0.74844314  1
  Mg  Mg63  1  -0.00063283  0.41594668  0.24822762  1
  Mg  Mg64  1  0.66614269  0.58285667  0.25007386  1
  Mg  Mg65  1  0.49733518  0.66663926  0.25010577  1
  Mg  Mg66  1  0.00038252  0.58573336  0.24671811  1
  Mg  Mg67  1  0.66260546  0.41374869  0.25393930  1
  Mg  Mg68  1  0.83014126  0.66517872  0.75044007  1
  Mg  Mg69  1  0.33551787  0.91726430  0.74859911  1
  Mg  Mg70  1  -0.00007695  0.58581012  0.75018052  1
  Mg  Mg71  1  0.50148365  0.16339732  0.75065388  1
  Mg  Mg72  1  0.83330675  0.33463702  0.75163879  1
  Mg  Mg73  1  0.83270608  0.83231449  0.75136527  1
  Mg  Mg74  1  0.50204975  0.33451400  0.75087656  1
  Mg  Mg75  1  0.83537976  0.83469551  0.25195975  1
  Mg  Mg76  1  0.16885629  0.66659288  0.74693254  1
  Mg  Mg77  1  0.66730478  0.08349880  0.25407337  1
  Mg  Mg78  1  0.83303355  0.16347656  0.25179599  1
  Mg  Mg79  1  0.33548131  0.41567626  0.24963019  1
  Mg  Mg80  1  0.16903217  0.83467821  0.25165042  1
  Mg  Mg81  1  -0.00021500  0.91594670  0.25164646  1
  Mg  Mg82  1  0.16922019  0.16537266  0.25018615  1
  Mg  Mg83  1  0.33415598  0.41941139  0.74909987  1
  Mg  Mg84  1  0.50179936  0.83492182  0.75082637  1
  Mg  Mg85  1  0.83437705  0.66473578  0.24884382  1
  Mg  Mg86  1  0.83196670  0.33414662  0.25332996  1
  Mg  Mg87  1  0.16702888  0.33709596  0.74905304  1
  Mg  Mg88  1  0.16588011  0.83491029  0.75018405  1
  Mg  Mg89  1  0.66808585  0.91403982  0.25066208  1
  Mg  Mg90  1  0.66619439  0.08117191  0.75271522  1
  Mg  Mg91  1  0.83272493  0.16481833  0.75162949  1
  Mg  Mg92  1  -0.00087306  0.08460005  0.25402554  1
  Mg  Mg93  1  0.00192416  0.41813264  0.74959022  1
  Mg  Mg94  1  0.16680578  0.33387287  0.24725754  1
  Mg  Mg95  1  0.66445836  0.91484470  0.75274222  1
  Fe  Fe96  1  0.86021234  0.58312852  0.10976074  1
  Fe  Fe97  1  0.85198819  0.08512838  0.11057260  1
  Fe  Fe98  1  0.64094937  0.83207085  0.89116767  1
  Fe  Fe99  1  0.14425453  0.92077536  0.39280642  1
  Fe  Fe100  1  0.64025380  0.33237046  0.89101976  1
  Fe  Fe101  1  0.14177040  0.42054210  0.88872320  1
  Fe  Fe102  1  0.81063161  0.58063810  0.88814201  1
  Fe  Fe103  1  0.85583740  0.91475329  0.10919920  1
  Fe  Fe104  1  0.19549592  0.58608685  0.10640416  1
  Fe  Fe105  1  0.13950640  0.91911422  0.89069559  1
  Fe  Fe106  1  0.52237691  0.08555571  0.11160783  1
  Fe  Fe107  1  0.64002699  0.33055980  0.39453798  1
  Fe  Fe108  1  0.97634042  0.82820775  0.39325888  1
  Fe  Fe109  1  0.80890508  0.07643173  0.39525180  1
  Fe  Fe110  1  0.81192502  0.08075050  0.89062764  1
  Fe  Fe111  1  0.97705276  0.17298313  0.39403076  1
  Fe  Fe112  1  0.68908838  0.82694995  0.11158250  1
  Si  Si113  1  0.03102371  0.83975314  0.11317636  1
  Si  Si114  1  0.35312698  0.33531328  0.11290612  1
  Si  Si115  1  0.81287466  0.41316650  0.88762208  1
  Si  Si116  1  0.80784232  0.58636140  0.38651549  1
  Si  Si117  1  0.69044737  0.17372052  0.11475049  1
  Si  Si118  1  0.30870948  0.67067702  0.87980937  1
  Si  Si119  1  0.52531716  0.41760817  0.61326405  1
  Si  Si120  1  0.97000360  0.83455608  0.88565377  1
  Si  Si121  1  0.02437877  0.32805924  0.11468172  1
  Si  Si122  1  0.52024118  0.41729815  0.11828432  1
  Si  Si123  1  0.47142529  0.07793060  0.38694069  1
  Si  Si124  1  0.63534585  0.83219338  0.38679256  1
  Si  Si125  1  0.19121313  0.58405886  0.61068093  1
  Si  Si126  1  0.14632566  0.41851767  0.38233550  1
  Si  Si127  1  0.19270783  0.91714149  0.61241873  1
  Si  Si128  1  0.19242253  0.41729495  0.61064854  1
  Si  Si129  1  0.36192353  0.82958767  0.11740425  1
  Si  Si130  1  0.35897439  0.66748723  0.61174406  1
  Si  Si131  1  0.30669903  0.83274923  0.88335469  1
  Si  Si132  1  0.35378802  0.17331903  0.10942797  1
  Si  Si133  1  0.63776109  0.16000437  0.88923454  1
  Si  Si134  1  0.85894406  0.08360694  0.61473484  1
  Si  Si135  1  0.02515565  0.16731995  0.61357653  1
  Si  Si136  1  0.46861620  0.41798686  0.88629604  1
  Si  Si137  1  0.52647414  0.91674108  0.61353854  1
  Si  Si138  1  0.52666745  0.08368621  0.61406672  1
  Si  Si139  1  0.31227651  0.17290899  0.38429512  1
  Si  Si140  1  0.30856226  0.83046578  0.38882208  1
  Si  Si141  1  0.69146458  0.16737010  0.61446463  1
  Si  Si142  1  0.97942159  0.34444511  0.38858734  1
  Si  Si143  1  0.97895614  0.17169976  0.88588851  1
  Si  Si144  1  0.02639366  0.66563271  0.61166951  1
  Si  Si145  1  0.98197701  0.65958260  0.38806183  1
  Si  Si146  1  0.47402149  0.58445507  0.38689793  1
  Si  Si147  1  0.46863723  0.58350721  0.88277876  1
  Si  Si148  1  0.19949281  0.91559540  0.11561703  1
  Si  Si149  1  0.02856524  0.16201472  0.11316430  1
  Si  Si150  1  0.97392493  0.33472226  0.88463119  1
  Si  Si151  1  0.46789866  0.91713138  0.88459420  1
  Si  Si152  1  0.64043897  0.66716788  0.38616124  1
  Si  Si153  1  0.52178475  0.91604607  0.11318960  1
  Si  Si154  1  0.14623133  0.58100060  0.38297067  1
  Si  Si155  1  0.15157708  0.09006949  0.39167992  1
  Si  Si156  1  0.68629113  0.33677924  0.11867723  1
  Si  Si157  1  0.46809205  0.08269217  0.88184665  1
  Si  Si158  1  0.35969774  0.83393615  0.61203067  1
  Si  Si159  1  0.30780312  0.33520478  0.38442506  1
  Si  Si160  1  0.02945082  0.67511509  0.11048969  1
  Si  Si161  1  0.30669486  0.33193410  0.88345731  1
  Si  Si162  1  0.68545798  0.66103854  0.11331146  1
  Si  Si163  1  0.52451422  0.58426082  0.61321477  1
  Si  Si164  1  0.30867819  0.66654545  0.38455960  1
  Si  Si165  1  0.47219289  0.91460620  0.38774748  1
  Si  Si166  1  0.97598775  0.66812410  0.88558076  1
  Si  Si167  1  0.80936005  0.42089224  0.39014743  1
  Si  Si168  1  0.63690788  0.66082305  0.88892037  1
  Si  Si169  1  0.52653336  0.57937717  0.11732581  1
  Si  Si170  1  0.02652582  0.83487497  0.61278628  1
  Si  Si171  1  0.80596978  0.90611394  0.39310708  1
  Si  Si172  1  0.19207940  0.08377566  0.61261339  1
  Si  Si173  1  0.18688013  0.41609888  0.11051015  1
  Si  Si174  1  0.14570872  0.08975840  0.88580178  1
  Si  Si175  1  0.69219367  0.83323866  0.61353028  1
  Si  Si176  1  0.46946027  0.42054705  0.38968040  1
  Si  Si177  1  0.02475989  0.33411223  0.61178816  1
  Si  Si178  1  0.35936212  0.16674682  0.61186070  1
  Si  Si179  1  0.81127318  0.91372113  0.88717866  1
  Si  Si180  1  0.69257095  0.33360748  0.61494137  1
  Si  Si181  1  0.85904866  0.91672480  0.61389597  1
  Si  Si182  1  0.85599382  0.41061741  0.11327414  1
  Si  Si183  1  0.36697106  0.66494296  0.11225958  1
  Si  Si184  1  0.85846922  0.41735165  0.61358574  1
  Si  Si185  1  0.19352860  0.08205851  0.11493184  1
  Si  Si186  1  0.35924394  0.33387272  0.61200795  1
  Si  Si187  1  0.85806283  0.58439484  0.61234626  1
  Si  Si188  1  0.30931523  0.16966766  0.88119361  1
  Si  Si189  1  0.14595631  0.59067454  0.88491845  1
  Si  Si190  1  0.64047429  0.15904575  0.39580560  1
  Si  Si191  1  0.69086316  0.66767543  0.61413286  1
  O  O192  1  0.27044975  0.11983033  0.08359289  1
  O  O193  1  0.26877478  0.12579947  0.58332329  1
  O  O194  1  0.29468748  0.61151052  0.07448482  1
  O  O195  1  0.26936403  0.62474544  0.58172190  1
  O  O196  1  0.61657195  0.12068298  0.07790494  1
  O  O197  1  0.60258271  0.12540271  0.58316010  1
  O  O198  1  0.61475898  0.59542654  0.09108137  1
  O  O199  1  0.60140240  0.62529883  0.58307195  1
  O  O200  1  0.95040252  0.11437101  0.07824316  1
  O  O201  1  0.93652484  0.12461860  0.58605668  1
  O  O202  1  0.95339075  0.62153393  0.07861390  1
  O  O203  1  0.93469522  0.62528301  0.58123136  1
  O  O204  1  0.10522090  0.36184784  0.08583049  1
  O  O205  1  0.10208309  0.37524166  0.58211558  1
  O  O206  1  0.11927468  0.86371349  0.08604564  1
  O  O207  1  0.10477089  0.87369415  0.58254859  1
  O  O208  1  0.43774986  0.36760499  0.08643409  1
  O  O209  1  0.43559463  0.37563344  0.58245530  1
  O  O210  1  0.44359722  0.85771061  0.08710196  1
  O  O211  1  0.43659285  0.87490178  0.58192547  1
  O  O212  1  0.76926590  0.36314395  0.08746584  1
  O  O213  1  0.76885667  0.37542902  0.58484550  1
  O  O214  1  0.78513254  0.83968542  0.07602912  1
  O  O215  1  0.76953138  0.87450268  0.58397399  1
  O  O216  1  0.27014814  0.38528945  0.08161922  1
  O  O217  1  0.26924979  0.37514872  0.58141297  1
  O  O218  1  0.28033180  0.88114536  0.08658119  1
  O  O219  1  0.27069700  0.87698852  0.58320473  1
  O  O220  1  0.60490674  0.38965633  0.08968774  1
  O  O221  1  0.60340623  0.37630399  0.58529019  1
  O  O222  1  0.60202802  0.89221038  0.08012510  1
  O  O223  1  0.60296288  0.87586563  0.58230304  1
  O  O224  1  0.93522948  0.36935509  0.08613422  1
  O  O225  1  0.93580301  0.37709717  0.58300876  1
  O  O226  1  0.96146671  0.89762232  0.08157183  1
  O  O227  1  0.93573651  0.87579962  0.58386200  1
  O  O228  1  0.11062621  0.13037230  0.08278966  1
  O  O229  1  0.10310439  0.12713156  0.58481061  1
  O  O230  1  0.11310076  0.65552819  0.07921530  1
  O  O231  1  0.10128506  0.62486193  0.57805468  1
  O  O232  1  0.42930073  0.14455642  0.07364389  1
  O  O233  1  0.43615550  0.12500659  0.58324179  1
  O  O234  1  0.45589410  0.63981446  0.08685958  1
  O  O235  1  0.43456998  0.62549918  0.58017504  1
  O  O236  1  0.77684251  0.16194761  0.08554068  1
  O  O237  1  0.77010000  0.12689956  0.58672288  1
  O  O238  1  0.76580284  0.64026126  0.07924140  1
  O  O239  1  0.76799845  0.62609734  0.58335054  1
  O  O240  1  0.07698565  0.12177771  0.42759132  1
  O  O241  1  0.06247901  0.12128941  0.91308113  1
  O  O242  1  0.06156830  0.60203400  0.41371761  1
  O  O243  1  0.06305978  0.62103065  0.91321792  1
  O  O244  1  0.39225286  0.11970681  0.41420621  1
  O  O245  1  0.38408687  0.11270489  0.91026020  1
  O  O246  1  0.39559665  0.62169426  0.41698931  1
  O  O247  1  0.38469054  0.61435399  0.91017848  1
  O  O248  1  0.71550464  0.10700447  0.43248860  1
  O  O249  1  0.70870218  0.10076644  0.91784356  1
  O  O250  1  0.73125155  0.62782218  0.41673074  1
  O  O251  1  0.70835615  0.60117387  0.91719849  1
  O  O252  1  0.22278665  0.36268351  0.41337187  1
  O  O253  1  0.22510830  0.34934818  0.91659020  1
  O  O254  1  0.23814261  0.86119111  0.42846597  1
  O  O255  1  0.22609799  0.85148830  0.91761189  1
  O  O256  1  0.54965012  0.37642661  0.42798798  1
  O  O257  1  0.54456731  0.36816618  0.92288658  1
  O  O258  1  0.55797572  0.86861448  0.41886688  1
  O  O259  1  0.54392435  0.86745862  0.92088180  1
  O  O260  1  0.90433032  0.38806710  0.41784399  1
  O  O261  1  0.88280144  0.34696482  0.90854420  1
  O  O262  1  0.87308040  0.84380151  0.42229834  1
  O  O263  1  0.87980663  0.84786815  0.91166610  1
  O  O264  1  0.06288516  0.39735909  0.41350672  1
  O  O265  1  0.04157918  0.39378690  0.91830262  1
  O  O266  1  0.05712289  0.89178242  0.43531452  1
  O  O267  1  0.04188662  0.88971661  0.92218353  1
  O  O268  1  0.38322987  0.39099879  0.41645192  1
  O  O269  1  0.38126417  0.39022891  0.91103701  1
  O  O270  1  0.39785348  0.87357409  0.41913432  1
  O  O271  1  0.38134881  0.89104292  0.91169273  1
  O  O272  1  0.74226898  0.38146159  0.42802960  1
  O  O273  1  0.73171088  0.39319291  0.92141162  1
  O  O274  1  0.71739095  0.87898870  0.41920503  1
  O  O275  1  0.72749348  0.89855233  0.91864766  1
  O  O276  1  0.23213028  0.14641760  0.41731931  1
  O  O277  1  0.22288900  0.14898538  0.90924928  1
  O  O278  1  0.22798162  0.63162875  0.41492538  1
  O  O279  1  0.22371619  0.64846555  0.90950174  1
  O  O280  1  0.55434768  0.12435635  0.42034771  1
  O  O281  1  0.54722493  0.13479926  0.91202998  1
  O  O282  1  0.56342112  0.62693896  0.41647635  1
  O  O283  1  0.54836392  0.63398053  0.91503990  1
  O  O284  1  0.89570721  0.13565927  0.43716103  1
  O  O285  1  0.89945347  0.14887438  0.91897841  1
  O  O286  1  0.89831528  0.62538388  0.41597847  1
  O  O287  1  0.90122230  0.64295194  0.92377713  1
  O  O288  1  0.18436218  -0.00161568  0.08543566  1
  O  O289  1  0.18506556  0.00086992  0.58374695  1
  O  O290  1  0.16118254  0.49274510  0.07614345  1
  O  O291  1  0.18567259  0.50013769  0.58027193  1
  O  O292  1  0.48794251  -0.00726423  0.08078228  1
  O  O293  1  0.51932227  0.00040852  0.58441327  1
  O  O294  1  0.49592407  0.49903194  0.08802379  1
  O  O295  1  0.51830185  0.50049322  0.58273399  1
  O  O296  1  0.81049729  0.00018746  0.07188242  1
  O  O297  1  0.85054225  0.00054376  0.58576035  1
  O  O298  1  0.84220474  0.48793440  0.07766213  1
  O  O299  1  0.85136439  0.50042956  0.58309719  1
  O  O300  1  0.01544536  0.24615960  0.08524401  1
  O  O301  1  0.01859736  0.25043361  0.58394450  1
  O  O302  1  0.00460034  0.75829187  0.08482706  1
  O  O303  1  0.01847291  0.75030675  0.58537473  1
  O  O304  1  0.33026570  0.25612620  0.07832738  1
  O  O305  1  0.35232174  0.25034886  0.58297160  1
  O  O306  1  0.34349218  0.74798006  0.08611709  1
  O  O307  1  0.35190353  0.75101538  0.58107624  1
  O  O308  1  0.65881786  0.25709615  0.09023108  1
  O  O309  1  0.68501866  0.25066839  0.58510601  1
  O  O310  1  0.64152047  0.73554849  0.08595692  1
  O  O311  1  0.68385224  0.75050103  0.58193453  1
  O  O312  1  0.18245205  0.01287623  0.42378632  1
  O  O313  1  0.17335880  0.01367009  0.92040617  1
  O  O314  1  0.17513804  0.49945709  0.41085462  1
  O  O315  1  0.17498087  0.51381002  0.91879382  1
  O  O316  1  0.47968456  -0.00421380  0.42154915  1
  O  O317  1  0.48411928  0.00123614  0.91109700  1
  O  O318  1  0.48234861  0.50426291  0.42026195  1
  O  O319  1  0.48268370  0.50151368  0.91346429  1
  O  O320  1  0.83126265  -0.01784398  0.43003192  1
  O  O321  1  0.85608783  -0.01069624  0.91379531  1
  O  O322  1  0.81462184  0.50535602  0.41838079  1
  O  O323  1  0.85368803  0.48864934  0.91634260  1
  O  O324  1  0.33385604  0.25511648  0.41583336  1
  O  O325  1  0.34082646  0.25012098  0.90750890  1
  O  O326  1  0.32709111  0.74655384  0.41665195  1
  O  O327  1  0.33961613  0.75096899  0.90835992  1
  O  O328  1  0.65046404  0.23805398  0.43218874  1
  O  O329  1  0.66210860  0.23813802  0.92273130  1
  O  O330  1  0.64586430  0.74898724  0.41719332  1
  O  O331  1  0.66264283  0.73830585  0.92383183  1
  O  O332  1  0.99874324  0.26936815  0.42681502  1
  O  O333  1  1.00900172  0.25405441  0.90975845  1
  O  O334  1  1.00787399  0.73334973  0.42681969  1
  O  O335  1  1.00236546  0.75207606  0.90692278  1
  O  O336  1  0.20190066  0.08162195  0.19416997  1
  O  O337  1  0.20968317  0.08488514  0.69294947  1
  O  O338  1  0.21286556  0.58385115  0.19828251  1
  O  O339  1  0.20592237  0.58291923  0.68996815  1
  O  O340  1  0.55080468  0.07700857  0.20106009  1
  O  O341  1  0.54518637  0.08670091  0.69334935  1
  O  O342  1  0.54250546  0.58116902  0.19826449  1
  O  O343  1  0.53712200  0.58348297  0.69213406  1
  O  O344  1  0.87953871  0.08235265  0.20223735  1
  O  O345  1  0.87860088  0.08458455  0.69474799  1
  O  O346  1  0.87890666  0.58174124  0.20202503  1
  O  O347  1  0.87755718  0.58350672  0.69174232  1
  O  O348  1  0.04246445  0.33239405  0.19541873  1
  O  O349  1  0.04271255  0.33356230  0.69186215  1
  O  O350  1  0.04782391  0.83475547  0.19392106  1
  O  O351  1  0.04680036  0.84020067  0.69167540  1
  O  O352  1  0.36756299  0.33653186  0.19237899  1
  O  O353  1  0.37602023  0.33348149  0.69224928  1
  O  O354  1  0.37814276  0.83061472  0.19722666  1
  O  O355  1  0.37684828  0.83373276  0.69197472  1
  O  O356  1  0.71128353  0.33819039  0.19863828  1
  O  O357  1  0.71150976  0.33178895  0.69471022  1
  O  O358  1  0.71310915  0.83101634  0.20432369  1
  O  O359  1  0.70910159  0.83349272  0.69314481  1
  O  O360  1  0.20761250  0.41698117  0.19175320  1
  O  O361  1  0.21113141  0.41647826  0.69045805  1
  O  O362  1  0.21420095  0.91652803  0.19556814  1
  O  O363  1  0.21157172  0.91791918  0.69241784  1
  O  O364  1  0.54151818  0.42086950  0.19772173  1
  O  O365  1  0.54063688  0.41641627  0.69286700  1
  O  O366  1  0.54283772  0.91236940  0.19491660  1
  O  O367  1  0.54325190  0.91408802  0.69249695  1
  O  O368  1  0.87622713  0.41478259  0.19472296  1
  O  O369  1  0.87804169  0.41566141  0.69354448  1
  O  O370  1  0.87784927  0.91736801  0.20262492  1
  O  O371  1  0.87613049  0.91708714  0.69397101  1
  O  O372  1  0.04620252  0.16618639  0.19408325  1
  O  O373  1  0.04395498  0.16833135  0.69399662  1
  O  O374  1  0.04522285  0.66921243  0.19246884  1
  O  O375  1  0.04748071  0.65956102  0.69054583  1
  O  O376  1  0.36992808  0.17765729  0.18799678  1
  O  O377  1  0.37590412  0.16732159  0.69198938  1
  O  O378  1  0.38116687  0.66124207  0.19254973  1
  O  O379  1  0.37779892  0.66952047  0.69082227  1
  O  O380  1  0.70796920  0.16981085  0.19627020  1
  O  O381  1  0.70772831  0.16776033  0.69448673  1
  O  O382  1  0.70879597  0.66201597  0.19539701  1
  O  O383  1  0.70771225  0.66973427  0.69303299  1
  O  O384  1  0.12834862  0.08791954  0.31035335  1
  O  O385  1  0.12547850  0.08672316  0.80419535  1
  O  O386  1  0.12499988  0.58330188  0.30303415  1
  O  O387  1  0.12512466  0.58585468  0.80362029  1
  O  O388  1  0.46069030  0.07114860  0.30955651  1
  O  O389  1  0.45127733  0.08571447  0.80178646  1
  O  O390  1  0.45682557  0.58399646  0.30699274  1
  O  O391  1  0.45604566  0.58230466  0.80285615  1
  O  O392  1  0.78922461  0.08216138  0.30358076  1
  O  O393  1  0.78858333  0.08341396  0.79801542  1
  O  O394  1  0.78842918  0.58375302  0.30668677  1
  O  O395  1  0.78853882  0.58202405  0.79703000  1
  O  O396  1  0.28722091  0.33703101  0.30447195  1
  O  O397  1  0.28952082  0.33337092  0.80178694  1
  O  O398  1  0.28924816  0.83365454  0.30927765  1
  O  O399  1  0.28996830  0.83459416  0.80188254  1
  O  O400  1  0.62624994  0.33370628  0.30504547  1
  O  O401  1  0.62092945  0.33279362  0.79850637  1
  O  O402  1  0.61918821  0.82998391  0.30711735  1
  O  O403  1  0.62075240  0.83141003  0.79877778  1
  O  O404  1  0.95878962  0.33829805  0.30784761  1
  O  O405  1  0.95818092  0.33483798  0.80276729  1
  O  O406  1  0.95853959  0.82985103  0.30137529  1
  O  O407  1  0.95176273  0.84290095  0.80551216  1
  O  O408  1  0.12570701  0.41756242  0.30208117  1
  O  O409  1  0.12275507  0.41839357  0.79628288  1
  O  O410  1  0.12274229  0.91559640  0.30111854  1
  O  O411  1  0.12214755  0.91905035  0.79845202  1
  O  O412  1  0.45266616  0.42337835  0.31010902  1
  O  O413  1  0.45503022  0.41582099  0.80492873  1
  O  O414  1  0.45739745  0.91257346  0.30815237  1
  O  O415  1  0.45252232  0.91419915  0.80401882  1
  O  O416  1  0.79142635  0.41915655  0.30936334  1
  O  O417  1  0.79087427  0.41432281  0.80544744  1
  O  O418  1  0.78913282  0.91248842  0.31242917  1
  O  O419  1  0.78903929  0.91491508  0.80477344  1
  O  O420  1  0.28868818  0.17591500  0.30542232  1
  O  O421  1  0.29002019  0.16764255  0.80016707  1
  O  O422  1  0.29070914  0.66343088  0.30551879  1
  O  O423  1  0.28979963  0.66922458  0.79986852  1
  O  O424  1  0.63505097  0.16515084  0.31643172  1
  O  O425  1  0.62159630  0.16486084  0.80694235  1
  O  O426  1  0.62321298  0.66491530  0.30627329  1
  O  O427  1  0.61764109  0.66700131  0.80781656  1
  O  O428  1  0.95714117  0.17018072  0.30218386  1
  O  O429  1  0.95924099  0.16852458  0.80420243  1
  O  O430  1  0.96188552  0.66379221  0.30764914  1
  O  O431  1  0.95173762  0.65884694  0.80580125  1
  F  F432  1  0.04678687  0.00324949  0.20668801  1
  F  F433  1  0.04497835  0.00549319  0.69897694  1
  F  F434  1  0.04472334  0.49938795  0.20097352  1
  F  F435  1  0.04438351  0.50164680  0.69779483  1
  F  F436  1  0.38303352  -0.01428766  0.19909458  1
  F  F437  1  0.37117052  0.00004113  0.69577679  1
  F  F438  1  0.37933144  0.50019858  0.20330503  1
  F  F439  1  0.38106510  0.49351447  0.69591949  1
  F  F440  1  0.71270186  -0.00304595  0.20636835  1
  F  F441  1  0.71066630  -0.00261297  0.69972452  1
  F  F442  1  0.71162720  0.49800319  0.20641201  1
  F  F443  1  0.71437827  0.48776034  0.69460597  1
  F  F444  1  0.20951986  0.25158967  0.20101781  1
  F  F445  1  0.21124301  0.25135412  0.69800491  1
  F  F446  1  0.21169809  0.75251312  0.20258799  1
  F  F447  1  0.21258871  0.75194419  0.69543128  1
  F  F448  1  0.55171338  0.25739282  0.19898943  1
  F  F449  1  0.54299389  0.24773551  0.69978373  1
  F  F450  1  0.54567772  0.74739186  0.20408824  1
  F  F451  1  0.54244490  0.74746414  0.69894639  1
  F  F452  1  0.87883580  0.25503165  0.20399757  1
  F  F453  1  0.87865939  0.25006224  0.70146517  1
  F  F454  1  0.87949082  0.74600236  0.20360162  1
  F  F455  1  0.86570734  0.74950482  0.69775318  1
  F  F456  1  0.28664412  -0.00925305  0.30317271  1
  F  F457  1  0.28731780  0.00179310  0.79512010  1
  F  F458  1  0.28808747  0.49892404  0.29769082  1
  F  F459  1  0.28646364  0.49803251  0.79478918  1
  F  F460  1  0.62225533  -0.00746249  0.30241465  1
  F  F461  1  0.62102879  -0.00082147  0.79628414  1
  F  F462  1  0.62169425  0.50193114  0.30275187  1
  F  F463  1  0.61705452  0.49644526  0.79581968  1
  F  F464  1  0.95939690  0.00035607  0.30512962  1
  F  F465  1  0.95620846  0.00242731  0.79519317  1
  F  F466  1  0.95798317  0.49810966  0.29890357  1
  F  F467  1  0.95434518  0.49986935  0.79338180  1
  F  F468  1  0.12151956  0.25241202  0.29739785  1
  F  F469  1  0.12256657  0.25117710  0.79397963  1
  F  F470  1  0.12321947  0.74758198  0.29821510  1
  F  F471  1  0.13456323  0.74931723  0.79657182  1
  F  F472  1  0.44632862  0.26133148  0.30705081  1
  F  F473  1  0.45300271  0.24983298  0.79447874  1
  F  F474  1  0.46101230  0.74707693  0.30233703  1
  F  F475  1  0.45254982  0.75004545  0.79461663  1
  F  F476  1  0.78961623  0.25163214  0.30009947  1
  F  F477  1  0.78829021  0.24942720  0.79648245  1
  F  F478  1  0.78825786  0.74255587  0.30077234  1
  F  F479  1  0.78558045  0.74929688  0.79794055  1
