# generated using pymatgen
data_K24Na3Li5Mg64Fe17Si79(O5F)48
_symmetry_space_group_name_H-M   'P 1'
_cell_length_a   16.09555970
_cell_length_b   18.60895600
_cell_length_c   20.56475683
_cell_angle_alpha   89.99401890
_cell_angle_beta   100.04672721
_cell_angle_gamma   90.01025446
_symmetry_Int_Tables_number   1
_chemical_formula_structural   K24Na3Li5Mg64Fe17Si79(O5F)48
_chemical_formula_sum   'K24 Na3 Li5 Mg64 Fe17 Si79 O240 F48'
_cell_volume   6065.13567495
_cell_formula_units_Z   1
loop_
 _symmetry_equiv_pos_site_id
 _symmetry_equiv_pos_as_xyz
  1  'x, y, z'
loop_
 _atom_site_type_symbol
 _atom_site_label
 _atom_site_symmetry_multiplicity
 _atom_site_fract_x
 _atom_site_fract_y
 _atom_site_fract_z
 _atom_site_occupancy
  K  K0  1  -0.00552417  -0.00125104  -0.00004704  1
  K  K1  1  -0.00716469  -0.00020777  0.49624070  1
  K  K2  1  -0.00190764  0.50132079  0.00697238  1
  K  K3  1  0.00562839  0.49984280  0.48922727  1
  K  K4  1  0.33737792  -0.00196015  0.00268305  1
  K  K5  1  0.34132391  -0.00400687  0.49826385  1
  K  K6  1  0.33508260  0.50087808  0.01594418  1
  K  K7  1  0.33483032  0.50047448  0.48322130  1
  K  K8  1  0.66906495  -0.01436505  0.00284318  1
  K  K9  1  0.66524078  0.00370619  0.50021683  1
  K  K10  1  0.67586347  0.49442112  0.01062671  1
  K  K11  1  0.66186007  0.50142346  0.48389233  1
  K  K12  1  0.18061847  0.25151478  0.00995915  1
  K  K13  1  0.15391927  0.25389916  0.49240027  1
  K  K14  1  0.16819020  0.74161139  0.00603447  1
  K  K15  1  0.16466829  0.76042455  0.49399301  1
  K  K16  1  0.49949191  0.25438248  0.01187005  1
  K  K17  1  0.50737386  0.24846205  0.48825515  1
  K  K18  1  0.49992541  0.75128089  0.01162766  1
  K  K19  1  0.50254531  0.75267961  0.49005315  1
  K  K20  1  0.83681638  0.25620237  0.01208376  1
  K  K21  1  0.83569241  0.23359519  0.49437932  1
  K  K22  1  0.82574116  0.74818654  0.00691423  1
  K  K23  1  0.84035936  0.74891911  0.49219340  1
  Na  Na24  1  0.34040298  0.25281698  0.25383510  1
  Na  Na25  1  0.66927563  0.92143749  0.74079972  1
  Na  Na26  1  0.33638074  0.57959743  0.24075614  1
  Li  Li27  1  0.49203121  0.49525750  0.24297090  1
  Li  Li28  1  0.82964591  -0.00181970  0.73882345  1
  Li  Li29  1  0.83182907  0.83342783  0.25117776  1
  Li  Li30  1  0.50008873  0.82888980  0.24457458  1
  Li  Li31  1  0.49553561  0.33862531  0.25062904  1
  Mg  Mg32  1  0.49883977  -0.00215306  0.24739129  1
  Mg  Mg33  1  0.33284838  0.75193757  0.74602668  1
  Mg  Mg34  1  -0.00111030  0.25063322  0.25214102  1
  Mg  Mg35  1  0.83539209  0.50009578  0.24916245  1
  Mg  Mg36  1  0.66712022  0.75104403  0.24739284  1
  Mg  Mg37  1  0.16941020  0.00000696  0.74564059  1
  Mg  Mg38  1  0.00029835  0.75068773  0.75379157  1
  Mg  Mg39  1  -0.00068676  0.24650077  0.74981791  1
  Mg  Mg40  1  0.83078632  0.50110566  0.75622391  1
  Mg  Mg41  1  0.16325572  0.50005623  0.75825209  1
  Mg  Mg42  1  0.33756945  0.75005465  0.24497166  1
  Mg  Mg43  1  0.66571069  0.75225821  0.74854800  1
  Mg  Mg44  1  0.16596622  0.00068184  0.25290559  1
  Mg  Mg45  1  -0.00279916  0.75344329  0.25048795  1
  Mg  Mg46  1  0.33235793  0.25096995  0.75533638  1
  Mg  Mg47  1  0.49763448  0.50114949  0.75362729  1
  Mg  Mg48  1  0.66237938  0.25070354  0.25011156  1
  Mg  Mg49  1  0.83111533  -0.00568092  0.25195992  1
  Mg  Mg50  1  0.16988053  0.49848443  0.24889169  1
  Mg  Mg51  1  0.50268858  -0.00017598  0.74463583  1
  Mg  Mg52  1  0.66677588  0.25014020  0.75096378  1
  Mg  Mg53  1  0.49941281  0.66574308  0.24424911  1
  Mg  Mg54  1  0.83243687  0.83621788  0.74821505  1
  Mg  Mg55  1  0.66300708  0.58173861  0.24750954  1
  Mg  Mg56  1  0.49938003  0.83577180  0.74333376  1
  Mg  Mg57  1  0.66641910  0.58506817  0.75413760  1
  Mg  Mg58  1  0.00301148  0.58565616  0.25093300  1
  Mg  Mg59  1  0.66434161  0.91210424  0.24758349  1
  Mg  Mg60  1  0.33421551  0.91567733  0.74299023  1
  Mg  Mg61  1  -0.00145231  0.91563400  0.25076089  1
  Mg  Mg62  1  0.16763988  0.16802587  0.25258928  1
  Mg  Mg63  1  0.83235899  0.66617270  0.75702519  1
  Mg  Mg64  1  0.83362441  0.16451528  0.25379102  1
  Mg  Mg65  1  0.16678890  0.33349555  0.75715812  1
  Mg  Mg66  1  0.00158751  0.41582150  0.25128406  1
  Mg  Mg67  1  0.50070390  0.16642327  0.74979871  1
  Mg  Mg68  1  -0.00206286  0.08108612  0.74806870  1
  Mg  Mg69  1  0.16530547  0.66512594  0.75517118  1
  Mg  Mg70  1  0.49767932  0.66726731  0.74948704  1
  Mg  Mg71  1  0.83300451  0.66903569  0.24831685  1
  Mg  Mg72  1  0.33657247  0.41707028  0.24818825  1
  Mg  Mg73  1  0.83275212  0.33272839  0.75323442  1
  Mg  Mg74  1  -0.00004010  0.58463677  0.75870080  1
  Mg  Mg75  1  0.33107313  0.41579090  0.75649094  1
  Mg  Mg76  1  0.17005157  0.33506357  0.24998585  1
  Mg  Mg77  1  0.16685253  0.83546337  0.25082403  1
  Mg  Mg78  1  0.49802010  0.33535786  0.75477012  1
  Mg  Mg79  1  0.66598929  0.41639616  0.75449449  1
  Mg  Mg80  1  0.33441548  0.08452657  0.25026218  1
  Mg  Mg81  1  0.33016705  0.58510424  0.75185579  1
  Mg  Mg82  1  0.50204736  0.16961667  0.24967849  1
  Mg  Mg83  1  0.66887135  0.08415918  0.74633704  1
  Mg  Mg84  1  0.66634684  0.08250527  0.25157186  1
  Mg  Mg85  1  0.16456804  0.16557086  0.74923390  1
  Mg  Mg86  1  0.83388164  0.33465124  0.25193107  1
  Mg  Mg87  1  0.33473963  0.91450491  0.24658498  1
  Mg  Mg88  1  0.00011531  0.08412626  0.25445591  1
  Mg  Mg89  1  0.66386396  0.41658265  0.25139206  1
  Mg  Mg90  1  -0.00178111  0.91740837  0.74747922  1
  Mg  Mg91  1  0.33333409  0.08495048  0.74888796  1
  Mg  Mg92  1  0.16977083  0.66687961  0.24714617  1
  Mg  Mg93  1  -0.00113235  0.41476008  0.75598102  1
  Mg  Mg94  1  0.83354762  0.16093811  0.74709520  1
  Mg  Mg95  1  0.16769851  0.83588183  0.74583792  1
  Fe  Fe96  1  0.19332690  0.41455087  0.10817789  1
  Fe  Fe97  1  0.14026058  0.58360094  0.89676143  1
  Fe  Fe98  1  0.14610882  0.91987606  0.39067401  1
  Fe  Fe99  1  0.86244426  0.41684191  0.11187301  1
  Fe  Fe100  1  0.02495605  0.16876552  0.61023486  1
  Fe  Fe101  1  0.80371958  0.58222907  0.89515245  1
  Fe  Fe102  1  0.15098763  0.41572282  0.39039533  1
  Fe  Fe103  1  0.97533456  0.16514773  0.39127344  1
  Fe  Fe104  1  0.97133115  0.83516323  0.39005692  1
  Fe  Fe105  1  0.85546111  0.07375226  0.60865468  1
  Fe  Fe106  1  0.19031261  0.92255352  0.60568661  1
  Fe  Fe107  1  0.63586765  0.16794946  0.38888766  1
  Fe  Fe108  1  0.68854306  0.83164293  0.10835243  1
  Fe  Fe109  1  0.35989737  0.66762776  0.10249691  1
  Fe  Fe110  1  0.36237882  0.83069420  0.60295487  1
  Fe  Fe111  1  0.53214868  0.91825025  0.60293686  1
  Fe  Fe112  1  0.31044591  0.33118582  0.89621486  1
  Si  Si113  1  0.15031580  0.08665600  0.38984815  1
  Si  Si114  1  0.18804556  0.57908301  0.61807912  1
  Si  Si115  1  0.47747065  0.07974637  0.88371783  1
  Si  Si116  1  0.13581624  0.41029337  0.89309435  1
  Si  Si117  1  0.14367336  0.08059377  0.88527344  1
  Si  Si118  1  0.47877494  0.91636255  0.88276137  1
  Si  Si119  1  0.47175553  0.58855861  0.88551728  1
  Si  Si120  1  0.31276150  0.16033515  0.88921212  1
  Si  Si121  1  0.85631519  0.42101964  0.61981660  1
  Si  Si122  1  0.69221032  0.17262211  0.61300340  1
  Si  Si123  1  0.36093888  0.17152908  0.61663279  1
  Si  Si124  1  0.85599310  0.58412902  0.61947413  1
  Si  Si125  1  0.80962153  0.91933017  0.88169956  1
  Si  Si126  1  0.19486046  0.09340192  0.61220334  1
  Si  Si127  1  0.47069869  0.91600512  0.38026056  1
  Si  Si128  1  0.31663822  0.33195407  0.39018545  1
  Si  Si129  1  0.64428057  0.33725644  0.38785988  1
  Si  Si130  1  0.36077588  0.16623917  0.11478603  1
  Si  Si131  1  0.79829245  0.91249272  0.38600631  1
  Si  Si132  1  0.02384372  0.16269623  0.11645760  1
  Si  Si133  1  0.02742749  0.82714335  0.61380944  1
  Si  Si134  1  0.46842278  0.08023620  0.38599183  1
  Si  Si135  1  0.47883879  0.58281578  0.38109501  1
  Si  Si136  1  0.35552637  0.33597529  0.61856886  1
  Si  Si137  1  0.02721628  0.32621415  0.11148915  1
  Si  Si138  1  0.14498870  0.91603206  0.88431059  1
  Si  Si139  1  0.80271289  0.07657390  0.38848577  1
  Si  Si140  1  0.18751781  0.41576945  0.62016056  1
  Si  Si141  1  0.63461708  0.66939261  0.88783373  1
  Si  Si142  1  0.86114729  0.58852585  0.11406067  1
  Si  Si143  1  0.64159725  0.66763917  0.38299408  1
  Si  Si144  1  0.97939233  0.66422566  0.38741359  1
  Si  Si145  1  0.52963283  0.41177094  0.11632532  1
  Si  Si146  1  0.96954387  0.67364342  0.89375842  1
  Si  Si147  1  0.70082075  0.82580694  0.61042486  1
  Si  Si148  1  0.97100971  0.32665557  0.88752042  1
  Si  Si149  1  0.31075418  0.82950466  0.38264012  1
  Si  Si150  1  0.80840405  0.40988833  0.89014448  1
  Si  Si151  1  0.02452099  0.67411021  0.11496374  1
  Si  Si152  1  0.18128321  0.58396265  0.10933106  1
  Si  Si153  1  0.14978656  0.58703047  0.38618661  1
  Si  Si154  1  0.35365104  0.83869248  0.10760273  1
  Si  Si155  1  0.69085364  0.33734799  0.61756821  1
  Si  Si156  1  0.69055901  0.66222679  0.11199960  1
  Si  Si157  1  0.52284363  0.41653733  0.61805968  1
  Si  Si158  1  0.31387711  0.66892789  0.38035912  1
  Si  Si159  1  0.64062170  0.16701785  0.88613541  1
  Si  Si160  1  0.19095652  0.92086042  0.11231281  1
  Si  Si161  1  0.52141379  0.92148204  0.10922887  1
  Si  Si162  1  0.63833489  0.33295888  0.88819542  1
  Si  Si163  1  0.30851135  0.16682920  0.38433745  1
  Si  Si164  1  0.80870432  0.58563038  0.38304968  1
  Si  Si165  1  0.80567477  0.42054673  0.38601857  1
  Si  Si166  1  0.52424069  0.08476577  0.11299310  1
  Si  Si167  1  0.69270001  0.16414393  0.11536279  1
  Si  Si168  1  0.63379737  0.83287496  0.38157276  1
  Si  Si169  1  0.47729680  0.42372337  0.89102005  1
  Si  Si170  1  0.47620003  0.41889311  0.38376530  1
  Si  Si171  1  0.85733170  0.08139026  0.11524306  1
  Si  Si172  1  0.97675294  0.83911214  0.88628275  1
  Si  Si173  1  0.64319716  0.83285786  0.88190565  1
  Si  Si174  1  0.31299390  0.83568598  0.88378141  1
  Si  Si175  1  0.68820846  0.66462133  0.61557037  1
  Si  Si176  1  0.97607786  0.16223122  0.88701760  1
  Si  Si177  1  0.36365143  0.33412502  0.11294060  1
  Si  Si178  1  0.53067489  0.57658550  0.11014889  1
  Si  Si179  1  0.35216785  0.65985325  0.61202224  1
  Si  Si180  1  0.52461589  0.09173411  0.61099191  1
  Si  Si181  1  0.19185498  0.08573267  0.11476998  1
  Si  Si182  1  0.86088088  0.90468279  0.61068976  1
  Si  Si183  1  0.02240582  0.66283980  0.61868394  1
  Si  Si184  1  0.85984134  0.91836724  0.11146527  1
  Si  Si185  1  0.80587104  0.08544722  0.88568176  1
  Si  Si186  1  0.02633767  0.83865549  0.11306819  1
  Si  Si187  1  0.97377192  0.33813074  0.39161408  1
  Si  Si188  1  0.52299174  0.58135916  0.61639149  1
  Si  Si189  1  0.30865511  0.67141116  0.88698537  1
  Si  Si190  1  0.01876555  0.33774749  0.61748937  1
  Si  Si191  1  0.69271965  0.32968342  0.11367927  1
  O  O192  1  0.27081629  0.12280922  0.08468736  1
  O  O193  1  0.28628518  0.11511148  0.58835482  1
  O  O194  1  0.25978509  0.61437048  0.07687996  1
  O  O195  1  0.27123308  0.60437876  0.58813051  1
  O  O196  1  0.60554531  0.11991644  0.08450561  1
  O  O197  1  0.60374590  0.13088047  0.58411464  1
  O  O198  1  0.61817120  0.60198726  0.08323636  1
  O  O199  1  0.60418926  0.61451568  0.58727767  1
  O  O200  1  0.93927661  0.11455562  0.08656556  1
  O  O201  1  0.94769932  0.10213562  0.57188801  1
  O  O202  1  0.93825867  0.62987755  0.08541207  1
  O  O203  1  0.93777407  0.61416883  0.58951135  1
  O  O204  1  0.11028177  0.34456266  0.08052418  1
  O  O205  1  0.10409897  0.36799795  0.59066843  1
  O  O206  1  0.10480945  0.87523916  0.08205453  1
  O  O207  1  0.10790611  0.84943859  0.58227712  1
  O  O208  1  0.44782374  0.36272932  0.08367346  1
  O  O209  1  0.43629929  0.37118450  0.58937290  1
  O  O210  1  0.42922191  0.88398623  0.08025079  1
  O  O211  1  0.45530330  0.85046845  0.56424676  1
  O  O212  1  0.76600496  0.36181676  0.07725159  1
  O  O213  1  0.77127991  0.37388172  0.59005063  1
  O  O214  1  0.78114794  0.87162223  0.07398225  1
  O  O215  1  0.79225225  0.83900494  0.58619368  1
  O  O216  1  0.28479266  0.37821319  0.07139883  1
  O  O217  1  0.27055876  0.38410468  0.59228176  1
  O  O218  1  0.26758420  0.88797607  0.07886461  1
  O  O219  1  0.28229320  0.89790527  0.56882342  1
  O  O220  1  0.60598932  0.37361671  0.08307952  1
  O  O221  1  0.60416303  0.38354355  0.58953521  1
  O  O222  1  0.59136881  0.88574011  0.07136714  1
  O  O223  1  0.63436967  0.88537294  0.57718734  1
  O  O224  1  0.94887356  0.37498980  0.07448668  1
  O  O225  1  0.94123661  0.39639184  0.59237040  1
  O  O226  1  0.94470976  0.88872508  0.08281357  1
  O  O227  1  0.94645562  0.87748995  0.58312326  1
  O  O228  1  0.10403092  0.12943739  0.08495845  1
  O  O229  1  0.13262539  0.15979181  0.58665219  1
  O  O230  1  0.10124968  0.64070995  0.08246437  1
  O  O231  1  0.10296334  0.62714263  0.58992523  1
  O  O232  1  0.43793140  0.13006539  0.08124008  1
  O  O233  1  0.44517970  0.14866367  0.58741548  1
  O  O234  1  0.45219028  0.62318907  0.07098652  1
  O  O235  1  0.43555943  0.62323698  0.58609611  1
  O  O236  1  0.77202736  0.12865200  0.08424345  1
  O  O237  1  0.76700505  0.14155224  0.57927595  1
  O  O238  1  0.77740729  0.63702972  0.08579894  1
  O  O239  1  0.77101217  0.63047352  0.58870124  1
  O  O240  1  0.06985979  0.10835999  0.42340035  1
  O  O241  1  0.06302722  0.11571432  0.91486510  1
  O  O242  1  0.06536328  0.61630675  0.41459649  1
  O  O243  1  0.04714762  0.62333741  0.92779895  1
  O  O244  1  0.38184380  0.10726100  0.41274680  1
  O  O245  1  0.39448863  0.10605101  0.91403173  1
  O  O246  1  0.39712095  0.61825505  0.40947366  1
  O  O247  1  0.38796779  0.61587867  0.91320598  1
  O  O248  1  0.72158035  0.10247195  0.41962013  1
  O  O249  1  0.72956062  0.12595077  0.91766922  1
  O  O250  1  0.73224126  0.62661123  0.41352152  1
  O  O251  1  0.70443789  0.61332774  0.92368943  1
  O  O252  1  0.24462681  0.35897885  0.43148253  1
  O  O253  1  0.20620345  0.35038988  0.92058948  1
  O  O254  1  0.23093367  0.84995024  0.41595280  1
  O  O255  1  0.23258087  0.87094253  0.91379807  1
  O  O256  1  0.56623460  0.37935736  0.41544593  1
  O  O257  1  0.56271146  0.37421987  0.91727220  1
  O  O258  1  0.55152324  0.86438819  0.41016426  1
  O  O259  1  0.56487232  0.87086371  0.91246726  1
  O  O260  1  0.89141884  0.37716130  0.41743261  1
  O  O261  1  0.88474086  0.35126464  0.91391870  1
  O  O262  1  0.87080860  0.85835038  0.42066510  1
  O  O263  1  0.90012496  0.88017378  0.91624490  1
  O  O264  1  0.05421115  0.38720934  0.42417942  1
  O  O265  1  0.04648397  0.38233601  0.91642753  1
  O  O266  1  0.05531776  0.89681208  0.43008977  1
  O  O267  1  0.06531429  0.88277030  0.91520296  1
  O  O268  1  0.40406464  0.37859986  0.41970131  1
  O  O269  1  0.40102800  0.39603670  0.92558625  1
  O  O270  1  0.39053671  0.88338357  0.41008619  1
  O  O271  1  0.39731593  0.88464293  0.91308647  1
  O  O272  1  0.72754674  0.38827329  0.41838591  1
  O  O273  1  0.72626765  0.37461668  0.91733407  1
  O  O274  1  0.71192549  0.88546079  0.41365327  1
  O  O275  1  0.73022924  0.87922727  0.90963014  1
  O  O276  1  0.22320765  0.14968459  0.41502577  1
  O  O277  1  0.23054955  0.12437845  0.91666711  1
  O  O278  1  0.23212668  0.64047372  0.41258830  1
  O  O279  1  0.23054686  0.64848831  0.92143574  1
  O  O280  1  0.54333763  0.13070239  0.42315966  1
  O  O281  1  0.56155937  0.12819247  0.91404492  1
  O  O282  1  0.56708365  0.62680254  0.41618758  1
  O  O283  1  0.54486292  0.64773919  0.91194939  1
  O  O284  1  0.88235586  0.12568940  0.42080792  1
  O  O285  1  0.89749085  0.12451956  0.91740325  1
  O  O286  1  0.89918571  0.62327881  0.41464608  1
  O  O287  1  0.88477602  0.65301740  0.92254243  1
  O  O288  1  0.17721640  0.00405311  0.08326740  1
  O  O289  1  0.15965619  0.01785914  0.57998219  1
  O  O290  1  0.15387324  0.50581637  0.07694328  1
  O  O291  1  0.16743225  0.49702167  0.58998346  1
  O  O292  1  0.50871137  0.00516627  0.07931297  1
  O  O293  1  0.50527437  0.01558740  0.57472957  1
  O  O294  1  0.51687457  0.49250763  0.08286504  1
  O  O295  1  0.51001788  0.49834484  0.58832167  1
  O  O296  1  0.84438107  0.00169723  0.08087141  1
  O  O297  1  0.82667907  -0.02077796  0.57630085  1
  O  O298  1  0.84730458  0.51109004  0.07837421  1
  O  O299  1  0.83522517  0.50252586  0.59076187  1
  O  O300  1  0.00154307  0.24213259  0.08558359  1
  O  O301  1  -0.01208109  0.26331445  0.58294222  1
  O  O302  1  0.01091005  0.75658581  0.08388678  1
  O  O303  1  0.00219664  0.74313613  0.58881322  1
  O  O304  1  0.35051312  0.24811326  0.08595482  1
  O  O305  1  0.33810466  0.25440423  0.58951428  1
  O  O306  1  0.34202882  0.76326332  0.06803237  1
  O  O307  1  0.32776126  0.73449181  0.57569821  1
  O  O308  1  0.67797385  0.24562563  0.08542682  1
  O  O309  1  0.67435105  0.25728930  0.58727814  1
  O  O310  1  0.66387579  0.73782570  0.07529260  1
  O  O311  1  0.67010551  0.74351506  0.58177060  1
  O  O312  1  0.19190402  0.01082269  0.41682701  1
  O  O313  1  0.15802450  -0.00181363  0.91514871  1
  O  O314  1  0.17371138  0.51076551  0.42253271  1
  O  O315  1  0.16124853  0.48828690  0.92512627  1
  O  O316  1  0.48692092  -0.00323504  0.41277681  1
  O  O317  1  0.49714078  -0.00187948  0.91298655  1
  O  O318  1  0.48750362  0.50180791  0.41583399  1
  O  O319  1  0.50097405  0.50794625  0.91375992  1
  O  O320  1  0.82195660  -0.00644911  0.41539885  1
  O  O321  1  0.81318465  0.00194134  0.91366572  1
  O  O322  1  0.81543520  0.50398486  0.41469963  1
  O  O323  1  0.83159642  0.48661405  0.92429390  1
  O  O324  1  0.34216937  0.24687518  0.41161291  1
  O  O325  1  0.33755243  0.23588508  0.92583137  1
  O  O326  1  0.34183322  0.74868959  0.41085694  1
  O  O327  1  0.33572494  0.75433634  0.91226623  1
  O  O328  1  0.65847763  0.26082402  0.42598137  1
  O  O329  1  0.64599190  0.24978355  0.91615949  1
  O  O330  1  0.64956547  0.75020762  0.41292873  1
  O  O331  1  0.65777993  0.75207933  0.91492386  1
  O  O332  1  0.98531811  0.25915244  0.42533068  1
  O  O333  1  0.99141584  0.24453116  0.91683840  1
  O  O334  1  0.99303189  0.74007233  0.42493302  1
  O  O335  1  0.99126314  0.75846731  0.91740710  1
  O  O336  1  0.20921741  0.08400274  0.19459144  1
  O  O337  1  0.21342895  0.08759217  0.69454431  1
  O  O338  1  0.19540354  0.58395404  0.18956256  1
  O  O339  1  0.20787054  0.58158447  0.69846875  1
  O  O340  1  0.54205193  0.08197400  0.19273946  1
  O  O341  1  0.54242177  0.08910855  0.69238062  1
  O  O342  1  0.54675249  0.58362764  0.18977146  1
  O  O343  1  0.54173107  0.58181492  0.69703200  1
  O  O344  1  0.87352209  0.08139941  0.19505164  1
  O  O345  1  0.88021773  0.08291319  0.69991828  1
  O  O346  1  0.87915631  0.58487834  0.19492090  1
  O  O347  1  0.87608028  0.58408541  0.69977961  1
  O  O348  1  0.03906070  0.32987630  0.19260627  1
  O  O349  1  0.04034548  0.33556749  0.69875249  1
  O  O350  1  0.04477762  0.83609397  0.19258209  1
  O  O351  1  0.04348468  0.82999818  0.69524997  1
  O  O352  1  0.37758277  0.33762375  0.19134467  1
  O  O353  1  0.37767500  0.33593193  0.69903776  1
  O  O354  1  0.36819908  0.83603868  0.18738087  1
  O  O355  1  0.37727315  0.83117739  0.69668071  1
  O  O356  1  0.71185707  0.33172178  0.19423019  1
  O  O357  1  0.70825183  0.33672049  0.69830201  1
  O  O358  1  0.70945847  0.83282535  0.19814099  1
  O  O359  1  0.71582946  0.82209795  0.69049497  1
  O  O360  1  0.21272510  0.41551890  0.19899633  1
  O  O361  1  0.20661945  0.41780084  0.70061976  1
  O  O362  1  0.20956678  0.91932810  0.19210310  1
  O  O363  1  0.21263184  0.91772535  0.69887411  1
  O  O364  1  0.55087882  0.41375504  0.19495106  1
  O  O365  1  0.54114497  0.41694200  0.69869554  1
  O  O366  1  0.54335065  0.92136202  0.18893463  1
  O  O367  1  0.53404828  0.91805562  0.69304991  1
  O  O368  1  0.87981051  0.41632707  0.20336192  1
  O  O369  1  0.87303014  0.41805715  0.70049478  1
  O  O370  1  0.87802668  0.92178270  0.19100170  1
  O  O371  1  0.88115111  0.90851458  0.69127472  1
  O  O372  1  0.04388477  0.16316456  0.19624750  1
  O  O373  1  0.04450167  0.16598794  0.70314809  1
  O  O374  1  0.04268889  0.67114410  0.19520697  1
  O  O375  1  0.04039909  0.66429951  0.69908830  1
  O  O376  1  0.38162840  0.15841648  0.19342294  1
  O  O377  1  0.37816569  0.17149570  0.69779081  1
  O  O378  1  0.38294926  0.67543764  0.19146476  1
  O  O379  1  0.37359523  0.66258313  0.69338038  1
  O  O380  1  0.71318886  0.16320136  0.19503015  1
  O  O381  1  0.70872007  0.17267461  0.69429657  1
  O  O382  1  0.70939588  0.66405531  0.19277092  1
  O  O383  1  0.70623958  0.66449966  0.69591460  1
  O  O384  1  0.12541127  0.08566742  0.30781085  1
  O  O385  1  0.12749258  0.08121308  0.80542526  1
  O  O386  1  0.12692150  0.58590721  0.30549211  1
  O  O387  1  0.12070738  0.58379466  0.80414053  1
  O  O388  1  0.45605547  0.08163360  0.30515976  1
  O  O389  1  0.45797706  0.08452077  0.80361960  1
  O  O390  1  0.46979504  0.58427925  0.30328280  1
  O  O391  1  0.45399836  0.58503594  0.80449507  1
  O  O392  1  0.78853717  0.07982666  0.30666858  1
  O  O393  1  0.78491744  0.09168496  0.80703939  1
  O  O394  1  0.79143990  0.58431832  0.30314853  1
  O  O395  1  0.78550940  0.58256866  0.80262889  1
  O  O396  1  0.28819911  0.33952769  0.31156500  1
  O  O397  1  0.29028730  0.33349328  0.80392518  1
  O  O398  1  0.29155886  0.83309446  0.30164987  1
  O  O399  1  0.29147037  0.83420980  0.80389978  1
  O  O400  1  0.63341180  0.33369923  0.30842392  1
  O  O401  1  0.62142789  0.33392132  0.80742866  1
  O  O402  1  0.62168422  0.83153342  0.30247407  1
  O  O403  1  0.61909117  0.82781894  0.80295275  1
  O  O404  1  0.95682991  0.33417253  0.31013331  1
  O  O405  1  0.95445666  0.32929401  0.80673471  1
  O  O406  1  0.95674994  0.83422049  0.29898750  1
  O  O407  1  0.95886624  0.83542657  0.80604096  1
  O  O408  1  0.12065138  0.41601794  0.29953895  1
  O  O409  1  0.11952315  0.41443849  0.81086009  1
  O  O410  1  0.12191585  0.91777049  0.29797925  1
  O  O411  1  0.12564842  0.91558423  0.80447396  1
  O  O412  1  0.45401504  0.41795444  0.30556143  1
  O  O413  1  0.45770756  0.41890051  0.80956560  1
  O  O414  1  0.45363386  0.91895463  0.30064931  1
  O  O415  1  0.45736779  0.91783555  0.80316829  1
  O  O416  1  0.78963690  0.41814505  0.30601601  1
  O  O417  1  0.78790675  0.41404116  0.80884442  1
  O  O418  1  0.78332819  0.91727821  0.30590944  1
  O  O419  1  0.79947564  0.91726137  0.80346003  1
  O  O420  1  0.28691366  0.15996455  0.30500782  1
  O  O421  1  0.29224176  0.16495429  0.80828347  1
  O  O422  1  0.28835608  0.67285911  0.30151100  1
  O  O423  1  0.29029663  0.66845380  0.80570829  1
  O  O424  1  0.62359943  0.16524858  0.29784817  1
  O  O425  1  0.62299273  0.16964918  0.80580714  1
  O  O426  1  0.62494102  0.66581849  0.30338857  1
  O  O427  1  0.62062588  0.66663767  0.80651745  1
  O  O428  1  0.95467969  0.16689887  0.29927161  1
  O  O429  1  0.95562401  0.16541019  0.80744465  1
  O  O430  1  0.95902130  0.66617743  0.30664648  1
  O  O431  1  0.95578143  0.66878588  0.81182156  1
  F  F432  1  0.04436294  0.00440809  0.20167625  1
  F  F433  1  0.04838594  -0.00163927  0.70149714  1
  F  F434  1  0.04200297  0.50227476  0.20275287  1
  F  F435  1  0.04110228  0.49851731  0.70714330  1
  F  F436  1  0.37675735  0.00083103  0.19836773  1
  F  F437  1  0.37924528  0.00425190  0.70162774  1
  F  F438  1  0.37877964  0.48874893  0.18987429  1
  F  F439  1  0.37669326  0.49852637  0.70537482  1
  F  F440  1  0.71104900  0.00021120  0.20085271  1
  F  F441  1  0.71317012  0.01539444  0.69241182  1
  F  F442  1  0.71478742  0.49907030  0.20117494  1
  F  F443  1  0.70819413  0.49771061  0.70385418  1
  F  F444  1  0.20095748  0.24828009  0.20058021  1
  F  F445  1  0.21216170  0.25156571  0.70644278  1
  F  F446  1  0.20962721  0.75326391  0.19883971  1
  F  F447  1  0.20949012  0.74625151  0.70339968  1
  F  F448  1  0.55000633  0.24236716  0.19252259  1
  F  F449  1  0.54436517  0.25425752  0.70452211  1
  F  F450  1  0.54977986  0.74581130  0.19695339  1
  F  F451  1  0.54471929  0.74523734  0.69979034  1
  F  F452  1  0.87646614  0.25086891  0.20216816  1
  F  F453  1  0.87596789  0.25147267  0.70424461  1
  F  F454  1  0.88111539  0.74364376  0.19785549  1
  F  F455  1  0.88029754  0.74563450  0.70726861  1
  F  F456  1  0.28924820  -0.00149379  0.29406432  1
  F  F457  1  0.29135855  0.00186074  0.79797358  1
  F  F458  1  0.28617192  0.49605514  0.30162670  1
  F  F459  1  0.28765218  0.50143985  0.80126560  1
  F  F460  1  0.61872068  -0.00200451  0.29520065  1
  F  F461  1  0.61717547  0.01262228  0.79952812  1
  F  F462  1  0.63481654  0.50114946  0.30271643  1
  F  F463  1  0.61910841  0.49949746  0.80028968  1
  F  F464  1  0.95304409  -0.00006869  0.29778229  1
  F  F465  1  0.96890465  -0.00201292  0.80252663  1
  F  F466  1  0.95599792  0.50430057  0.30077296  1
  F  F467  1  0.95198378  0.49884750  0.80265085  1
  F  F468  1  0.11941736  0.25081559  0.29928801  1
  F  F469  1  0.12095403  0.24940796  0.80155463  1
  F  F470  1  0.12127810  0.75052238  0.29550615  1
  F  F471  1  0.12229849  0.75207137  0.79921351  1
  F  F472  1  0.47407738  0.24775317  0.30399494  1
  F  F473  1  0.45681678  0.25040534  0.80138866  1
  F  F474  1  0.45635285  0.74905453  0.29604722  1
  F  F475  1  0.45388950  0.74860149  0.79597070  1
  F  F476  1  0.78733790  0.24978669  0.29759095  1
  F  F477  1  0.78615868  0.25072866  0.79945148  1
  F  F478  1  0.78512195  0.74171999  0.30007180  1
  F  F479  1  0.78623360  0.75114602  0.79942870  1
