# generated using pymatgen
data_K24Na3Li5Mg64Fe17Si79(O5F)48
_symmetry_space_group_name_H-M   'P 1'
_cell_length_a   16.09943756
_cell_length_b   18.60072047
_cell_length_c   20.55391016
_cell_angle_alpha   89.98716142
_cell_angle_beta   100.02903571
_cell_angle_gamma   90.01486319
_symmetry_Int_Tables_number   1
_chemical_formula_structural   K24Na3Li5Mg64Fe17Si79(O5F)48
_chemical_formula_sum   'K24 Na3 Li5 Mg64 Fe17 Si79 O240 F48'
_cell_volume   6061.04483526
_cell_formula_units_Z   1
loop_
 _symmetry_equiv_pos_site_id
 _symmetry_equiv_pos_as_xyz
  1  'x, y, z'
loop_
 _atom_site_type_symbol
 _atom_site_label
 _atom_site_symmetry_multiplicity
 _atom_site_fract_x
 _atom_site_fract_y
 _atom_site_fract_z
 _atom_site_occupancy
  K  K0  1  0.00099185  0.00595449  0.00159329  1
  K  K1  1  0.01119250  0.00974413  0.51063501  1
  K  K2  1  -0.00522377  0.50351751  -0.00832097  1
  K  K3  1  -0.00574159  0.49283080  0.51200387  1
  K  K4  1  0.33298229  -0.00339193  -0.00009109  1
  K  K5  1  0.32424082  0.00753505  0.49889156  1
  K  K6  1  0.32933635  0.49802831  0.00621104  1
  K  K7  1  0.33858853  0.48795539  0.50121562  1
  K  K8  1  0.66195409  0.00302019  0.00258908  1
  K  K9  1  0.67574751  0.00440298  0.50391688  1
  K  K10  1  0.65803073  0.49548910  -0.00708762  1
  K  K11  1  0.66378433  0.48855499  0.50810476  1
  K  K12  1  0.16444975  0.25222492  -0.00052946  1
  K  K13  1  0.17225557  0.25205445  0.50957825  1
  K  K14  1  0.16508536  0.73772244  -0.00004169  1
  K  K15  1  0.16654161  0.74829887  0.49897010  1
  K  K16  1  0.49861109  0.25343455  -0.00125572  1
  K  K17  1  0.49469178  0.26244694  0.50469593  1
  K  K18  1  0.50353911  0.74938093  0.00484341  1
  K  K19  1  0.49779164  0.74766925  0.50033818  1
  K  K20  1  0.82957038  0.25688339  -0.01238852  1
  K  K21  1  0.83498438  0.25486811  0.51707651  1
  K  K22  1  0.84102349  0.74874790  -0.00361181  1
  K  K23  1  0.83994688  0.74718606  0.50928601  1
  Na  Na24  1  0.16436173  -0.00131641  0.24431176  1
  Na  Na25  1  0.49834698  0.16953773  0.24379152  1
  Na  Na26  1  -0.00268829  0.57937465  0.74857319  1
  Li  Li27  1  0.50417951  0.49191391  0.75760851  1
  Li  Li28  1  0.16684957  0.00325223  0.74655115  1
  Li  Li29  1  0.83214984  0.33735124  0.75280711  1
  Li  Li30  1  0.50321106  0.34098393  0.75675004  1
  Li  Li31  1  0.16857354  0.66576264  0.24957243  1
  Mg  Mg32  1  -0.00211625  0.25007480  0.74775526  1
  Mg  Mg33  1  0.00008039  0.74780426  0.74777414  1
  Mg  Mg34  1  0.33726445  0.25151769  0.75378136  1
  Mg  Mg35  1  0.49870131  0.50102614  0.25144664  1
  Mg  Mg36  1  0.00085210  0.25064628  0.25235789  1
  Mg  Mg37  1  0.66681630  0.74983478  0.24576435  1
  Mg  Mg38  1  0.33469384  0.24935275  0.25104237  1
  Mg  Mg39  1  0.33041067  0.74962351  0.24634785  1
  Mg  Mg40  1  0.16652374  0.49720273  0.75410713  1
  Mg  Mg41  1  0.66751722  0.75029834  0.74425073  1
  Mg  Mg42  1  0.66708410  0.25197809  0.74914835  1
  Mg  Mg43  1  0.83296688  0.49618266  0.75378932  1
  Mg  Mg44  1  0.16801762  0.50200554  0.25479621  1
  Mg  Mg45  1  0.00359821  0.75052173  0.25020867  1
  Mg  Mg46  1  0.83452651  -0.00014958  0.24689731  1
  Mg  Mg47  1  0.49949314  -0.00033159  0.74697845  1
  Mg  Mg48  1  0.83484489  0.50117822  0.25317235  1
  Mg  Mg49  1  0.50128519  0.00047125  0.24517002  1
  Mg  Mg50  1  0.66591204  0.25202584  0.25227744  1
  Mg  Mg51  1  0.83440713  0.00068169  0.74539068  1
  Mg  Mg52  1  0.33447355  0.74794113  0.74937651  1
  Mg  Mg53  1  0.66386923  0.41408645  0.75324247  1
  Mg  Mg54  1  0.49896833  0.83504876  0.24493139  1
  Mg  Mg55  1  0.33366118  0.41535507  0.25241962  1
  Mg  Mg56  1  0.66393504  0.41654164  0.25223839  1
  Mg  Mg57  1  0.16791329  0.33634461  0.25516793  1
  Mg  Mg58  1  0.49603809  0.33508049  0.25113375  1
  Mg  Mg59  1  0.50187271  0.66297431  0.74991905  1
  Mg  Mg60  1  0.50162462  0.16829630  0.75048052  1
  Mg  Mg61  1  0.66670136  0.08498852  0.74946910  1
  Mg  Mg62  1  0.49795706  0.66541354  0.24897982  1
  Mg  Mg63  1  0.16761539  0.83517337  0.74662354  1
  Mg  Mg64  1  0.83377761  0.83346027  0.74605578  1
  Mg  Mg65  1  0.33695491  0.58007503  0.75166943  1
  Mg  Mg66  1  0.83286527  0.16922963  0.74839034  1
  Mg  Mg67  1  0.33077755  0.91675541  0.74707588  1
  Mg  Mg68  1  0.32996813  0.58585502  0.25272158  1
  Mg  Mg69  1  0.33189698  0.08273490  0.24562130  1
  Mg  Mg70  1  0.16967903  0.16340264  0.74925694  1
  Mg  Mg71  1  0.66615150  0.58118001  0.74946926  1
  Mg  Mg72  1  0.16532428  0.83192954  0.24825392  1
  Mg  Mg73  1  0.83225698  0.16712188  0.24997429  1
  Mg  Mg74  1  -0.00168690  0.91720480  0.24679839  1
  Mg  Mg75  1  0.33982442  0.41540043  0.75575080  1
  Mg  Mg76  1  0.00378127  0.91737067  0.74665415  1
  Mg  Mg77  1  0.33146796  0.91696278  0.24524380  1
  Mg  Mg78  1  0.83321433  0.83487652  0.24600328  1
  Mg  Mg79  1  -0.00397128  0.41426024  0.75153007  1
  Mg  Mg80  1  0.66533972  0.08450568  0.24701750  1
  Mg  Mg81  1  0.50032910  0.83302459  0.74627261  1
  Mg  Mg82  1  -0.00096895  0.08481296  0.24619002  1
  Mg  Mg83  1  0.00321287  0.08347783  0.74677087  1
  Mg  Mg84  1  0.16701501  0.16543171  0.24771455  1
  Mg  Mg85  1  0.83319527  0.66406798  0.74817212  1
  Mg  Mg86  1  0.16842556  0.33271052  0.75366962  1
  Mg  Mg87  1  0.33209652  0.08259425  0.75053173  1
  Mg  Mg88  1  0.66701425  0.91565606  0.74552530  1
  Mg  Mg89  1  0.66484904  0.58404245  0.25023118  1
  Mg  Mg90  1  0.16639111  0.66448470  0.75071775  1
  Mg  Mg91  1  0.83500466  0.33575905  0.25413163  1
  Mg  Mg92  1  0.83475256  0.66635537  0.25048672  1
  Mg  Mg93  1  0.00354040  0.41762487  0.25631456  1
  Mg  Mg94  1  0.66524538  0.91584682  0.24438070  1
  Mg  Mg95  1  0.00618476  0.58621589  0.25399619  1
  Fe  Fe96  1  0.14182787  0.41886259  0.39633716  1
  Fe  Fe97  1  0.47355388  0.41848174  0.39291038  1
  Fe  Fe98  1  0.85182271  0.41537434  0.60985441  1
  Fe  Fe99  1  0.85230141  0.58533174  0.60673308  1
  Fe  Fe100  1  0.19726388  0.08159653  0.60994862  1
  Fe  Fe101  1  0.18840689  0.07956761  0.10615080  1
  Fe  Fe102  1  0.18832186  0.58340642  0.11487979  1
  Fe  Fe103  1  0.68492570  0.16172164  0.60970453  1
  Fe  Fe104  1  0.86099456  0.91885307  0.10763909  1
  Fe  Fe105  1  0.68612724  0.83987773  0.60561516  1
  Fe  Fe106  1  0.52420597  0.91818600  0.10516848  1
  Fe  Fe107  1  0.30868038  0.33281862  0.89329441  1
  Fe  Fe108  1  0.63230607  0.33169263  0.89170377  1
  Fe  Fe109  1  0.97731659  0.66746807  0.88938448  1
  Fe  Fe110  1  0.52531799  0.58243307  0.11126237  1
  Fe  Fe111  1  0.97059149  0.33484755  0.88880436  1
  Fe  Fe112  1  0.35500844  0.33029695  0.11076295  1
  Si  Si113  1  0.31282185  0.16239985  0.88795560  1
  Si  Si114  1  0.80368499  0.58605209  0.88869535  1
  Si  Si115  1  0.85307667  0.08954426  0.11162655  1
  Si  Si116  1  0.86220124  0.08393812  0.61104992  1
  Si  Si117  1  0.47612469  0.91658605  0.38328491  1
  Si  Si118  1  0.51596666  0.92062390  0.61026886  1
  Si  Si119  1  0.97513687  0.66835310  0.38801462  1
  Si  Si120  1  0.30983975  0.67501201  0.38707488  1
  Si  Si121  1  0.30541984  0.32550796  0.39349487  1
  Si  Si122  1  0.64506472  0.16473703  0.38427760  1
  Si  Si123  1  0.69186390  0.17447915  0.11463170  1
  Si  Si124  1  0.47706017  0.07996651  0.38224051  1
  Si  Si125  1  0.64415771  0.66949560  0.38578010  1
  Si  Si126  1  0.30703502  0.83342950  0.88302553  1
  Si  Si127  1  0.14293931  0.08301300  0.88290688  1
  Si  Si128  1  0.97334781  0.83377432  0.38576041  1
  Si  Si129  1  0.68089636  0.33092435  0.61136754  1
  Si  Si130  1  0.46890937  0.42472186  0.89359065  1
  Si  Si131  1  0.30988113  0.66825044  0.88611759  1
  Si  Si132  1  0.52416165  0.41932094  0.61990219  1
  Si  Si133  1  0.64247655  0.83369218  0.38333343  1
  Si  Si134  1  0.69655201  0.33895995  0.11870135  1
  Si  Si135  1  0.64266446  0.83338314  0.88223256  1
  Si  Si136  1  0.14509479  0.58908254  0.39212327  1
  Si  Si137  1  0.36352646  0.17164378  0.61375338  1
  Si  Si138  1  0.13813549  0.08410321  0.38341639  1
  Si  Si139  1  0.80913682  0.91623036  0.88228570  1
  Si  Si140  1  0.97398053  0.16576992  0.38607120  1
  Si  Si141  1  0.02280361  0.66944573  0.11628172  1
  Si  Si142  1  0.64018974  0.66946358  0.88412577  1
  Si  Si143  1  0.97675979  0.16221624  0.88620694  1
  Si  Si144  1  0.80859023  0.08155794  0.38443224  1
  Si  Si145  1  0.86222294  0.41940616  0.11926515  1
  Si  Si146  1  0.86581165  0.91674347  0.60946438  1
  Si  Si147  1  0.30754873  0.83944437  0.38449650  1
  Si  Si148  1  0.15046631  0.58018633  0.88749856  1
  Si  Si149  1  0.52719344  0.58182598  0.61572923  1
  Si  Si150  1  0.80479507  0.41693351  0.38722305  1
  Si  Si151  1  0.02615361  0.83125039  0.11218675  1
  Si  Si152  1  0.79992598  0.42012615  0.89168895  1
  Si  Si153  1  0.80895412  0.07976410  0.88415476  1
  Si  Si154  1  0.02296916  0.33383516  0.11882456  1
  Si  Si155  1  0.47542872  0.58937113  0.88624411  1
  Si  Si156  1  0.02807469  0.16817945  0.61191994  1
  Si  Si157  1  0.52682485  0.41313366  0.11406012  1
  Si  Si158  1  0.80696990  0.91648616  0.38364335  1
  Si  Si159  1  0.47486310  0.91211700  0.88182997  1
  Si  Si160  1  0.68372506  0.67000757  0.60909944  1
  Si  Si161  1  0.31044654  0.15999912  0.38526908  1
  Si  Si162  1  0.36232731  0.66235716  0.61464930  1
  Si  Si163  1  0.18526360  0.41670736  0.11529239  1
  Si  Si164  1  0.86365681  0.58385925  0.11809531  1
  Si  Si165  1  0.13962205  0.41653557  0.88995503  1
  Si  Si166  1  0.96971609  0.33237082  0.39112501  1
  Si  Si167  1  0.03259413  0.66698476  0.61128318  1
  Si  Si168  1  0.03023700  0.83104045  0.61193607  1
  Si  Si169  1  0.02012831  0.17093512  0.11198894  1
  Si  Si170  1  0.02986224  0.33426439  0.61422007  1
  Si  Si171  1  0.14297243  0.91917221  0.88075928  1
  Si  Si172  1  0.19557167  0.41728518  0.61859147  1
  Si  Si173  1  0.64137579  0.16024498  0.88897320  1
  Si  Si174  1  0.51946812  0.08067711  0.61335010  1
  Si  Si175  1  0.19679189  0.58239167  0.61590955  1
  Si  Si176  1  0.47472457  0.07667520  0.88397456  1
  Si  Si177  1  0.13687838  0.91632994  0.38354808  1
  Si  Si178  1  0.52725029  0.08797330  0.10950855  1
  Si  Si179  1  0.47500890  0.59122386  0.39073027  1
  Si  Si180  1  0.69714349  0.66239834  0.11350761  1
  Si  Si181  1  0.35806784  0.66748799  0.11224357  1
  Si  Si182  1  0.18875819  0.90711836  0.11083093  1
  Si  Si183  1  0.69562109  0.82797479  0.10828059  1
  Si  Si184  1  0.36131870  0.33674197  0.61972470  1
  Si  Si185  1  0.19611306  0.91085437  0.60905447  1
  Si  Si186  1  0.64225106  0.33077373  0.38967195  1
  Si  Si187  1  0.80888924  0.58387184  0.38670052  1
  Si  Si188  1  0.35938601  0.82720919  0.61233073  1
  Si  Si189  1  0.97887864  0.83768225  0.88465366  1
  Si  Si190  1  0.35404481  0.83130393  0.11003194  1
  Si  Si191  1  0.35449760  0.16246357  0.10971051  1
  O  O192  1  0.28968109  0.09992842  0.07533913  1
  O  O193  1  0.28471063  0.12623439  0.57426729  1
  O  O194  1  0.28531905  0.61125022  0.08057552  1
  O  O195  1  0.27823697  0.61458968  0.58556372  1
  O  O196  1  0.60947961  0.12662571  0.08306735  1
  O  O197  1  0.59958532  0.09323913  0.57764563  1
  O  O198  1  0.62587882  0.60683401  0.08003072  1
  O  O199  1  0.60595805  0.61170957  0.58246557  1
  O  O200  1  0.93534954  0.12211255  0.08420256  1
  O  O201  1  0.93881895  0.12615349  0.58299932  1
  O  O202  1  0.94508384  0.61211611  0.08815955  1
  O  O203  1  0.95233510  0.62092053  0.57755335  1
  O  O204  1  0.10823906  0.35615869  0.09155261  1
  O  O205  1  0.11306133  0.36914129  0.58708587  1
  O  O206  1  0.11661311  0.84408348  0.08643953  1
  O  O207  1  0.10991392  0.86379275  0.58139977  1
  O  O208  1  0.45950245  0.35162308  0.08522353  1
  O  O209  1  0.43722370  0.37476061  0.58824652  1
  O  O210  1  0.43168919  0.85692494  0.07453180  1
  O  O211  1  0.43848454  0.86287767  0.58313402  1
  O  O212  1  0.78095268  0.36792640  0.09102483  1
  O  O213  1  0.75805375  0.35758617  0.57543534  1
  O  O214  1  0.77962497  0.84810231  0.07826262  1
  O  O215  1  0.78247004  0.87454990  0.57307163  1
  O  O216  1  0.26568899  0.39457889  0.08178371  1
  O  O217  1  0.27519381  0.38265990  0.58849845  1
  O  O218  1  0.27318561  0.88313558  0.08013153  1
  O  O219  1  0.27236551  0.86793878  0.57931456  1
  O  O220  1  0.61898627  0.39248887  0.09051820  1
  O  O221  1  0.59937054  0.38586813  0.58462197  1
  O  O222  1  0.61774545  0.87843136  0.07388699  1
  O  O223  1  0.59462898  0.90323979  0.57390215  1
  O  O224  1  0.94471207  0.38965082  0.09084495  1
  O  O225  1  0.94797733  0.37731141  0.57818015  1
  O  O226  1  0.95969032  0.89064449  0.07675254  1
  O  O227  1  0.94699235  0.87919687  0.58203947  1
  O  O228  1  0.09572194  0.14355713  0.07618354  1
  O  O229  1  0.09726631  0.13055409  0.57447430  1
  O  O230  1  0.10215571  0.65003588  0.08198594  1
  O  O231  1  0.11705916  0.63390367  0.58400797  1
  O  O232  1  0.44893862  0.14454164  0.08916794  1
  O  O233  1  0.44802635  0.14194348  0.58655886  1
  O  O234  1  0.44386731  0.65297592  0.08216075  1
  O  O235  1  0.44222587  0.63014634  0.58468690  1
  O  O236  1  0.77446262  0.14598889  0.08550857  1
  O  O237  1  0.77627180  0.12141282  0.57456076  1
  O  O238  1  0.78621527  0.63857349  0.08926786  1
  O  O239  1  0.76366541  0.65091371  0.57424618  1
  O  O240  1  0.06366056  0.12514182  0.41635194  1
  O  O241  1  0.06110281  0.11141077  0.91397630  1
  O  O242  1  0.06568555  0.63184103  0.41961184  1
  O  O243  1  0.07305696  0.60959118  0.92059916  1
  O  O244  1  0.39752015  0.11405308  0.41366888  1
  O  O245  1  0.39330405  0.10650410  0.91373339  1
  O  O246  1  0.39964608  0.63613881  0.42019143  1
  O  O247  1  0.39784556  0.62728413  0.91731228  1
  O  O248  1  0.73068914  0.11757027  0.41510749  1
  O  O249  1  0.72887630  0.11224499  0.91463865  1
  O  O250  1  0.73035431  0.62307175  0.41471477  1
  O  O251  1  0.71978221  0.61963002  0.91635479  1
  O  O252  1  0.22627764  0.35165422  0.42744976  1
  O  O253  1  0.20879607  0.35730588  0.92232454  1
  O  O254  1  0.22957644  0.87948902  0.41381734  1
  O  O255  1  0.22841676  0.87147679  0.91119674  1
  O  O256  1  0.56915232  0.36176005  0.42590611  1
  O  O257  1  0.54533471  0.37330084  0.92957743  1
  O  O258  1  0.56149113  0.86833366  0.41183268  1
  O  O259  1  0.56156476  0.86713306  0.91127975  1
  O  O260  1  0.88570156  0.36629766  0.41618224  1
  O  O261  1  0.88123913  0.37251464  0.92553316  1
  O  O262  1  0.89479722  0.87338502  0.41403837  1
  O  O263  1  0.89537217  0.87217839  0.91159501  1
  O  O264  1  0.04823348  0.37843355  0.42792696  1
  O  O265  1  0.05567395  0.40190896  0.92146137  1
  O  O266  1  0.06276152  0.87481868  0.41703104  1
  O  O267  1  0.06059152  0.89131687  0.91098211  1
  O  O268  1  0.38752025  0.37152784  0.42768827  1
  O  O269  1  0.38569916  0.40539135  0.92562577  1
  O  O270  1  0.39616617  0.88237189  0.41413152  1
  O  O271  1  0.39569310  0.87628043  0.91150068  1
  O  O272  1  0.72666446  0.38098184  0.41641877  1
  O  O273  1  0.72297838  0.39139210  0.92713612  1
  O  O274  1  0.72783073  0.88045544  0.41326518  1
  O  O275  1  0.72825156  0.88002740  0.91041369  1
  O  O276  1  0.23154222  0.11886566  0.41330707  1
  O  O277  1  0.22842981  0.12859781  0.91366043  1
  O  O278  1  0.22979487  0.64056573  0.41661991  1
  O  O279  1  0.23396229  0.63144002  0.91727431  1
  O  O280  1  0.56381544  0.12669647  0.41024392  1
  O  O281  1  0.56304793  0.11686930  0.91627772  1
  O  O282  1  0.56340325  0.63837317  0.41561691  1
  O  O283  1  0.55773534  0.64123021  0.91384140  1
  O  O284  1  0.89791805  0.12245080  0.41436244  1
  O  O285  1  0.89649886  0.12222783  0.91416211  1
  O  O286  1  0.89680446  0.62766827  0.41591645  1
  O  O287  1  0.88300050  0.63383011  0.92420967  1
  O  O288  1  0.15536778  -0.01629339  0.07908257  1
  O  O289  1  0.18540686  -0.01237680  0.57236046  1
  O  O290  1  0.14640261  0.49257015  0.08490843  1
  O  O291  1  0.18095160  0.49981465  0.58813609  1
  O  O292  1  0.50811475  0.01260026  0.06938837  1
  O  O293  1  0.47684345  0.00101766  0.58922053  1
  O  O294  1  0.49618303  0.48979361  0.08016832  1
  O  O295  1  0.50593062  0.50065841  0.58714160  1
  O  O296  1  0.82728328  0.01266387  0.07736239  1
  O  O297  1  0.86427710  0.00031333  0.58228270  1
  O  O298  1  0.84145340  0.50136064  0.09086924  1
  O  O299  1  0.82918063  0.49990569  0.56158858  1
  O  O300  1  -0.00746668  0.25443326  0.08904589  1
  O  O301  1  0.01934323  0.25137140  0.58424385  1
  O  O302  1  -0.01043585  0.75042820  0.08911987  1
  O  O303  1  0.01860111  0.75010827  0.57999155  1
  O  O304  1  0.32270822  0.23913956  0.07636816  1
  O  O305  1  0.35004438  0.25563241  0.58722575  1
  O  O306  1  0.32479528  0.74923699  0.08678616  1
  O  O307  1  0.34783898  0.74430987  0.58402271  1
  O  O308  1  0.67576853  0.25773345  0.08885844  1
  O  O309  1  0.65086913  0.25283984  0.57799193  1
  O  O310  1  0.67168801  0.74357382  0.08549190  1
  O  O311  1  0.64645496  0.74775471  0.57962635  1
  O  O312  1  0.14084589  0.00007155  0.41088209  1
  O  O313  1  0.16307402  0.00025034  0.91056801  1
  O  O314  1  0.16270886  0.51344004  0.43103255  1
  O  O315  1  0.17614060  0.49827966  0.91359582  1
  O  O316  1  0.49328171  -0.00207058  0.41436669  1
  O  O317  1  0.48854191  -0.00676099  0.91162147  1
  O  O318  1  0.48615077  0.51411180  0.42703277  1
  O  O319  1  0.49487615  0.50999537  0.91807637  1
  O  O320  1  0.81831862  -0.00128108  0.41319472  1
  O  O321  1  0.82081245  -0.00283027  0.91387176  1
  O  O322  1  0.81979259  0.50061617  0.41358097  1
  O  O323  1  0.81672426  0.50468005  0.91913199  1
  O  O324  1  0.32258316  0.23983874  0.41821014  1
  O  O325  1  0.33843572  0.23801369  0.92354705  1
  O  O326  1  0.31712968  0.75842073  0.41718586  1
  O  O327  1  0.31878032  0.75199985  0.91370189  1
  O  O328  1  0.66170186  0.24627303  0.41461816  1
  O  O329  1  0.65361549  0.23615327  0.92668358  1
  O  O330  1  0.65952368  0.75235938  0.41438135  1
  O  O331  1  0.65836035  0.75226988  0.91292211  1
  O  O332  1  0.97716917  0.24731301  0.41640125  1
  O  O333  1  0.99154083  0.23892831  0.92260305  1
  O  O334  1  0.97861273  0.75170024  0.41667339  1
  O  O335  1  1.00001716  0.76251852  0.92267313  1
  O  O336  1  0.21214054  0.08995407  0.19584404  1
  O  O337  1  0.21554518  0.08297261  0.70021530  1
  O  O338  1  0.21136044  0.58224794  0.20575065  1
  O  O339  1  0.21370692  0.58453550  0.69598685  1
  O  O340  1  0.55090611  0.07617611  0.18895716  1
  O  O341  1  0.54207937  0.08081905  0.69447020  1
  O  O342  1  0.54541473  0.58360003  0.20372125  1
  O  O343  1  0.54587950  0.58848579  0.69483141  1
  O  O344  1  0.87241936  0.08725547  0.19311944  1
  O  O345  1  0.87763223  0.08194255  0.69194927  1
  O  O346  1  0.87923945  0.58343850  0.19891412  1
  O  O347  1  0.86186676  0.58055038  0.69644588  1
  O  O348  1  0.03921339  0.33378972  0.19952143  1
  O  O349  1  0.04778823  0.33170555  0.69453078  1
  O  O350  1  0.04126022  0.83403209  0.19352974  1
  O  O351  1  0.04601837  0.83292586  0.69227581  1
  O  O352  1  0.37444717  0.33273766  0.20262040  1
  O  O353  1  0.37706888  0.33390442  0.69879905  1
  O  O354  1  0.37635313  0.83387133  0.19148078  1
  O  O355  1  0.37652862  0.83042588  0.69276570  1
  O  O356  1  0.71469326  0.33622366  0.19938450  1
  O  O357  1  0.70266444  0.33231083  0.69146691  1
  O  O358  1  0.71054815  0.83188985  0.19053297  1
  O  O359  1  0.71107465  0.83574287  0.69736201  1
  O  O360  1  0.20827679  0.41625826  0.19719574  1
  O  O361  1  0.21252649  0.41756932  0.69835657  1
  O  O362  1  0.21281444  0.90623112  0.19095898  1
  O  O363  1  0.21515155  0.90990247  0.68914834  1
  O  O364  1  0.54605156  0.41824072  0.19574294  1
  O  O365  1  0.54427206  0.41944297  0.69830734  1
  O  O366  1  0.54553270  0.91590484  0.19738944  1
  O  O367  1  0.54005288  0.91539021  0.69141134  1
  O  O368  1  0.87894273  0.41841857  0.20008595  1
  O  O369  1  0.87621359  0.41829453  0.69969112  1
  O  O370  1  0.87688547  0.91717301  0.19989245  1
  O  O371  1  0.87910884  0.91583076  0.69050447  1
  O  O372  1  0.03958918  0.16877289  0.19340127  1
  O  O373  1  0.04613988  0.16507203  0.69251805  1
  O  O374  1  0.03779599  0.66760987  0.19671388  1
  O  O375  1  0.05202261  0.67334252  0.69082493  1
  O  O376  1  0.36512976  0.16580804  0.19025748  1
  O  O377  1  0.37743647  0.16603487  0.69435886  1
  O  O378  1  0.37641724  0.66710811  0.19423005  1
  O  O379  1  0.37792460  0.66555900  0.69483434  1
  O  O380  1  0.71057389  0.17000516  0.19527949  1
  O  O381  1  0.71115415  0.16361460  0.70092579  1
  O  O382  1  0.71272768  0.66458863  0.19513901  1
  O  O383  1  0.70521882  0.66789168  0.69077548  1
  O  O384  1  0.11564742  0.09039108  0.30459909  1
  O  O385  1  0.12143141  0.08532545  0.80343710  1
  O  O386  1  0.12139955  0.58226778  0.31265531  1
  O  O387  1  0.13594158  0.58376047  0.80738497  1
  O  O388  1  0.45590040  0.07588972  0.30308600  1
  O  O389  1  0.45788901  0.07923446  0.80359296  1
  O  O390  1  0.45566414  0.58838052  0.31003359  1
  O  O391  1  0.45436914  0.59071743  0.80666367  1
  O  O392  1  0.79135777  0.08288830  0.30395483  1
  O  O393  1  0.79162085  0.07914002  0.80396185  1
  O  O394  1  0.79101380  0.58522223  0.30615861  1
  O  O395  1  0.78603862  0.58751391  0.80802910  1
  O  O396  1  0.28763131  0.33095752  0.31237268  1
  O  O397  1  0.28908744  0.33220457  0.80166962  1
  O  O398  1  0.29067577  0.83623875  0.30468827  1
  O  O399  1  0.29126175  0.83260549  0.80262145  1
  O  O400  1  0.62531488  0.33395686  0.30876907  1
  O  O401  1  0.62320781  0.32993582  0.80207213  1
  O  O402  1  0.62603828  0.83272413  0.30311867  1
  O  O403  1  0.62207776  0.83391565  0.80198949  1
  O  O404  1  0.95587604  0.33339434  0.30987341  1
  O  O405  1  0.95782894  0.32841699  0.79909742  1
  O  O406  1  0.95575459  0.83303216  0.30580284  1
  O  O407  1  0.95909565  0.83661818  0.80338362  1
  O  O408  1  0.12215288  0.41796809  0.30437845  1
  O  O409  1  0.12388808  0.41471773  0.80838326  1
  O  O410  1  0.11612496  0.91034972  0.30468725  1
  O  O411  1  0.12479292  0.91437750  0.80101556  1
  O  O412  1  0.45709045  0.42007082  0.30182930  1
  O  O413  1  0.45331056  0.42048303  0.81384317  1
  O  O414  1  0.45740472  0.91483215  0.30325991  1
  O  O415  1  0.45694771  0.91281141  0.80144297  1
  O  O416  1  0.78954672  0.41779586  0.30664084  1
  O  O417  1  0.78293303  0.42033963  0.81131829  1
  O  O418  1  0.78819949  0.91585570  0.30350379  1
  O  O419  1  0.79144917  0.91754689  0.80197643  1
  O  O420  1  0.29138788  0.16389788  0.30549907  1
  O  O421  1  0.29391386  0.16453851  0.80724445  1
  O  O422  1  0.29770704  0.67233348  0.30800529  1
  O  O423  1  0.29278248  0.66804791  0.80548012  1
  O  O424  1  0.63428598  0.16569323  0.30494069  1
  O  O425  1  0.62212264  0.16056526  0.80855082  1
  O  O426  1  0.62692612  0.66951835  0.30548916  1
  O  O427  1  0.62340296  0.67021371  0.80378275  1
  O  O428  1  0.95494088  0.16666292  0.30548056  1
  O  O429  1  0.95763513  0.16226171  0.80520922  1
  O  O430  1  0.95682299  0.66785983  0.30774153  1
  O  O431  1  0.95102104  0.67574904  0.79969128  1
  F  F432  1  0.02845279  0.00146807  0.19668529  1
  F  F433  1  0.04148578  -0.00055375  0.69707257  1
  F  F434  1  0.04208133  0.50173490  0.20638924  1
  F  F435  1  0.05266399  0.48916592  0.70049703  1
  F  F436  1  0.38058059  -0.00230254  0.19771768  1
  F  F437  1  0.37893137  -0.00221923  0.70020799  1
  F  F438  1  0.37711253  0.50383577  0.20554722  1
  F  F439  1  0.37341701  0.49954554  0.70216907  1
  F  F440  1  0.71384989  0.00081536  0.20088913  1
  F  F441  1  0.71213871  -0.00046213  0.70007384  1
  F  F442  1  0.71452866  0.50025443  0.20552134  1
  F  F443  1  0.70973103  0.49846799  0.70410031  1
  F  F444  1  0.20980926  0.25303614  0.20704668  1
  F  F445  1  0.21405659  0.24784452  0.70218498  1
  F  F446  1  0.21197071  0.75116932  0.20367966  1
  F  F447  1  0.21538753  0.74890255  0.70105866  1
  F  F448  1  0.55343716  0.26212013  0.20124557  1
  F  F449  1  0.54811463  0.24024512  0.69961991  1
  F  F450  1  0.54641742  0.74954583  0.20160681  1
  F  F451  1  0.54245360  0.74991023  0.70030742  1
  F  F452  1  0.87845759  0.25233112  0.20529115  1
  F  F453  1  0.88336456  0.23846359  0.69448556  1
  F  F454  1  0.87992190  0.74904268  0.20431381  1
  F  F455  1  0.87900851  0.75418008  0.69661601  1
  F  F456  1  0.29956939  -0.00241959  0.29888819  1
  F  F457  1  0.29850340  -0.00466820  0.80081422  1
  F  F458  1  0.29073787  0.49849795  0.30390581  1
  F  F459  1  0.28872088  0.50165668  0.80015581  1
  F  F460  1  0.62501334  0.00009147  0.29752654  1
  F  F461  1  0.62113139  -0.00348337  0.79554923  1
  F  F462  1  0.62529730  0.50029710  0.30226378  1
  F  F463  1  0.62401624  0.50382463  0.80137402  1
  F  F464  1  0.95365860  0.00344764  0.29966397  1
  F  F465  1  0.95498144  -0.00102616  0.79452097  1
  F  F466  1  0.95391821  0.50201874  0.30307190  1
  F  F467  1  0.95108514  0.49118831  0.80530661  1
  F  F468  1  0.11941951  0.24851933  0.29988141  1
  F  F469  1  0.12155968  0.24609642  0.79605111  1
  F  F470  1  0.11855258  0.75538299  0.30184610  1
  F  F471  1  0.12473211  0.75202997  0.79633423  1
  F  F472  1  0.45274350  0.25544024  0.30386751  1
  F  F473  1  0.45415518  0.24111044  0.80262332  1
  F  F474  1  0.45506928  0.75270916  0.29528154  1
  F  F475  1  0.45546282  0.75121777  0.79675401  1
  F  F476  1  0.78978438  0.25034769  0.30009099  1
  F  F477  1  0.78842648  0.24569310  0.79970070  1
  F  F478  1  0.78787489  0.75126388  0.29678170  1
  F  F479  1  0.78716458  0.75129937  0.79509017  1
