# generated using pymatgen
data_K24Na3Li5Mg64Fe17Si79(O5F)48
_symmetry_space_group_name_H-M   'P 1'
_cell_length_a   16.10534604
_cell_length_b   18.61686198
_cell_length_c   20.57495350
_cell_angle_alpha   90.01551900
_cell_angle_beta   100.03904273
_cell_angle_gamma   89.98137694
_symmetry_Int_Tables_number   1
_chemical_formula_structural   K24Na3Li5Mg64Fe17Si79(O5F)48
_chemical_formula_sum   'K24 Na3 Li5 Mg64 Fe17 Si79 O240 F48'
_cell_volume   6074.55602540
_cell_formula_units_Z   1
loop_
 _symmetry_equiv_pos_site_id
 _symmetry_equiv_pos_as_xyz
  1  'x, y, z'
loop_
 _atom_site_type_symbol
 _atom_site_label
 _atom_site_symmetry_multiplicity
 _atom_site_fract_x
 _atom_site_fract_y
 _atom_site_fract_z
 _atom_site_occupancy
  K  K0  1  0.00230754  0.00173359  -0.01337627  1
  K  K1  1  0.00203104  0.00412819  0.51283813  1
  K  K2  1  -0.00131756  0.49989922  0.00060308  1
  K  K3  1  0.01440627  0.50017807  0.49941956  1
  K  K4  1  0.34022589  -0.00082669  -0.00011512  1
  K  K5  1  0.34883831  0.00572248  0.50642658  1
  K  K6  1  0.33893897  0.50181347  0.00267082  1
  K  K7  1  0.33059234  0.50218874  0.48919392  1
  K  K8  1  0.65287124  0.00074513  -0.00557012  1
  K  K9  1  0.66550583  0.00352016  0.50707431  1
  K  K10  1  0.66803606  0.50418067  0.00179647  1
  K  K11  1  0.65788228  0.49504565  0.49659919  1
  K  K12  1  0.16313286  0.26664712  0.00090836  1
  K  K13  1  0.16329634  0.26078090  0.51024317  1
  K  K14  1  0.16076218  0.73758734  0.00283271  1
  K  K15  1  0.16069037  0.73861944  0.50630589  1
  K  K16  1  0.48786123  0.26295147  0.00732788  1
  K  K17  1  0.49886537  0.25940674  0.50223959  1
  K  K18  1  0.48541135  0.73605161  0.00565810  1
  K  K19  1  0.49660111  0.74208098  0.50042823  1
  K  K20  1  0.83512924  0.25408370  -0.00482682  1
  K  K21  1  0.82997720  0.26414710  0.50722431  1
  K  K22  1  0.82502825  0.73608527  0.00433501  1
  K  K23  1  0.84741191  0.74934234  0.50816140  1
  Na  Na24  1  0.16389250  0.50005652  0.25552818  1
  Na  Na25  1  0.49881808  0.33214761  0.24836950  1
  Na  Na26  1  0.00050844  0.08253968  0.74819755  1
  Li  Li27  1  0.83338469  0.50130435  0.25109575  1
  Li  Li28  1  0.66896781  0.25316657  0.75408673  1
  Li  Li29  1  0.16346442  0.33607648  0.75689698  1
  Li  Li30  1  0.49713379  0.66121200  0.24689611  1
  Li  Li31  1  0.00193219  0.58248206  0.75441012  1
  Mg  Mg32  1  0.66630472  0.25061162  0.25199812  1
  Mg  Mg33  1  0.50401681  0.00155724  0.74291207  1
  Mg  Mg34  1  0.83500879  0.50152588  0.75591177  1
  Mg  Mg35  1  0.49903660  0.50124840  0.24931963  1
  Mg  Mg36  1  0.33359512  0.75038715  0.74681060  1
  Mg  Mg37  1  0.83714736  0.00025146  0.74435798  1
  Mg  Mg38  1  0.50036673  -0.00134308  0.24341162  1
  Mg  Mg39  1  0.49723164  0.49871749  0.75551692  1
  Mg  Mg40  1  0.33594207  0.25024098  0.25091050  1
  Mg  Mg41  1  0.16176843  0.49814911  0.75394485  1
  Mg  Mg42  1  0.66265947  0.74769228  0.24661885  1
  Mg  Mg43  1  0.00162298  0.25241648  0.75394393  1
  Mg  Mg44  1  0.16702900  -0.00076861  0.24934242  1
  Mg  Mg45  1  0.83282395  -0.00129603  0.25022137  1
  Mg  Mg46  1  0.00146718  0.25118357  0.25544706  1
  Mg  Mg47  1  0.66832172  0.74836998  0.74898990  1
  Mg  Mg48  1  0.00311409  0.74849661  0.74754525  1
  Mg  Mg49  1  0.16768336  0.00086384  0.74371853  1
  Mg  Mg50  1  -0.00068377  0.74523920  0.25362956  1
  Mg  Mg51  1  0.33140281  0.25078747  0.74862130  1
  Mg  Mg52  1  0.33614037  0.74795042  0.24974779  1
  Mg  Mg53  1  0.16646315  0.16978888  0.74931233  1
  Mg  Mg54  1  0.00198254  0.41738975  0.75527612  1
  Mg  Mg55  1  0.50239547  0.33196888  0.75370994  1
  Mg  Mg56  1  0.83283560  0.33525928  0.25399448  1
  Mg  Mg57  1  0.83165366  0.83232963  0.24869155  1
  Mg  Mg58  1  0.33405106  0.08418574  0.24543442  1
  Mg  Mg59  1  0.83867888  0.66430970  0.75319539  1
  Mg  Mg60  1  0.33382344  0.91497537  0.24579078  1
  Mg  Mg61  1  0.33512565  0.91643356  0.74154372  1
  Mg  Mg62  1  0.16919149  0.33414105  0.25473853  1
  Mg  Mg63  1  0.49619125  0.16636692  0.24406863  1
  Mg  Mg64  1  0.50587011  0.16797610  0.74729379  1
  Mg  Mg65  1  0.00062803  0.08315854  0.25176696  1
  Mg  Mg66  1  0.83151529  0.66246794  0.25216288  1
  Mg  Mg67  1  -0.00243472  0.41721138  0.25483318  1
  Mg  Mg68  1  0.16686075  0.66463538  0.25332940  1
  Mg  Mg69  1  0.16700891  0.83327509  0.25161428  1
  Mg  Mg70  1  0.33541502  0.08574116  0.74589821  1
  Mg  Mg71  1  0.00029850  0.91415411  0.25152924  1
  Mg  Mg72  1  0.16351767  0.66432404  0.75030567  1
  Mg  Mg73  1  0.33366260  0.41683053  0.25161119  1
  Mg  Mg74  1  0.49885126  0.66459391  0.75145921  1
  Mg  Mg75  1  0.16787396  0.16401600  0.25034928  1
  Mg  Mg76  1  0.33194642  0.58345209  0.75238196  1
  Mg  Mg77  1  0.66586301  0.58289211  0.24854001  1
  Mg  Mg78  1  0.66886469  0.91547827  0.74233142  1
  Mg  Mg79  1  0.83328854  0.16910752  0.74874377  1
  Mg  Mg80  1  0.66813892  0.41441018  0.75712395  1
  Mg  Mg81  1  0.49757023  0.83184909  0.24341549  1
  Mg  Mg82  1  0.33017983  0.41467182  0.75471667  1
  Mg  Mg83  1  0.66438873  0.08373096  0.24661185  1
  Mg  Mg84  1  -0.00309920  0.57927268  0.25648837  1
  Mg  Mg85  1  0.00004223  0.91612063  0.74348977  1
  Mg  Mg86  1  0.83390282  0.16532142  0.25167632  1
  Mg  Mg87  1  0.83718577  0.83418807  0.74366907  1
  Mg  Mg88  1  0.83338354  0.33435595  0.75636759  1
  Mg  Mg89  1  0.66780596  0.58333112  0.75393529  1
  Mg  Mg90  1  0.66841664  0.08756390  0.74624111  1
  Mg  Mg91  1  0.66731317  0.41808082  0.25165448  1
  Mg  Mg92  1  0.16608469  0.83504981  0.74257071  1
  Mg  Mg93  1  0.33573796  0.58434331  0.25337673  1
  Mg  Mg94  1  0.49989731  0.83365335  0.74334220  1
  Mg  Mg95  1  0.66304776  0.91465215  0.24556861  1
  Fe  Fe96  1  0.80760036  0.58868398  0.89190691  1
  Fe  Fe97  1  0.35018049  0.34297099  0.10788525  1
  Fe  Fe98  1  0.03181671  0.83368417  0.60416829  1
  Fe  Fe99  1  0.14274607  0.58761931  0.39623672  1
  Fe  Fe100  1  0.86025489  0.57642707  0.11556912  1
  Fe  Fe101  1  0.47273457  0.41906353  0.39188150  1
  Fe  Fe102  1  0.46916278  0.58375404  0.89083931  1
  Fe  Fe103  1  0.35155654  0.66048612  0.11220023  1
  Fe  Fe104  1  0.52740746  0.08594256  0.60564593  1
  Fe  Fe105  1  0.52262671  0.91526761  0.10525981  1
  Fe  Fe106  1  0.35246266  0.16925978  0.10509565  1
  Fe  Fe107  1  0.85768690  0.92157036  0.60241018  1
  Fe  Fe108  1  0.97550990  0.33120914  0.89369455  1
  Fe  Fe109  1  0.14173567  0.40853751  0.39623987  1
  Fe  Fe110  1  0.13816730  0.58483438  0.88967626  1
  Fe  Fe111  1  0.64096199  0.33011244  0.89223390  1
  Fe  Fe112  1  0.36015787  0.83155110  0.60497420  1
  Si  Si113  1  0.97260481  0.67475153  0.88866907  1
  Si  Si114  1  0.47972253  0.08015850  0.38115615  1
  Si  Si115  1  0.47003690  0.41121480  0.89090275  1
  Si  Si116  1  0.97179627  0.83430606  0.38557187  1
  Si  Si117  1  0.81181439  0.91465375  0.88038446  1
  Si  Si118  1  0.19029688  0.41516985  0.62041005  1
  Si  Si119  1  0.69724219  0.83570638  0.11074518  1
  Si  Si120  1  0.80691590  0.08018640  0.38515584  1
  Si  Si121  1  0.97789157  0.16340722  0.88728802  1
  Si  Si122  1  0.52469709  0.58147705  0.61609086  1
  Si  Si123  1  0.64115095  0.83119570  0.38269931  1
  Si  Si124  1  0.80457790  0.91594495  0.38337142  1
  Si  Si125  1  0.53174193  0.91175606  0.60563566  1
  Si  Si126  1  0.19953096  0.92474285  0.60599375  1
  Si  Si127  1  0.80199328  0.58358667  0.38701120  1
  Si  Si128  1  0.53507500  0.42016570  0.11347812  1
  Si  Si129  1  0.13990885  0.91621020  0.38614022  1
  Si  Si130  1  0.47557286  0.58831116  0.38854800  1
  Si  Si131  1  0.80749051  0.41932147  0.89354198  1
  Si  Si132  1  0.35703375  0.33615890  0.61740102  1
  Si  Si133  1  0.81163550  0.07861945  0.88250618  1
  Si  Si134  1  0.47754600  0.91710693  0.38133446  1
  Si  Si135  1  0.14499144  0.41740602  0.89200929  1
  Si  Si136  1  0.96739084  0.66842987  0.39192934  1
  Si  Si137  1  0.35464258  0.66136293  0.61155112  1
  Si  Si138  1  0.02556003  0.32920217  0.11843589  1
  Si  Si139  1  0.47709459  0.91915678  0.87893918  1
  Si  Si140  1  0.02520116  0.66309361  0.61219279  1
  Si  Si141  1  0.30141926  0.67391744  0.88565009  1
  Si  Si142  1  0.02504122  0.17367878  0.61481688  1
  Si  Si143  1  0.52324474  0.41758493  0.61846022  1
  Si  Si144  1  0.02545986  0.83197882  0.11637998  1
  Si  Si145  1  0.02240109  0.33623589  0.61805532  1
  Si  Si146  1  0.14770502  0.08250889  0.88229092  1
  Si  Si147  1  0.86076728  0.08266834  0.11576622  1
  Si  Si148  1  0.64501259  0.33156758  0.38910631  1
  Si  Si149  1  0.85914658  0.40674064  0.11684611  1
  Si  Si150  1  0.80516791  0.41696004  0.38723488  1
  Si  Si151  1  0.30846857  0.32151629  0.39342558  1
  Si  Si152  1  0.18892735  0.09028761  0.61210351  1
  Si  Si153  1  0.69543480  0.16398571  0.11574372  1
  Si  Si154  1  0.14144866  0.08179464  0.38677934  1
  Si  Si155  1  0.63512852  0.67245546  0.88828358  1
  Si  Si156  1  0.69607440  0.82716523  0.60920009  1
  Si  Si157  1  0.69215305  0.33968729  0.61864539  1
  Si  Si158  1  0.18721692  0.07772563  0.11183137  1
  Si  Si159  1  0.34910028  0.83227202  0.10787119  1
  Si  Si160  1  0.14615944  0.91888917  0.88136151  1
  Si  Si161  1  0.64360448  0.16595512  0.38436613  1
  Si  Si162  1  0.18689465  0.91537030  0.11456120  1
  Si  Si163  1  0.98051954  0.83620439  0.88219995  1
  Si  Si164  1  0.19184637  0.57776562  0.61680590  1
  Si  Si165  1  0.47730955  0.08393755  0.88222705  1
  Si  Si166  1  0.85538940  0.09263211  0.60990974  1
  Si  Si167  1  0.02497895  0.66770651  0.11573663  1
  Si  Si168  1  0.52688046  0.08680312  0.10835172  1
  Si  Si169  1  0.31139682  0.16557232  0.88395229  1
  Si  Si170  1  0.69353741  0.66960586  0.11325338  1
  Si  Si171  1  0.31129209  0.67590985  0.39018269  1
  Si  Si172  1  0.64762990  0.16107725  0.88681706  1
  Si  Si173  1  0.64108297  0.66743726  0.38406854  1
  Si  Si174  1  0.96845540  0.32918010  0.39263760  1
  Si  Si175  1  0.69458660  0.32802825  0.11724265  1
  Si  Si176  1  0.35581096  0.17088705  0.61045692  1
  Si  Si177  1  0.30432530  0.33015756  0.88444486  1
  Si  Si178  1  0.86349347  0.91714768  0.11514401  1
  Si  Si179  1  0.85805254  0.58290996  0.61650634  1
  Si  Si180  1  0.31161284  0.15707452  0.38499975  1
  Si  Si181  1  0.53017136  0.58349864  0.11346003  1
  Si  Si182  1  0.64421762  0.83711893  0.88045961  1
  Si  Si183  1  0.18436662  0.42064306  0.11794588  1
  Si  Si184  1  0.97307021  0.16288291  0.38767871  1
  Si  Si185  1  0.69624124  0.17492486  0.61183601  1
  Si  Si186  1  0.85702381  0.41952814  0.61728109  1
  Si  Si187  1  0.18720552  0.58312217  0.11813108  1
  Si  Si188  1  0.31061421  0.84057761  0.38434154  1
  Si  Si189  1  0.02636923  0.16439845  0.11636336  1
  Si  Si190  1  0.68980674  0.66303106  0.61441414  1
  Si  Si191  1  0.31089250  0.83754904  0.88006493  1
  O  O192  1  0.26542225  0.09858975  0.07719251  1
  O  O193  1  0.26524696  0.12943780  0.58176215  1
  O  O194  1  0.26207138  0.59849174  0.07680655  1
  O  O195  1  0.27283767  0.60824339  0.58601012  1
  O  O196  1  0.61846509  0.11040364  0.08597820  1
  O  O197  1  0.61817980  0.12786708  0.57245757  1
  O  O198  1  0.60523202  0.62817244  0.08489445  1
  O  O199  1  0.60445728  0.61538872  0.58504400  1
  O  O200  1  0.94122229  0.11658006  0.08721520  1
  O  O201  1  0.94162233  0.12535605  0.58536824  1
  O  O202  1  0.94926650  0.61817980  0.07946999  1
  O  O203  1  0.93708589  0.61657742  0.58556625  1
  O  O204  1  0.10367978  0.36557222  0.08967630  1
  O  O205  1  0.10296278  0.37142858  0.58922474  1
  O  O206  1  0.10767888  0.86136554  0.08687122  1
  O  O207  1  0.12631348  0.87100944  0.57123233  1
  O  O208  1  0.45008811  0.37858536  0.08054290  1
  O  O209  1  0.43635857  0.37303356  0.58807798  1
  O  O210  1  0.42605177  0.86095796  0.07284797  1
  O  O211  1  0.45963409  0.85488803  0.57395176  1
  O  O212  1  0.77951545  0.35136854  0.08939834  1
  O  O213  1  0.76851869  0.37726744  0.58524072  1
  O  O214  1  0.78460712  0.86520506  0.08542485  1
  O  O215  1  0.77380128  0.85066615  0.57429259  1
  O  O216  1  0.25798095  0.40487140  0.07569188  1
  O  O217  1  0.26889854  0.37925974  0.58907443  1
  O  O218  1  0.26917889  0.89072374  0.08436512  1
  O  O219  1  0.28568765  0.90807328  0.57751894  1
  O  O220  1  0.61514590  0.37876151  0.08637759  1
  O  O221  1  0.60308874  0.38250327  0.58894808  1
  O  O222  1  0.62218068  0.88658228  0.07475103  1
  O  O223  1  0.61838220  0.88212511  0.58110136  1
  O  O224  1  0.93893201  0.37089382  0.08684448  1
  O  O225  1  0.93465035  0.38045615  0.58672552  1
  O  O226  1  0.94685828  0.88713925  0.08750938  1
  O  O227  1  0.94438232  0.89050421  0.56165262  1
  O  O228  1  0.10307004  0.12793275  0.08527170  1
  O  O229  1  0.10312921  0.13693993  0.58322174  1
  O  O230  1  0.11207177  0.64276048  0.09086324  1
  O  O231  1  0.10440435  0.62017424  0.58609302  1
  O  O232  1  0.45648497  0.14503476  0.07849939  1
  O  O233  1  0.42600493  0.13603777  0.57257710  1
  O  O234  1  0.44390714  0.62231655  0.07869201  1
  O  O235  1  0.43807958  0.62540441  0.58537822  1
  O  O236  1  0.77850130  0.13216511  0.08709411  1
  O  O237  1  0.78184779  0.15256219  0.58160946  1
  O  O238  1  0.76760251  0.63528843  0.08014809  1
  O  O239  1  0.77031594  0.62815629  0.58522466  1
  O  O240  1  0.06526024  0.12448456  0.41552405  1
  O  O241  1  0.06318209  0.11110099  0.90927315  1
  O  O242  1  0.04970361  0.62869588  0.43075644  1
  O  O243  1  0.04362562  0.61867840  0.92391666  1
  O  O244  1  0.39649494  0.10771378  0.41068040  1
  O  O245  1  0.39768840  0.11887217  0.91229737  1
  O  O246  1  0.40050824  0.63338245  0.41742473  1
  O  O247  1  0.37406151  0.61952043  0.92115809  1
  O  O248  1  0.73008341  0.11975324  0.41408076  1
  O  O249  1  0.72988159  0.10679824  0.91321002  1
  O  O250  1  0.72273081  0.61813907  0.41846560  1
  O  O251  1  0.71017235  0.62021806  0.92298246  1
  O  O252  1  0.22750766  0.34087495  0.42699180  1
  O  O253  1  0.22123015  0.35601126  0.91320711  1
  O  O254  1  0.23033316  0.87679740  0.41353522  1
  O  O255  1  0.23200574  0.87287477  0.91134366  1
  O  O256  1  0.57056690  0.36245521  0.42412317  1
  O  O257  1  0.53961682  0.35197834  0.92161356  1
  O  O258  1  0.56045377  0.86737283  0.41065388  1
  O  O259  1  0.56490273  0.87584200  0.90858495  1
  O  O260  1  0.88823013  0.36860346  0.41879674  1
  O  O261  1  0.87710349  0.35852014  0.92351524  1
  O  O262  1  0.89494186  0.87748249  0.41183062  1
  O  O263  1  0.89872807  0.87042494  0.91118862  1
  O  O264  1  0.05144797  0.36608929  0.43292007  1
  O  O265  1  0.06789220  0.38978973  0.92791592  1
  O  O266  1  0.06227161  0.87496249  0.41307203  1
  O  O267  1  0.06379677  0.88756355  0.91036578  1
  O  O268  1  0.38849396  0.36951734  0.42761259  1
  O  O269  1  0.38147638  0.38409117  0.91538920  1
  O  O270  1  0.39466920  0.89001947  0.41168589  1
  O  O271  1  0.39633432  0.88553870  0.90751764  1
  O  O272  1  0.73032921  0.37897008  0.42104420  1
  O  O273  1  0.72089708  0.40167730  0.92207187  1
  O  O274  1  0.72702760  0.87760078  0.41221932  1
  O  O275  1  0.73048658  0.88290495  0.91027094  1
  O  O276  1  0.23278286  0.11905781  0.41557605  1
  O  O277  1  0.23293026  0.12873324  0.91437459  1
  O  O278  1  0.23869289  0.64665905  0.42800660  1
  O  O279  1  0.21557112  0.66048009  0.91412266  1
  O  O280  1  0.56319908  0.12873930  0.41169719  1
  O  O281  1  0.56570987  0.12351399  0.91451769  1
  O  O282  1  0.56107352  0.63789628  0.41539731  1
  O  O283  1  0.55039738  0.65522602  0.91776043  1
  O  O284  1  0.89920843  0.11607212  0.41502035  1
  O  O285  1  0.89905120  0.12054679  0.91511623  1
  O  O286  1  0.88450487  0.63283427  0.41823842  1
  O  O287  1  0.88587073  0.66222616  0.91746501  1
  O  O288  1  0.15548212  -0.00462787  0.08710490  1
  O  O289  1  0.17269504  0.00920985  0.58167285  1
  O  O290  1  0.14645204  0.50244984  0.10001875  1
  O  O291  1  0.17668825  0.49574274  0.58823334  1
  O  O292  1  0.50309041  0.00951783  0.07315345  1
  O  O293  1  0.51304936  -0.00899724  0.57270079  1
  O  O294  1  0.53410403  0.50192929  0.08227775  1
  O  O295  1  0.51172827  0.49909816  0.58725353  1
  O  O296  1  0.84609275  0.00000488  0.08700284  1
  O  O297  1  0.83123981  0.01745982  0.57125713  1
  O  O298  1  0.83649579  0.48322436  0.08204517  1
  O  O299  1  0.84473380  0.50085604  0.58554120  1
  O  O300  1  0.01317905  0.24613546  0.08840122  1
  O  O301  1  0.01002762  0.25537151  0.58294308  1
  O  O302  1  0.00457536  0.75177826  0.08705388  1
  O  O303  1  0.01385495  0.73800893  0.57175197  1
  O  O304  1  0.32012017  0.25515576  0.06537545  1
  O  O305  1  0.34255130  0.25535140  0.58552907  1
  O  O306  1  0.31850031  0.75426298  0.07895961  1
  O  O307  1  0.33274595  0.73710551  0.57416535  1
  O  O308  1  0.67476935  0.24542655  0.08850496  1
  O  O309  1  0.67931011  0.25921711  0.58630329  1
  O  O310  1  0.68175381  0.75317885  0.08453545  1
  O  O311  1  0.66961555  0.74392393  0.58354139  1
  O  O312  1  0.14345371  -0.00104347  0.41530910  1
  O  O313  1  0.16253133  0.00011537  0.91315534  1
  O  O314  1  0.16634302  0.49802721  0.43485044  1
  O  O315  1  0.17879755  0.49452708  0.92359206  1
  O  O316  1  0.50013334  -0.00150057  0.41088274  1
  O  O317  1  0.48833891  0.00059025  0.91019089  1
  O  O318  1  0.48924838  0.51314001  0.42913377  1
  O  O319  1  0.49443867  0.49011235  0.92263692  1
  O  O320  1  0.81116008  -0.00216776  0.41291963  1
  O  O321  1  0.82804889  -0.00409282  0.91109887  1
  O  O322  1  0.81635489  0.50033731  0.41571316  1
  O  O323  1  0.84364510  0.49749428  0.92199631  1
  O  O324  1  0.33195662  0.23587643  0.41705200  1
  O  O325  1  0.32656086  0.24729137  0.91271988  1
  O  O326  1  0.33038046  0.76086326  0.41520579  1
  O  O327  1  0.33228117  0.75751417  0.90958992  1
  O  O328  1  0.66183245  0.24638747  0.41546112  1
  O  O329  1  0.67140491  0.23583345  0.92476404  1
  O  O330  1  0.65714000  0.75046764  0.41366206  1
  O  O331  1  0.66093802  0.75713830  0.91150910  1
  O  O332  1  0.96922034  0.24322442  0.41814383  1
  O  O333  1  0.99663659  0.23644229  0.92935679  1
  O  O334  1  0.97248380  0.75419873  0.41695367  1
  O  O335  1  1.00395602  0.75802164  0.91550100  1
  O  O336  1  0.20589643  0.08028190  0.19319806  1
  O  O337  1  0.21051789  0.08693640  0.69216517  1
  O  O338  1  0.21526603  0.59261434  0.19726291  1
  O  O339  1  0.21173124  0.58195022  0.69651288  1
  O  O340  1  0.54444077  0.08214165  0.19031405  1
  O  O341  1  0.54711272  0.08487261  0.69713690  1
  O  O342  1  0.54666058  0.58168972  0.19369755  1
  O  O343  1  0.54442577  0.58332840  0.69600347  1
  O  O344  1  0.87827768  0.08155733  0.19646174  1
  O  O345  1  0.86731826  0.08629262  0.68950891  1
  O  O346  1  0.87924039  0.58539112  0.20555946  1
  O  O347  1  0.87296938  0.58342419  0.69558556  1
  O  O348  1  0.04171561  0.32699355  0.19851440  1
  O  O349  1  0.03888136  0.33388599  0.69685956  1
  O  O350  1  0.04255639  0.83448744  0.19688432  1
  O  O351  1  0.04576776  0.83345101  0.69636271  1
  O  O352  1  0.36471358  0.33186261  0.19796542  1
  O  O353  1  0.37669351  0.33454620  0.69731116  1
  O  O354  1  0.37184375  0.83514290  0.18961893  1
  O  O355  1  0.37930740  0.83256385  0.69686930  1
  O  O356  1  0.71167358  0.32932071  0.19779448  1
  O  O357  1  0.71409891  0.34065213  0.69753674  1
  O  O358  1  0.71259841  0.83661475  0.19187040  1
  O  O359  1  0.71204864  0.83019299  0.69030685  1
  O  O360  1  0.21151952  0.40891499  0.19685614  1
  O  O361  1  0.21061156  0.41706915  0.69945185  1
  O  O362  1  0.20623004  0.91593306  0.19532156  1
  O  O363  1  0.21339776  0.92030966  0.68761110  1
  O  O364  1  0.55257073  0.42336722  0.19324707  1
  O  O365  1  0.53999504  0.41845903  0.69812083  1
  O  O366  1  0.54429057  0.91607307  0.19734593  1
  O  O367  1  0.54607036  0.91493707  0.68750295  1
  O  O368  1  0.87890917  0.40648907  0.19704244  1
  O  O369  1  0.87386251  0.41889776  0.69679924  1
  O  O370  1  0.87885105  0.91763787  0.19582537  1
  O  O371  1  0.87811297  0.91728043  0.69464097  1
  O  O372  1  0.04267891  0.16249126  0.19694262  1
  O  O373  1  0.04746834  0.17588321  0.69363225  1
  O  O374  1  0.04072364  0.67042799  0.19639120  1
  O  O375  1  0.04470841  0.67011607  0.69157875  1
  O  O376  1  0.37445925  0.16535139  0.19789663  1
  O  O377  1  0.37639289  0.16674778  0.69103557  1
  O  O378  1  0.37650520  0.66717574  0.20264621  1
  O  O379  1  0.37470351  0.66605973  0.69217322  1
  O  O380  1  0.71496822  0.16336837  0.19632093  1
  O  O381  1  0.71174229  0.16676545  0.69143687  1
  O  O382  1  0.71073234  0.66907146  0.19426293  1
  O  O383  1  0.70717729  0.66557017  0.69433685  1
  O  O384  1  0.12258150  0.08064544  0.30616446  1
  O  O385  1  0.13710689  0.08204853  0.80325188  1
  O  O386  1  0.11414660  0.59464240  0.30610949  1
  O  O387  1  0.12253113  0.58359086  0.79913564  1
  O  O388  1  0.46036057  0.07907511  0.30109066  1
  O  O389  1  0.45776166  0.08407912  0.80205965  1
  O  O390  1  0.45810855  0.58278624  0.30906645  1
  O  O391  1  0.45287103  0.58375523  0.79878577  1
  O  O392  1  0.79093537  0.08157014  0.30464709  1
  O  O393  1  0.79266724  0.08164923  0.80241526  1
  O  O394  1  0.78349498  0.58752580  0.30795452  1
  O  O395  1  0.78726626  0.58595345  0.80017905  1
  O  O396  1  0.28967619  0.32551590  0.31236293  1
  O  O397  1  0.29213931  0.32962634  0.80482274  1
  O  O398  1  0.28932151  0.83906030  0.30406785  1
  O  O399  1  0.28945423  0.83796722  0.79984180  1
  O  O400  1  0.63449782  0.33166351  0.30950733  1
  O  O401  1  0.61993688  0.33347946  0.80153282  1
  O  O402  1  0.62514752  0.83282064  0.30268366  1
  O  O403  1  0.62496897  0.83574057  0.79987474  1
  O  O404  1  0.95351590  0.32809493  0.31184351  1
  O  O405  1  0.95551381  0.33399388  0.80227838  1
  O  O406  1  0.95514428  0.83451649  0.30497174  1
  O  O407  1  0.95933289  0.83399404  0.80239406  1
  O  O408  1  0.11419288  0.40392176  0.30606385  1
  O  O409  1  0.12171236  0.41912637  0.81146436  1
  O  O410  1  0.12227108  0.91787999  0.30546889  1
  O  O411  1  0.12864421  0.91897439  0.80143134  1
  O  O412  1  0.45350529  0.42407926  0.30257661  1
  O  O413  1  0.45396987  0.41407199  0.80901971  1
  O  O414  1  0.45622081  0.91784587  0.30129563  1
  O  O415  1  0.46057282  0.91941157  0.79880288  1
  O  O416  1  0.78761583  0.41323060  0.30792525  1
  O  O417  1  0.79038440  0.41820950  0.81117001  1
  O  O418  1  0.78840036  0.91640692  0.30278217  1
  O  O419  1  0.79052719  0.91455884  0.80043856  1
  O  O420  1  0.28738631  0.15797990  0.30509783  1
  O  O421  1  0.29315958  0.16478452  0.80360519  1
  O  O422  1  0.28908965  0.67259637  0.30989964  1
  O  O423  1  0.28986422  0.67046169  0.80410647  1
  O  O424  1  0.62639118  0.16380922  0.30418353  1
  O  O425  1  0.62569437  0.16217441  0.80682908  1
  O  O426  1  0.62762363  0.66789160  0.30465417  1
  O  O427  1  0.62203220  0.66934515  0.80647843  1
  O  O428  1  0.95677495  0.16242121  0.30712439  1
  O  O429  1  0.95348966  0.17230887  0.80826461  1
  O  O430  1  0.95258523  0.66985700  0.31136619  1
  O  O431  1  0.95730468  0.67447860  0.80789381  1
  F  F432  1  0.04326770  -0.00095392  0.20349577  1
  F  F433  1  0.05135885  -0.00687498  0.69431385  1
  F  F434  1  0.02789264  0.49827784  0.20189187  1
  F  F435  1  0.04647788  0.49102311  0.69900310  1
  F  F436  1  0.37670213  -0.00097912  0.19887173  1
  F  F437  1  0.38148899  0.00302174  0.69729901  1
  F  F438  1  0.37795617  0.50303183  0.20070429  1
  F  F439  1  0.37636102  0.49627192  0.70342732  1
  F  F440  1  0.71459541  0.00024903  0.20063339  1
  F  F441  1  0.71307887  0.00018805  0.69888168  1
  F  F442  1  0.71180337  0.49980062  0.20418841  1
  F  F443  1  0.70931044  0.49817989  0.70488309  1
  F  F444  1  0.20874041  0.24620575  0.20635705  1
  F  F445  1  0.21591639  0.24448728  0.69784832  1
  F  F446  1  0.21040699  0.75285702  0.20600649  1
  F  F447  1  0.21283717  0.74957195  0.69911748  1
  F  F448  1  0.55399311  0.23965781  0.19909317  1
  F  F449  1  0.53663270  0.25130023  0.69763542  1
  F  F450  1  0.54743112  0.75507626  0.19713364  1
  F  F451  1  0.54675366  0.74749981  0.70083088  1
  F  F452  1  0.88071905  0.24602721  0.20616093  1
  F  F453  1  0.87856835  0.25141927  0.70117887  1
  F  F454  1  0.87928680  0.75138166  0.20388746  1
  F  F455  1  0.87932870  0.74770912  0.69998055  1
  F  F456  1  0.28808131  -0.00084227  0.29523254  1
  F  F457  1  0.29189344  0.00013048  0.79164314  1
  F  F458  1  0.29925913  0.50100249  0.30325417  1
  F  F459  1  0.28775005  0.50016088  0.79968396  1
  F  F460  1  0.62374310  0.00073623  0.29605247  1
  F  F461  1  0.62433596  -0.00349420  0.79384403  1
  F  F462  1  0.62256696  0.50130623  0.30074886  1
  F  F463  1  0.61899813  0.50129152  0.79978173  1
  F  F464  1  0.95440028  -0.00098326  0.29978478  1
  F  F465  1  0.95310947  -0.00888232  0.79988304  1
  F  F466  1  0.95654487  0.49607102  0.30772750  1
  F  F467  1  0.95363967  0.49854700  0.79977317  1
  F  F468  1  0.11968432  0.24080898  0.30193944  1
  F  F469  1  0.12236266  0.24525512  0.80147238  1
  F  F470  1  0.11925269  0.75557779  0.30112385  1
  F  F471  1  0.12506260  0.75300653  0.79540070  1
  F  F472  1  0.45372671  0.23596683  0.30364432  1
  F  F473  1  0.45283360  0.24584079  0.79645607  1
  F  F474  1  0.45208622  0.76332008  0.30045520  1
  F  F475  1  0.45634952  0.75165044  0.79558918  1
  F  F476  1  0.78964055  0.24563736  0.30054974  1
  F  F477  1  0.79073014  0.24854025  0.79873366  1
  F  F478  1  0.78572037  0.75293758  0.29676861  1
  F  F479  1  0.78852749  0.75311055  0.79423428  1
