# generated using pymatgen
data_K24Na3Li5Mg64Fe17Si79(O5F)48
_symmetry_space_group_name_H-M   'P 1'
_cell_length_a   16.11375910
_cell_length_b   18.59561030
_cell_length_c   20.55563333
_cell_angle_alpha   89.99463901
_cell_angle_beta   100.01850758
_cell_angle_gamma   89.99021532
_symmetry_Int_Tables_number   1
_chemical_formula_structural   K24Na3Li5Mg64Fe17Si79(O5F)48
_chemical_formula_sum   'K24 Na3 Li5 Mg64 Fe17 Si79 O240 F48'
_cell_volume   6065.47552797
_cell_formula_units_Z   1
loop_
 _symmetry_equiv_pos_site_id
 _symmetry_equiv_pos_as_xyz
  1  'x, y, z'
loop_
 _atom_site_type_symbol
 _atom_site_label
 _atom_site_symmetry_multiplicity
 _atom_site_fract_x
 _atom_site_fract_y
 _atom_site_fract_z
 _atom_site_occupancy
  K  K0  1  -0.00030486  -0.00453628  0.02013080  1
  K  K1  1  -0.00222354  -0.00004785  0.48987560  1
  K  K2  1  -0.00192238  0.50836805  0.01696994  1
  K  K3  1  0.00228462  0.49846671  0.48148156  1
  K  K4  1  0.34314099  -0.00522017  0.00419620  1
  K  K5  1  0.34084846  -0.00453126  0.49714826  1
  K  K6  1  0.33992596  0.50314669  0.00724254  1
  K  K7  1  0.33094229  0.49588995  0.49464539  1
  K  K8  1  0.66528863  0.00682425  0.00633342  1
  K  K9  1  0.65392225  0.00898696  0.49776101  1
  K  K10  1  0.67745079  0.49783207  0.01018300  1
  K  K11  1  0.66732678  0.49655599  0.48989373  1
  K  K12  1  0.16931980  0.25163321  0.00896627  1
  K  K13  1  0.15475141  0.25185053  0.48827958  1
  K  K14  1  0.16344879  0.75305897  0.01486992  1
  K  K15  1  0.15821178  0.74959692  0.48747865  1
  K  K16  1  0.51847476  0.24735493  0.00822711  1
  K  K17  1  0.50142115  0.25165175  0.49701432  1
  K  K18  1  0.50879846  0.75470005  0.00071330  1
  K  K19  1  0.50229579  0.75579895  0.50061670  1
  K  K20  1  0.82116562  0.25755103  0.01389604  1
  K  K21  1  0.83033710  0.25000607  0.47423599  1
  K  K22  1  0.84844746  0.75048916  0.01214708  1
  K  K23  1  0.82917477  0.74965783  0.49060896  1
  Na  Na24  1  0.67448148  0.25149255  0.25472523  1
  Na  Na25  1  0.66566616  0.91835986  0.75036361  1
  Na  Na26  1  0.16552054  0.83454422  0.24959184  1
  Li  Li27  1  0.16387582  0.50060048  0.25313953  1
  Li  Li28  1  0.16425562  -0.00136806  0.25179542  1
  Li  Li29  1  0.83573937  0.17329801  0.24894802  1
  Li  Li30  1  0.67194754  0.41819149  0.25162812  1
  Li  Li31  1  0.67013838  0.57393452  0.25066547  1
  Mg  Mg32  1  0.49735304  0.00145851  0.25007596  1
  Mg  Mg33  1  -0.00267927  0.25035009  0.25102545  1
  Mg  Mg34  1  0.83079077  0.00836491  0.24654830  1
  Mg  Mg35  1  0.82790266  0.50049158  0.24835233  1
  Mg  Mg36  1  0.16872911  0.00000211  0.74583877  1
  Mg  Mg37  1  0.50625752  0.49949181  0.24996139  1
  Mg  Mg38  1  0.83273597  0.50039935  0.75548635  1
  Mg  Mg39  1  0.66703306  0.75182254  0.75145662  1
  Mg  Mg40  1  0.00273019  0.74984722  0.25213679  1
  Mg  Mg41  1  0.33285196  0.74931011  0.74902780  1
  Mg  Mg42  1  0.50028545  0.49981237  0.74921934  1
  Mg  Mg43  1  -0.00067554  0.24801121  0.75030186  1
  Mg  Mg44  1  0.33452498  0.25033816  0.25015843  1
  Mg  Mg45  1  0.16544761  0.49971531  0.74675827  1
  Mg  Mg46  1  0.33093051  0.74807140  0.24975872  1
  Mg  Mg47  1  0.66642783  0.25191275  0.75234757  1
  Mg  Mg48  1  0.83314519  -0.00112834  0.75024799  1
  Mg  Mg49  1  0.66588932  0.74670931  0.24928215  1
  Mg  Mg50  1  0.33334461  0.25010617  0.74730530  1
  Mg  Mg51  1  0.00045347  0.74929788  0.75089239  1
  Mg  Mg52  1  0.49977211  -0.00182025  0.75124421  1
  Mg  Mg53  1  -0.00163626  0.41504814  0.75165203  1
  Mg  Mg54  1  0.33124227  0.08346943  0.24998878  1
  Mg  Mg55  1  0.83215971  0.33404600  0.75268176  1
  Mg  Mg56  1  0.66873830  0.58415652  0.75247238  1
  Mg  Mg57  1  0.83286462  0.16439826  0.75175893  1
  Mg  Mg58  1  0.33517375  0.91457332  0.74932419  1
  Mg  Mg59  1  0.16502018  0.66359166  0.74683312  1
  Mg  Mg60  1  0.16658843  0.16481353  0.74649632  1
  Mg  Mg61  1  0.66683047  0.08510811  0.25238096  1
  Mg  Mg62  1  0.66561681  0.91549837  0.24970495  1
  Mg  Mg63  1  0.16462333  0.66296563  0.24912033  1
  Mg  Mg64  1  0.66480086  0.41556518  0.75192277  1
  Mg  Mg65  1  0.83164734  0.66506551  0.25091643  1
  Mg  Mg66  1  0.00107920  0.08357043  0.74874768  1
  Mg  Mg67  1  0.00254680  0.58345044  0.24908056  1
  Mg  Mg68  1  0.00115691  0.08327589  0.24590272  1
  Mg  Mg69  1  0.50079260  0.16673330  0.24811837  1
  Mg  Mg70  1  0.32954576  0.58317462  0.74652218  1
  Mg  Mg71  1  0.16740609  0.83313242  0.75060827  1
  Mg  Mg72  1  0.50622326  0.33440097  0.24749337  1
  Mg  Mg73  1  -0.00099873  0.58407477  0.75075881  1
  Mg  Mg74  1  0.50088801  0.83605186  0.75106215  1
  Mg  Mg75  1  0.33111044  0.58065184  0.24946225  1
  Mg  Mg76  1  0.00172177  0.91953290  0.24922132  1
  Mg  Mg77  1  0.83465555  0.83587642  0.24980102  1
  Mg  Mg78  1  0.00273969  0.41911138  0.25193639  1
  Mg  Mg79  1  0.32886436  0.91762324  0.25098573  1
  Mg  Mg80  1  0.16716315  0.16562860  0.25014829  1
  Mg  Mg81  1  0.33214621  0.41536299  0.74799178  1
  Mg  Mg82  1  0.49994762  0.66632455  0.74982861  1
  Mg  Mg83  1  0.33328284  0.41688496  0.24953083  1
  Mg  Mg84  1  0.83291959  0.83387288  0.74940982  1
  Mg  Mg85  1  0.33175249  0.08366328  0.74878580  1
  Mg  Mg86  1  0.16466677  0.33325415  0.74962281  1
  Mg  Mg87  1  0.50137780  0.66355936  0.24836969  1
  Mg  Mg88  1  0.49730563  0.83272069  0.24983296  1
  Mg  Mg89  1  0.50036823  0.16584416  0.75131606  1
  Mg  Mg90  1  0.66539985  0.08338733  0.75024710  1
  Mg  Mg91  1  0.50203894  0.33578164  0.74989687  1
  Mg  Mg92  1  0.00092651  0.91636247  0.74999805  1
  Mg  Mg93  1  0.83294475  0.33349812  0.25173963  1
  Mg  Mg94  1  0.16726977  0.33625982  0.25028603  1
  Mg  Mg95  1  0.83358422  0.66539524  0.75337694  1
  Fe  Fe96  1  0.14813663  0.41796850  0.38914666  1
  Fe  Fe97  1  0.14937775  0.91338832  0.39255713  1
  Fe  Fe98  1  0.96907658  0.15948956  0.38537625  1
  Fe  Fe99  1  0.14456836  0.59042368  0.39059592  1
  Fe  Fe100  1  0.47573730  0.91484644  0.89338863  1
  Fe  Fe101  1  0.69156666  0.16857195  0.11138282  1
  Fe  Fe102  1  0.18962994  0.08168698  0.60684726  1
  Fe  Fe103  1  0.02529491  0.83877270  0.10841439  1
  Fe  Fe104  1  0.81426914  0.58462701  0.89355248  1
  Fe  Fe105  1  0.52420599  0.41914487  0.60829212  1
  Fe  Fe106  1  0.47043809  0.08344605  0.38786361  1
  Fe  Fe107  1  0.18849651  0.58096182  0.60666213  1
  Fe  Fe108  1  0.64255285  0.33565472  0.89305346  1
  Fe  Fe109  1  0.52258705  0.91693427  0.60788433  1
  Fe  Fe110  1  0.14742483  0.08140304  0.38667136  1
  Fe  Fe111  1  0.02733819  0.66559918  0.10740821  1
  Fe  Fe112  1  0.80472563  0.41885517  0.38903759  1
  Si  Si113  1  0.36073758  0.16663937  0.61424911  1
  Si  Si114  1  0.52606285  0.59071026  0.61354538  1
  Si  Si115  1  0.97368952  0.32635633  0.88685710  1
  Si  Si116  1  0.69602258  0.16803052  0.61717302  1
  Si  Si117  1  0.96778617  0.67167379  0.38731316  1
  Si  Si118  1  0.30230212  0.82871770  0.88851112  1
  Si  Si119  1  0.52625648  0.09021122  0.61439881  1
  Si  Si120  1  0.31737478  0.66679859  0.38632900  1
  Si  Si121  1  0.64640168  0.82776576  0.88979920  1
  Si  Si122  1  0.85909183  0.58143215  0.61658733  1
  Si  Si123  1  0.63648247  0.33470067  0.38633508  1
  Si  Si124  1  0.63940125  0.66290952  0.88865375  1
  Si  Si125  1  0.81661125  0.41619587  0.89128843  1
  Si  Si126  1  0.97637241  0.33296007  0.38987411  1
  Si  Si127  1  0.52559870  0.42235273  0.11274072  1
  Si  Si128  1  0.86264884  0.91701734  0.61476309  1
  Si  Si129  1  0.86301782  0.41711895  0.61803285  1
  Si  Si130  1  0.14206440  0.91984962  0.88421503  1
  Si  Si131  1  0.47609950  0.57958509  0.38344086  1
  Si  Si132  1  0.31838121  0.82726067  0.38575437  1
  Si  Si133  1  0.80660255  0.58697924  0.38687345  1
  Si  Si134  1  0.02623793  0.33375520  0.11310555  1
  Si  Si135  1  0.19729585  0.41094153  0.11273897  1
  Si  Si136  1  0.47341416  0.08757461  0.88781746  1
  Si  Si137  1  0.19822135  0.57697659  0.11136908  1
  Si  Si138  1  0.98013988  0.83690637  0.88476017  1
  Si  Si139  1  0.47455091  0.41536439  0.38284354  1
  Si  Si140  1  0.35262340  0.82944073  0.61205281  1
  Si  Si141  1  0.35385206  0.33129947  0.61277999  1
  Si  Si142  1  0.97619934  0.16118453  0.88658816  1
  Si  Si143  1  0.18633920  0.91006254  0.61345853  1
  Si  Si144  1  0.63773411  0.66472570  0.38304638  1
  Si  Si145  1  0.02193287  0.33103269  0.61742005  1
  Si  Si146  1  0.14457358  0.08395494  0.88480531  1
  Si  Si147  1  0.85179380  0.92026790  0.11129086  1
  Si  Si148  1  0.01991190  0.66855760  0.61334101  1
  Si  Si149  1  0.63488272  0.16701015  0.38812164  1
  Si  Si150  1  0.19734010  0.09104806  0.11119815  1
  Si  Si151  1  0.52252711  0.91244891  0.11519688  1
  Si  Si152  1  0.69951380  0.83117204  0.61181602  1
  Si  Si153  1  0.19883589  0.92642715  0.11048503  1
  Si  Si154  1  0.86069357  0.41670598  0.11548237  1
  Si  Si155  1  0.02002440  0.16913444  0.61326079  1
  Si  Si156  1  0.02295949  0.83099074  0.61650010  1
  Si  Si157  1  0.30207687  0.33684191  0.88506341  1
  Si  Si158  1  0.63789057  0.82771419  0.38375945  1
  Si  Si159  1  0.85490613  0.58302196  0.11335798  1
  Si  Si160  1  0.79983785  0.91506628  0.38565767  1
  Si  Si161  1  0.68988700  0.83326973  0.11421699  1
  Si  Si162  1  0.86017329  0.08636037  0.10978585  1
  Si  Si163  1  0.46958222  0.58561670  0.88439148  1
  Si  Si164  1  0.35862868  0.66636447  0.11321753  1
  Si  Si165  1  0.36463304  0.33360757  0.11190278  1
  Si  Si166  1  0.30767702  0.17200456  0.88527736  1
  Si  Si167  1  0.13458985  0.41502186  0.88565017  1
  Si  Si168  1  0.52226582  0.07910732  0.11114315  1
  Si  Si169  1  0.79767686  0.07874081  0.38942848  1
  Si  Si170  1  0.35977772  0.66596588  0.61387843  1
  Si  Si171  1  0.47706790  0.91415656  0.38570908  1
  Si  Si172  1  0.98066355  0.67341561  0.88779929  1
  Si  Si173  1  0.81017836  0.07776972  0.88675715  1
  Si  Si174  1  0.13762329  0.58008293  0.88544639  1
  Si  Si175  1  0.85879268  0.08194925  0.61587267  1
  Si  Si176  1  0.69562016  0.66722615  0.61523823  1
  Si  Si177  1  0.31393390  0.33159864  0.38514962  1
  Si  Si178  1  0.69937483  0.33368915  0.61397223  1
  Si  Si179  1  0.96966347  0.83824660  0.38835030  1
  Si  Si180  1  0.69234580  0.34047334  0.11361093  1
  Si  Si181  1  0.36127464  0.16926670  0.11197972  1
  Si  Si182  1  0.81366498  0.91201783  0.88589836  1
  Si  Si183  1  0.02798142  0.16790000  0.11115289  1
  Si  Si184  1  0.30180928  0.66343626  0.88473954  1
  Si  Si185  1  0.64583323  0.16355930  0.88723559  1
  Si  Si186  1  0.35619627  0.83241411  0.11372931  1
  Si  Si187  1  0.18508002  0.41012678  0.61373418  1
  Si  Si188  1  0.46770702  0.41897387  0.88804437  1
  Si  Si189  1  0.52406852  0.58713919  0.11329569  1
  Si  Si190  1  0.30734889  0.17114272  0.38595364  1
  Si  Si191  1  0.69122204  0.66734592  0.11531861  1
  O  O192  1  0.26709309  0.13908180  0.07830525  1
  O  O193  1  0.29162553  0.10873572  0.58126059  1
  O  O194  1  0.27718714  0.61723041  0.08119515  1
  O  O195  1  0.29225800  0.60596384  0.58230686  1
  O  O196  1  0.59141213  0.11502472  0.07343161  1
  O  O197  1  0.61042955  0.12363900  0.58850383  1
  O  O198  1  0.60015012  0.62887075  0.08415337  1
  O  O199  1  0.60936367  0.62336963  0.58595215  1
  O  O200  1  0.94421758  0.12000347  0.08113246  1
  O  O201  1  0.93872573  0.11588417  0.58732899  1
  O  O202  1  0.92190379  0.62132454  0.07491872  1
  O  O203  1  0.93745273  0.61675620  0.58656656  1
  O  O204  1  0.10484855  0.37271795  0.08232375  1
  O  O205  1  0.10882638  0.35047602  0.59085313  1
  O  O206  1  0.11043425  0.89228882  0.07445208  1
  O  O207  1  0.10912618  0.85106634  0.58935607  1
  O  O208  1  0.43641784  0.37941002  0.08020431  1
  O  O209  1  0.42982370  0.35996786  0.57792712  1
  O  O210  1  0.43768968  0.86589175  0.08495419  1
  O  O211  1  0.42862338  0.85672047  0.57640640  1
  O  O212  1  0.77225894  0.37683997  0.08206179  1
  O  O213  1  0.78574762  0.36327053  0.58900040  1
  O  O214  1  0.75907490  0.88028194  0.08312005  1
  O  O215  1  0.78474164  0.86366155  0.58509421  1
  O  O216  1  0.27028186  0.36648167  0.07965626  1
  O  O217  1  0.26879817  0.38007125  0.58718697  1
  O  O218  1  0.27520208  0.88112419  0.08024397  1
  O  O219  1  0.26842791  0.87903361  0.58548129  1
  O  O220  1  0.60582822  0.38935310  0.08341799  1
  O  O221  1  0.62097899  0.38166697  0.57899447  1
  O  O222  1  0.59837005  0.87168463  0.08535976  1
  O  O223  1  0.61971296  0.87817802  0.57782142  1
  O  O224  1  0.93825537  0.37766254  0.08320556  1
  O  O225  1  0.94822003  0.39024312  0.59136468  1
  O  O226  1  0.91904883  0.88108849  0.07350115  1
  O  O227  1  0.94757891  0.88870991  0.58807160  1
  O  O228  1  0.10597209  0.12999518  0.07967497  1
  O  O229  1  0.10006720  0.14791514  0.58090305  1
  O  O230  1  0.11177574  0.61186721  0.07334802  1
  O  O231  1  0.09939533  0.64724299  0.58005324  1
  O  O232  1  0.42967685  0.11826657  0.08283510  1
  O  O233  1  0.45147835  0.14999972  0.59034546  1
  O  O234  1  0.43796488  0.63294373  0.08116960  1
  O  O235  1  0.45133686  0.65085687  0.59031344  1
  O  O236  1  0.78100899  0.13210225  0.07142328  1
  O  O237  1  0.77357918  0.12821732  0.58839685  1
  O  O238  1  0.76218615  0.62180106  0.08447145  1
  O  O239  1  0.77369858  0.62715481  0.58737866  1
  O  O240  1  0.05508705  0.09979225  0.42504924  1
  O  O241  1  0.06365044  0.11664292  0.91477815  1
  O  O242  1  0.04818054  0.62630797  0.42303779  1
  O  O243  1  0.06384875  0.62237760  0.91514731  1
  O  O244  1  0.37479115  0.11162823  0.42106117  1
  O  O245  1  0.39744573  0.13404785  0.91533112  1
  O  O246  1  0.39596108  0.61005954  0.41431371  1
  O  O247  1  0.39084548  0.62264977  0.91413425  1
  O  O248  1  0.71738193  0.11600780  0.41778552  1
  O  O249  1  0.72800822  0.10988273  0.91355360  1
  O  O250  1  0.72283609  0.62073764  0.41426930  1
  O  O251  1  0.71281062  0.60884353  0.92247614  1
  O  O252  1  0.23667071  0.35220161  0.42131009  1
  O  O253  1  0.22132463  0.37070771  0.91444146  1
  O  O254  1  0.23763626  0.84431830  0.41938951  1
  O  O255  1  0.22033181  0.86706347  0.91403751  1
  O  O256  1  0.55095303  0.36184882  0.41619280  1
  O  O257  1  0.54607148  0.37190331  0.92409380  1
  O  O258  1  0.55664416  0.85844452  0.41237845  1
  O  O259  1  0.57698096  0.86551363  0.92708416  1
  O  O260  1  0.89732945  0.36241912  0.42320065  1
  O  O261  1  0.89234314  0.35480146  0.91579928  1
  O  O262  1  0.88576320  0.87106576  0.41670661  1
  O  O263  1  0.89945613  0.86576918  0.91606932  1
  O  O264  1  0.05612263  0.38287279  0.42361241  1
  O  O265  1  0.05869526  0.37410127  0.91529452  1
  O  O266  1  0.05042396  0.88176603  0.42577362  1
  O  O267  1  0.05773921  0.89270059  0.91176641  1
  O  O268  1  0.39140341  0.38893158  0.41205275  1
  O  O269  1  0.38207648  0.38804119  0.91458625  1
  O  O270  1  0.39694855  0.88222392  0.41603135  1
  O  O271  1  0.38676050  0.86667325  0.92637535  1
  O  O272  1  0.71312714  0.38257467  0.42569374  1
  O  O273  1  0.73633565  0.39429914  0.92469391  1
  O  O274  1  0.72281260  0.87318794  0.41441247  1
  O  O275  1  0.73665295  0.87204916  0.91353952  1
  O  O276  1  0.21937808  0.16181863  0.41254700  1
  O  O277  1  0.22870187  0.13236867  0.91352366  1
  O  O278  1  0.23904394  0.65051992  0.42278756  1
  O  O279  1  0.22921599  0.61713361  0.91388725  1
  O  O280  1  0.56027025  0.14256019  0.42734072  1
  O  O281  1  0.56290152  0.13018240  0.91388457  1
  O  O282  1  0.55936755  0.62864927  0.41391289  1
  O  O283  1  0.55139283  0.63527814  0.91359721  1
  O  O284  1  0.88010897  0.12114456  0.42525632  1
  O  O285  1  0.89731165  0.12398092  0.91532707  1
  O  O286  1  0.88297654  0.64402395  0.41576652  1
  O  O287  1  0.90162506  0.65205064  0.92154398  1
  O  O288  1  0.20102725  0.01002634  0.07932153  1
  O  O289  1  0.15481847  -0.01306801  0.58293149  1
  O  O290  1  0.19938811  0.49264971  0.08243202  1
  O  O291  1  0.15362495  0.48652551  0.58227590  1
  O  O292  1  0.50890609  -0.00615259  0.08480693  1
  O  O293  1  0.50549152  0.01393279  0.57810076  1
  O  O294  1  0.51237996  0.50525284  0.08137309  1
  O  O295  1  0.50141832  0.51469203  0.57755635  1
  O  O296  1  0.84403435  0.00287394  0.08059988  1
  O  O297  1  0.84357792  -0.00061549  0.58728925  1
  O  O298  1  0.84859481  0.49895111  0.08528748  1
  O  O299  1  0.84268268  0.49878439  0.58949461  1
  O  O300  1  0.01810810  0.25139520  0.08032739  1
  O  O301  1  -0.01209595  0.25164066  0.59105551  1
  O  O302  1  0.02213626  0.75248936  0.06261707  1
  O  O303  1  -0.01112697  0.75139859  0.59009594  1
  O  O304  1  0.36623929  0.25133970  0.08137012  1
  O  O305  1  0.33038155  0.24812404  0.58901154  1
  O  O306  1  0.34264106  0.74941475  0.08422654  1
  O  O307  1  0.32743462  0.74630627  0.58726339  1
  O  O308  1  0.67429640  0.26323252  0.07690784  1
  O  O309  1  0.68784619  0.24966133  0.58741154  1
  O  O310  1  0.68524505  0.75057281  0.08398826  1
  O  O311  1  0.68959711  0.74766284  0.58201117  1
  O  O312  1  0.19056040  -0.00067620  0.43071347  1
  O  O313  1  0.16307340  0.00178814  0.91307014  1
  O  O314  1  0.17452163  0.50409930  0.43291912  1
  O  O315  1  0.14254630  0.49723340  0.91478054  1
  O  O316  1  0.50369095  -0.00954577  0.41977466  1
  O  O317  1  0.47769532  0.01078955  0.92476533  1
  O  O318  1  0.49665764  0.49761700  0.41191920  1
  O  O319  1  0.47783515  0.50361951  0.91453109  1
  O  O320  1  0.80310763  -0.00529122  0.41968022  1
  O  O321  1  0.82565605  -0.00483256  0.91536439  1
  O  O322  1  0.82655860  0.51216343  0.42624904  1
  O  O323  1  0.85647018  0.49253297  0.91943777  1
  O  O324  1  0.34982117  0.25113821  0.40916308  1
  O  O325  1  0.31249383  0.25464618  0.91503463  1
  O  O326  1  0.35681940  0.74660760  0.40986190  1
  O  O327  1  0.30160892  0.74446579  0.91530068  1
  O  O328  1  0.65747802  0.25074234  0.41214909  1
  O  O329  1  0.66760777  0.24031069  0.92241119  1
  O  O330  1  0.65232418  0.74645932  0.41508213  1
  O  O331  1  0.66006095  0.74443074  0.91900824  1
  O  O332  1  0.99494967  0.25171901  0.41941391  1
  O  O333  1  0.99271062  0.24365560  0.91486495  1
  O  O334  1  0.97764310  0.75488344  0.41631451  1
  O  O335  1  1.01027052  0.75640355  0.91048041  1
  O  O336  1  0.21629124  0.09273727  0.19006951  1
  O  O337  1  0.21086126  0.08352374  0.70016729  1
  O  O338  1  0.21550167  0.58197187  0.19082297  1
  O  O339  1  0.20862136  0.58188438  0.69972891  1
  O  O340  1  0.54245975  0.08096400  0.19139411  1
  O  O341  1  0.54381494  0.08595958  0.69570954  1
  O  O342  1  0.53738949  0.58465048  0.19218961  1
  O  O343  1  0.54501438  0.58559004  0.69503201  1
  O  O344  1  0.87701823  0.08314750  0.18924202  1
  O  O345  1  0.87832323  0.08288576  0.69673358  1
  O  O346  1  0.87439224  0.58590926  0.19366584  1
  O  O347  1  0.87829296  0.58292942  0.69718689  1
  O  O348  1  0.04468510  0.33316483  0.19244590  1
  O  O349  1  0.04097394  0.33205755  0.69863191  1
  O  O350  1  0.02986032  0.83324804  0.19754500  1
  O  O351  1  0.04210914  0.83289526  0.69743518  1
  O  O352  1  0.37890495  0.33446180  0.19167830  1
  O  O353  1  0.37507244  0.33384682  0.69469944  1
  O  O354  1  0.37563874  0.83200872  0.19368077  1
  O  O355  1  0.37212432  0.83058446  0.69361614  1
  O  O356  1  0.71495845  0.34005033  0.19186816  1
  O  O357  1  0.71392354  0.33369815  0.69534463  1
  O  O358  1  0.70734535  0.83296448  0.19449769  1
  O  O359  1  0.71716210  0.82672451  0.69195063  1
  O  O360  1  0.21689095  0.40922109  0.19155532  1
  O  O361  1  0.20637134  0.41359909  0.69558739  1
  O  O362  1  0.21839382  0.92435945  0.18914454  1
  O  O363  1  0.20820954  0.91267798  0.69528778  1
  O  O364  1  0.53676476  0.41949605  0.19148936  1
  O  O365  1  0.54337777  0.41879526  0.70045617  1
  O  O366  1  0.54158912  0.91356378  0.19527300  1
  O  O367  1  0.53471813  0.91710878  0.69770412  1
  O  O368  1  0.88044354  0.41698131  0.19484555  1
  O  O369  1  0.87802802  0.41665010  0.69906852  1
  O  O370  1  0.86795311  0.91872137  0.19192601  1
  O  O371  1  0.87920362  0.91691730  0.69544856  1
  O  O372  1  0.04631491  0.16988712  0.19028402  1
  O  O373  1  0.04047837  0.16656451  0.69518415  1
  O  O374  1  0.04280030  0.66757487  0.19863120  1
  O  O375  1  0.04025968  0.66612101  0.69496152  1
  O  O376  1  0.37581278  0.16939934  0.19160090  1
  O  O377  1  0.37676530  0.16658193  0.69613833  1
  O  O378  1  0.37807770  0.66539727  0.19317062  1
  O  O379  1  0.37600837  0.66567959  0.69567832  1
  O  O380  1  0.71464153  0.15656620  0.19838655  1
  O  O381  1  0.71311150  0.16821222  0.69802238  1
  O  O382  1  0.71034852  0.67104391  0.19443670  1
  O  O383  1  0.71126412  0.66797249  0.69577391  1
  O  O384  1  0.12181271  0.08512798  0.29591239  1
  O  O385  1  0.12269853  0.08414024  0.80461618  1
  O  O386  1  0.12227975  0.58254613  0.30041697  1
  O  O387  1  0.12036790  0.58093178  0.80503738  1
  O  O388  1  0.45317599  0.08413019  0.29607701  1
  O  O389  1  0.45365686  0.08577617  0.80672766  1
  O  O390  1  0.45732040  0.58273074  0.30326527  1
  O  O391  1  0.45321238  0.58386302  0.80378489  1
  O  O392  1  0.78271474  0.07420822  0.30985753  1
  O  O393  1  0.79390970  0.08152612  0.80630833  1
  O  O394  1  0.79253370  0.58506577  0.30698761  1
  O  O395  1  0.78991148  0.58434464  0.80103104  1
  O  O396  1  0.29339442  0.33374993  0.30394463  1
  O  O397  1  0.28634202  0.33423135  0.80465399  1
  O  O398  1  0.30294037  0.83133878  0.30568712  1
  O  O399  1  0.28809741  0.83072444  0.80738506  1
  O  O400  1  0.61670621  0.34024283  0.30758253  1
  O  O401  1  0.62300997  0.33324655  0.80109474  1
  O  O402  1  0.62162265  0.83044247  0.30334071  1
  O  O403  1  0.62168766  0.82488715  0.80997268  1
  O  O404  1  0.96108192  0.33604430  0.30807948  1
  O  O405  1  0.95755548  0.32960479  0.80627127  1
  O  O406  1  0.95186962  0.83784660  0.30770694  1
  O  O407  1  0.95901811  0.83525588  0.80411179  1
  O  O408  1  0.12329331  0.41592383  0.29823948  1
  O  O409  1  0.11993600  0.41512562  0.80524396  1
  O  O410  1  0.11658870  0.92509043  0.30526154  1
  O  O411  1  0.12403836  0.91837138  0.80358316  1
  O  O412  1  0.45691961  0.41628197  0.30260379  1
  O  O413  1  0.45211978  0.41730885  0.80713227  1
  O  O414  1  0.45860061  0.91499855  0.30461859  1
  O  O415  1  0.45237524  0.91526950  0.80207214  1
  O  O416  1  0.79182304  0.41912051  0.29962335  1
  O  O417  1  0.79400568  0.41484781  0.80914404  1
  O  O418  1  0.78471785  0.91496538  0.30539051  1
  O  O419  1  0.80234631  0.91584498  0.80635856  1
  O  O420  1  0.29269756  0.16843361  0.30415486  1
  O  O421  1  0.28903604  0.17050106  0.80505362  1
  O  O422  1  0.29512095  0.66341757  0.30536118  1
  O  O423  1  0.28718745  0.66528223  0.80453121  1
  O  O424  1  0.61419009  0.15829861  0.30859414  1
  O  O425  1  0.62643982  0.16674527  0.80609988  1
  O  O426  1  0.61862248  0.66996561  0.30387899  1
  O  O427  1  0.62305221  0.66479153  0.80725194  1
  O  O428  1  0.95812990  0.16419378  0.29547780  1
  O  O429  1  0.95759425  0.16346040  0.80598442  1
  O  O430  1  0.95194191  0.66906635  0.30666561  1
  O  O431  1  0.95999717  0.66784961  0.80650116  1
  F  F432  1  0.03227564  -0.00001475  0.19202884  1
  F  F433  1  0.04449852  -0.00027699  0.70189249  1
  F  F434  1  0.03437866  0.50005428  0.19478391  1
  F  F435  1  0.04219562  0.49855717  0.70324227  1
  F  F436  1  0.37957594  -0.00325118  0.19824556  1
  F  F437  1  0.37603029  0.00134792  0.70318732  1
  F  F438  1  0.38070529  0.49984231  0.19999135  1
  F  F439  1  0.37778353  0.49910281  0.70284708  1
  F  F440  1  0.70787009  -0.00284477  0.20086107  1
  F  F441  1  0.71886283  0.01036209  0.69932227  1
  F  F442  1  0.71421254  0.50685453  0.19450023  1
  F  F443  1  0.71275704  0.49801570  0.70409613  1
  F  F444  1  0.21417333  0.25155579  0.20043617  1
  F  F445  1  0.21026574  0.25099917  0.70293597  1
  F  F446  1  0.21706238  0.73904757  0.19795068  1
  F  F447  1  0.21028939  0.74926224  0.70329796  1
  F  F448  1  0.53484306  0.24920362  0.19566757  1
  F  F449  1  0.54547755  0.24850624  0.70301321  1
  F  F450  1  0.54384009  0.75037893  0.19875078  1
  F  F451  1  0.54644769  0.74933882  0.70395489  1
  F  F452  1  0.88301746  0.26024990  0.19630076  1
  F  F453  1  0.87828376  0.24853148  0.70487839  1
  F  F454  1  0.87457446  0.75073049  0.20368646  1
  F  F455  1  0.88009282  0.74880732  0.70409706  1
  F  F456  1  0.29558496  0.00116614  0.29864442  1
  F  F457  1  0.28697025  -0.00225297  0.79928516  1
  F  F458  1  0.29591090  0.49842171  0.29845221  1
  F  F459  1  0.28641338  0.49729950  0.79853836  1
  F  F460  1  0.61826779  -0.00360639  0.29636927  1
  F  F461  1  0.61752493  0.01107959  0.80322187  1
  F  F462  1  0.61835744  0.50469913  0.30108266  1
  F  F463  1  0.62080650  0.50231671  0.79989688  1
  F  F464  1  0.94854544  0.00082475  0.29427876  1
  F  F465  1  0.95723232  0.00083106  0.79830934  1
  F  F466  1  0.95257542  0.50281921  0.29651439  1
  F  F467  1  0.95717514  0.49935066  0.80015031  1
  F  F468  1  0.12176783  0.25142360  0.29392725  1
  F  F469  1  0.12093920  0.24799253  0.79896350  1
  F  F470  1  0.11961132  0.74023248  0.30360156  1
  F  F471  1  0.12188041  0.74818581  0.79779509  1
  F  F472  1  0.45503917  0.25166399  0.29505899  1
  F  F473  1  0.45314427  0.25133320  0.79759666  1
  F  F474  1  0.45598429  0.74758775  0.29454933  1
  F  F475  1  0.45242244  0.74847416  0.79783368  1
  F  F476  1  0.80654990  0.25324253  0.30674779  1
  F  F477  1  0.79057818  0.24857934  0.80029409  1
  F  F478  1  0.78517188  0.75232534  0.29863122  1
  F  F479  1  0.78996260  0.75106453  0.79929742  1
