# generated using pymatgen
data_K24Na3Li5Mg64Fe17Si79(O5F)48
_symmetry_space_group_name_H-M   'P 1'
_cell_length_a   16.11591177
_cell_length_b   18.61503700
_cell_length_c   20.57122113
_cell_angle_alpha   90.01913656
_cell_angle_beta   100.00282677
_cell_angle_gamma   89.98409352
_symmetry_Int_Tables_number   1
_chemical_formula_structural   K24Na3Li5Mg64Fe17Si79(O5F)48
_chemical_formula_sum   'K24 Na3 Li5 Mg64 Fe17 Si79 O240 F48'
_cell_volume   6077.52148339
_cell_formula_units_Z   1
loop_
 _symmetry_equiv_pos_site_id
 _symmetry_equiv_pos_as_xyz
  1  'x, y, z'
loop_
 _atom_site_type_symbol
 _atom_site_label
 _atom_site_symmetry_multiplicity
 _atom_site_fract_x
 _atom_site_fract_y
 _atom_site_fract_z
 _atom_site_occupancy
  K  K0  1  -0.01943431  -0.00703606  -0.01319598  1
  K  K1  1  -0.01172372  0.00566751  0.50494428  1
  K  K2  1  0.00593983  0.50014027  -0.02156798  1
  K  K3  1  -0.00050243  0.49856787  0.51810485  1
  K  K4  1  0.34278743  -0.00213278  -0.01292809  1
  K  K5  1  0.34455276  -0.00024144  0.51004665  1
  K  K6  1  0.31227044  0.49606905  -0.01228489  1
  K  K7  1  0.32816169  0.48830153  0.51283295  1
  K  K8  1  0.67039392  0.00709568  -0.01026037  1
  K  K9  1  0.67048465  -0.00115212  0.50753102  1
  K  K10  1  0.66932878  0.50184234  -0.00363987  1
  K  K11  1  0.68950066  0.50167148  0.50992105  1
  K  K12  1  0.14913744  0.25829991  -0.01742643  1
  K  K13  1  0.17083611  0.24771417  0.51580717  1
  K  K14  1  0.15388624  0.74829195  -0.01280509  1
  K  K15  1  0.16519200  0.75727956  0.50583459  1
  K  K16  1  0.50585702  0.25575593  -0.01201990  1
  K  K17  1  0.50200316  0.24234268  0.51547836  1
  K  K18  1  0.49157579  0.76055650  -0.00338391  1
  K  K19  1  0.50887647  0.75735010  0.50345658  1
  K  K20  1  0.83396128  0.23901659  -0.01516661  1
  K  K21  1  0.83233185  0.24980465  0.50121092  1
  K  K22  1  0.84564915  0.76251375  -0.00681834  1
  K  K23  1  0.84078852  0.74935157  0.51043603  1
  Na  Na24  1  0.66839013  0.25129444  0.75215838  1
  Na  Na25  1  0.33616141  0.07967785  0.75344177  1
  Na  Na26  1  0.83345762  0.33021570  0.25123107  1
  Li  Li27  1  0.83971759  0.00128777  0.75050196  1
  Li  Li28  1  0.82940768  -0.00017253  0.24933151  1
  Li  Li29  1  0.00097879  0.41939429  0.75377124  1
  Li  Li30  1  -0.00873791  0.91985647  0.75083768  1
  Li  Li31  1  -0.00028104  0.57996479  0.74347676  1
  Mg  Mg32  1  0.16583067  -0.00231464  0.75212627  1
  Mg  Mg33  1  0.33449647  0.24946947  0.74942998  1
  Mg  Mg34  1  0.66769770  0.24866230  0.25492604  1
  Mg  Mg35  1  0.66953097  0.74946097  0.75054552  1
  Mg  Mg36  1  0.83367706  0.50044569  0.25124313  1
  Mg  Mg37  1  0.49897318  0.50050838  0.25012325  1
  Mg  Mg38  1  0.33211571  0.74905728  0.75161732  1
  Mg  Mg39  1  0.00018292  0.24993059  0.75213153  1
  Mg  Mg40  1  0.33282062  0.24929801  0.24912972  1
  Mg  Mg41  1  -0.00089658  0.75160271  0.24476440  1
  Mg  Mg42  1  0.33291261  0.75175551  0.24954396  1
  Mg  Mg43  1  0.84392518  0.49752817  0.75135652  1
  Mg  Mg44  1  0.49961067  0.49975895  0.74901810  1
  Mg  Mg45  1  0.66716045  0.74976520  0.25224347  1
  Mg  Mg46  1  0.16693294  0.50093441  0.24487221  1
  Mg  Mg47  1  -0.00142718  0.75119292  0.74549831  1
  Mg  Mg48  1  0.50021162  -0.00109340  0.75392610  1
  Mg  Mg49  1  0.16414335  0.00082547  0.24859198  1
  Mg  Mg50  1  0.50073113  0.00042101  0.25555995  1
  Mg  Mg51  1  -0.00273335  0.24857166  0.24947441  1
  Mg  Mg52  1  0.15714163  0.50083413  0.74416846  1
  Mg  Mg53  1  0.50276826  0.33373812  0.25337251  1
  Mg  Mg54  1  0.67083717  0.91683420  0.25320191  1
  Mg  Mg55  1  0.16545416  0.83556166  0.24799291  1
  Mg  Mg56  1  0.16449221  0.33418129  0.24684336  1
  Mg  Mg57  1  0.50045190  0.66537260  0.75054535  1
  Mg  Mg58  1  0.16052986  0.66403289  0.74685086  1
  Mg  Mg59  1  0.50293046  0.16528109  0.25556307  1
  Mg  Mg60  1  -0.00683196  0.08318676  0.24822973  1
  Mg  Mg61  1  0.33548371  0.91719857  0.25350995  1
  Mg  Mg62  1  0.50216845  0.83637641  0.25521320  1
  Mg  Mg63  1  0.16790214  0.16505269  0.74994358  1
  Mg  Mg64  1  0.49878820  0.33337983  0.74954209  1
  Mg  Mg65  1  0.67033332  0.41609219  0.25421194  1
  Mg  Mg66  1  0.16116211  0.83460252  0.75030266  1
  Mg  Mg67  1  0.33252495  0.41567117  0.24692376  1
  Mg  Mg68  1  0.83957127  0.66520708  0.74958555  1
  Mg  Mg69  1  0.67040607  0.08333631  0.25462983  1
  Mg  Mg70  1  0.67040644  0.91556392  0.75092867  1
  Mg  Mg71  1  0.83283460  0.83634962  0.24762907  1
  Mg  Mg72  1  0.16517247  0.66535625  0.24354599  1
  Mg  Mg73  1  -0.00235013  0.07833742  0.74922419  1
  Mg  Mg74  1  0.66898540  0.08181006  0.75091840  1
  Mg  Mg75  1  0.33528984  0.91534118  0.75352534  1
  Mg  Mg76  1  0.83341266  0.16372081  0.75151460  1
  Mg  Mg77  1  0.83447420  0.66552770  0.25081506  1
  Mg  Mg78  1  0.66853605  0.41692934  0.75081149  1
  Mg  Mg79  1  0.83684182  0.33282123  0.75029415  1
  Mg  Mg80  1  0.16333861  0.33419116  0.74795394  1
  Mg  Mg81  1  0.67147064  0.58354416  0.74979285  1
  Mg  Mg82  1  -0.00159836  0.41596139  0.24831054  1
  Mg  Mg83  1  0.33363047  0.08420007  0.25257434  1
  Mg  Mg84  1  0.32880000  0.58315033  0.74795913  1
  Mg  Mg85  1  0.49955536  0.66654533  0.25057578  1
  Mg  Mg86  1  0.50111172  0.16505091  0.75028996  1
  Mg  Mg87  1  0.83155305  0.16261535  0.25178834  1
  Mg  Mg88  1  0.83654696  0.83610327  0.75006716  1
  Mg  Mg89  1  0.32838558  0.41524150  0.74732171  1
  Mg  Mg90  1  -0.00602921  0.91911712  0.24603584  1
  Mg  Mg91  1  -0.00018216  0.58492160  0.24636068  1
  Mg  Mg92  1  0.16386079  0.16577197  0.24761283  1
  Mg  Mg93  1  0.32994215  0.58518296  0.24531929  1
  Mg  Mg94  1  0.50132333  0.83330653  0.75464643  1
  Mg  Mg95  1  0.66994403  0.58326471  0.25357793  1
  Fe  Fe96  1  0.68884254  0.17097261  0.61099580  1
  Fe  Fe97  1  0.64348094  0.17332701  0.89110023  1
  Fe  Fe98  1  0.02917331  0.67383614  0.60530656  1
  Fe  Fe99  1  0.19240856  0.58333073  0.10430254  1
  Fe  Fe100  1  0.13683217  0.41465867  0.88674818  1
  Fe  Fe101  1  0.19638743  0.58254576  0.60632973  1
  Fe  Fe102  1  0.47803660  0.91664207  0.89338101  1
  Fe  Fe103  1  0.96576538  0.32662375  0.89114630  1
  Fe  Fe104  1  0.63911225  0.16983074  0.39400781  1
  Fe  Fe105  1  0.86389839  0.58112365  0.61106504  1
  Fe  Fe106  1  0.80862823  0.07633403  0.39155339  1
  Fe  Fe107  1  0.85505614  0.92206740  0.61190137  1
  Fe  Fe108  1  0.85271240  0.92012870  0.10871272  1
  Fe  Fe109  1  0.97805576  0.83768792  0.88750217  1
  Fe  Fe110  1  0.47633460  0.91882324  0.39421461  1
  Fe  Fe111  1  0.81448625  0.58526739  0.39108782  1
  Fe  Fe112  1  0.36226767  0.32916054  0.61006209  1
  Si  Si113  1  0.64646928  0.34164768  0.39030452  1
  Si  Si114  1  0.85803200  0.09114851  0.61244304  1
  Si  Si115  1  0.52591226  0.58239621  0.11592694  1
  Si  Si116  1  0.81335011  0.90496293  0.38746996  1
  Si  Si117  1  0.18622363  0.41145612  0.60729745  1
  Si  Si118  1  0.52133491  0.41745851  0.11549824  1
  Si  Si119  1  0.35946783  0.16168855  0.61323738  1
  Si  Si120  1  0.19682259  0.91579308  0.61582607  1
  Si  Si121  1  0.35995721  0.32816229  0.11473448  1
  Si  Si122  1  0.68965272  0.17308014  0.11520364  1
  Si  Si123  1  0.98106311  0.33177121  0.38419568  1
  Si  Si124  1  0.97965741  0.83163488  0.38129473  1
  Si  Si125  1  0.64562918  0.82758485  0.38978730  1
  Si  Si126  1  0.46647230  0.58520282  0.38354297  1
  Si  Si127  1  0.69286316  0.66614589  0.61432671  1
  Si  Si128  1  0.36247512  0.83795089  0.11628098  1
  Si  Si129  1  0.97577824  0.16780344  0.38754679  1
  Si  Si130  1  0.81224847  0.58328424  0.88597010  1
  Si  Si131  1  0.19215920  0.07992217  0.61664188  1
  Si  Si132  1  0.02737966  0.84079507  0.60936490  1
  Si  Si133  1  0.19535388  0.91729011  0.11475215  1
  Si  Si134  1  0.14803747  0.08346505  0.88593214  1
  Si  Si135  1  0.30759040  0.66763078  0.88544315  1
  Si  Si136  1  0.85396345  0.09015201  0.11118196  1
  Si  Si137  1  0.85721719  0.41915644  0.11415398  1
  Si  Si138  1  0.52856844  0.08306146  0.11775977  1
  Si  Si139  1  0.14605689  0.92015682  0.88765232  1
  Si  Si140  1  0.36090306  0.16249960  0.11596417  1
  Si  Si141  1  0.68694177  0.33748888  0.11626420  1
  Si  Si142  1  0.64256747  0.82567626  0.88983284  1
  Si  Si143  1  0.46763046  0.09059979  0.39074065  1
  Si  Si144  1  0.69000429  0.34112476  0.61522060  1
  Si  Si145  1  0.02845578  0.16173300  0.61522648  1
  Si  Si146  1  0.97576559  0.66996594  0.88673504  1
  Si  Si147  1  0.02341205  0.16656324  0.11309397  1
  Si  Si148  1  0.81657409  0.41823575  0.38723977  1
  Si  Si149  1  0.47323994  0.58570853  0.88546431  1
  Si  Si150  1  0.68728136  0.82720617  0.11283665  1
  Si  Si151  1  0.30803216  0.33382966  0.38286043  1
  Si  Si152  1  0.02067473  0.66934547  0.10861766  1
  Si  Si153  1  0.52594433  0.91150855  0.61834529  1
  Si  Si154  1  0.30916018  0.33236933  0.88733349  1
  Si  Si155  1  0.35992203  0.83088392  0.61735134  1
  Si  Si156  1  0.29996783  0.16813361  0.38382234  1
  Si  Si157  1  0.63680975  0.66131779  0.38698052  1
  Si  Si158  1  0.47745834  0.08707297  0.89239710  1
  Si  Si159  1  0.63731130  0.34656012  0.88762992  1
  Si  Si160  1  0.85863609  0.40941329  0.61354209  1
  Si  Si161  1  0.36599114  0.66691358  0.61330990  1
  Si  Si162  1  0.02425898  0.32489628  0.61444077  1
  Si  Si163  1  0.52948087  0.91817666  0.11811046  1
  Si  Si164  1  0.14199086  0.41734428  0.38267820  1
  Si  Si165  1  0.80194663  0.91306247  0.88748775  1
  Si  Si166  1  0.02775952  0.83695454  0.11148481  1
  Si  Si167  1  0.47385096  0.41906667  0.38498543  1
  Si  Si168  1  0.47032638  0.42124920  0.88549539  1
  Si  Si169  1  0.85714112  0.58419495  0.11217921  1
  Si  Si170  1  0.98074827  0.67146351  0.38266903  1
  Si  Si171  1  0.52799876  0.42352629  0.61274775  1
  Si  Si172  1  0.52348734  0.07582587  0.61439868  1
  Si  Si173  1  0.13765834  0.08418852  0.38307381  1
  Si  Si174  1  0.64490492  0.66151619  0.88606001  1
  Si  Si175  1  0.80373956  0.42008944  0.88790209  1
  Si  Si176  1  0.68912206  0.82971110  0.61413941  1
  Si  Si177  1  0.02162981  0.33255687  0.11325556  1
  Si  Si178  1  0.14200137  0.58478165  0.88451492  1
  Si  Si179  1  0.13880245  0.58198469  0.38135878  1
  Si  Si180  1  0.52909034  0.58710335  0.61629176  1
  Si  Si181  1  0.68924925  0.66283627  0.11511831  1
  Si  Si182  1  0.97781534  0.15509272  0.88760908  1
  Si  Si183  1  0.30102796  0.83362735  0.38726885  1
  Si  Si184  1  0.80741770  0.07945461  0.88669233  1
  Si  Si185  1  0.19104537  0.08376618  0.11403284  1
  Si  Si186  1  0.30600344  0.83233394  0.88894252  1
  Si  Si187  1  0.13708621  0.91961620  0.38221440  1
  Si  Si188  1  0.36475208  0.67170710  0.11146509  1
  Si  Si189  1  0.30168070  0.66767045  0.38265379  1
  Si  Si190  1  0.30809673  0.16968666  0.88505807  1
  Si  Si191  1  0.19167323  0.41006227  0.11057359  1
  O  O192  1  0.27037854  0.12284385  0.08673251  1
  O  O193  1  0.27132228  0.11549925  0.58740025  1
  O  O194  1  0.28383184  0.62885575  0.07444233  1
  O  O195  1  0.29868691  0.61041055  0.57672050  1
  O  O196  1  0.60204963  0.12731405  0.08796727  1
  O  O197  1  0.59563655  0.10951038  0.57832684  1
  O  O198  1  0.60909275  0.60947247  0.08665652  1
  O  O199  1  0.61224700  0.61189485  0.58694349  1
  O  O200  1  0.93573280  0.12616110  0.08200202  1
  O  O201  1  0.94708909  0.11332340  0.58461032  1
  O  O202  1  0.93011037  0.62757132  0.08204508  1
  O  O203  1  0.94181606  0.61609499  0.56442948  1
  O  O204  1  0.10199337  0.36763864  0.08571495  1
  O  O205  1  0.09953832  0.36284919  0.58176429  1
  O  O206  1  0.11458127  0.86660561  0.08640010  1
  O  O207  1  0.11547638  0.86911447  0.58242891  1
  O  O208  1  0.43525750  0.37154713  0.08590050  1
  O  O209  1  0.45180724  0.37387974  0.57558738  1
  O  O210  1  0.43763368  0.88107295  0.08845102  1
  O  O211  1  0.44115940  0.86343807  0.58864718  1
  O  O212  1  0.76649992  0.37722906  0.08911410  1
  O  O213  1  0.77336341  0.36203647  0.58238984  1
  O  O214  1  0.76195568  0.85624255  0.07742320  1
  O  O215  1  0.76384676  0.85760983  0.57820038  1
  O  O216  1  0.26758445  0.36235140  0.08572813  1
  O  O217  1  0.25992601  0.37358319  0.57322811  1
  O  O218  1  0.27589183  0.88223084  0.08671953  1
  O  O219  1  0.27823474  0.88106696  0.58681131  1
  O  O220  1  0.60062342  0.38377262  0.08454318  1
  O  O221  1  0.61750856  0.40411094  0.58839352  1
  O  O222  1  0.59896169  0.87217928  0.08643905  1
  O  O223  1  0.60241149  0.87673650  0.58579892  1
  O  O224  1  0.93349684  0.37627003  0.08554608  1
  O  O225  1  0.93579870  0.36631340  0.58508481  1
  O  O226  1  0.95101868  0.88662593  0.07797278  1
  O  O227  1  0.95553373  0.89941154  0.58105426  1
  O  O228  1  0.10388250  0.12804165  0.08576198  1
  O  O229  1  0.10770813  0.12608857  0.58378641  1
  O  O230  1  0.09191388  0.63323000  0.07316980  1
  O  O231  1  0.12044019  0.64838476  0.56570424  1
  O  O232  1  0.43583276  0.11947368  0.08736232  1
  O  O233  1  0.43227033  0.11471692  0.58438098  1
  O  O234  1  0.44927947  0.63734071  0.08667373  1
  O  O235  1  0.45660787  0.64709074  0.58907905  1
  O  O236  1  0.77038727  0.14232934  0.08519854  1
  O  O237  1  0.78965011  0.15182892  0.58062968  1
  O  O238  1  0.76801163  0.62691764  0.08514205  1
  O  O239  1  0.76797292  0.63999393  0.57829115  1
  O  O240  1  0.05881401  0.11547478  0.41412815  1
  O  O241  1  0.06662152  0.11076855  0.91713085  1
  O  O242  1  0.05833316  0.61476377  0.40934813  1
  O  O243  1  0.06304092  0.62345568  0.91292165  1
  O  O244  1  0.37606160  0.11413263  0.41323411  1
  O  O245  1  0.38709612  0.11662373  0.91358979  1
  O  O246  1  0.38718201  0.62184068  0.41183389  1
  O  O247  1  0.39796424  0.62654499  0.91600555  1
  O  O248  1  0.71573213  0.10115700  0.42900657  1
  O  O249  1  0.74487152  0.12454503  0.92583929  1
  O  O250  1  0.71071793  0.60726290  0.41817944  1
  O  O251  1  0.72901360  0.61390059  0.91606434  1
  O  O252  1  0.22958126  0.37262913  0.41086796  1
  O  O253  1  0.23717538  0.36318811  0.92497085  1
  O  O254  1  0.21569620  0.86616280  0.41188823  1
  O  O255  1  0.22542041  0.86591533  0.91798310  1
  O  O256  1  0.56428901  0.38245297  0.41466724  1
  O  O257  1  0.55726846  0.38091312  0.91957944  1
  O  O258  1  0.57104761  0.86107936  0.42399901  1
  O  O259  1  0.56652098  0.85280099  0.92550376  1
  O  O260  1  0.89468752  0.35896301  0.40924897  1
  O  O261  1  0.87232180  0.36490446  0.92577588  1
  O  O262  1  0.89452760  0.84911823  0.41063727  1
  O  O263  1  0.88821288  0.87629654  0.92428083  1
  O  O264  1  0.06372982  0.38296942  0.41393324  1
  O  O265  1  0.05933645  0.37673323  0.93407425  1
  O  O266  1  0.05379686  0.89074772  0.40992674  1
  O  O267  1  0.07002737  0.89669602  0.92492659  1
  O  O268  1  0.39555537  0.37745169  0.41167990  1
  O  O269  1  0.39520112  0.38085560  0.91555562  1
  O  O270  1  0.38088054  0.87828848  0.42420023  1
  O  O271  1  0.38761643  0.87492658  0.92733528  1
  O  O272  1  0.73055797  0.39218319  0.41495723  1
  O  O273  1  0.71309369  0.40501350  0.91337514  1
  O  O274  1  0.73502694  0.86761819  0.41799327  1
  O  O275  1  0.72576675  0.87339207  0.91947301  1
  O  O276  1  0.21727821  0.13753479  0.41167398  1
  O  O277  1  0.22693941  0.13794586  0.91609534  1
  O  O278  1  0.22317683  0.62935985  0.41001515  1
  O  O279  1  0.22987958  0.63132163  0.91507654  1
  O  O280  1  0.53175718  0.15430411  0.41742669  1
  O  O281  1  0.55103592  0.14071693  0.92888320  1
  O  O282  1  0.54905149  0.63375647  0.41207921  1
  O  O283  1  0.56422985  0.62514767  0.91500341  1
  O  O284  1  0.90024832  0.14147513  0.42273532  1
  O  O285  1  0.90482296  0.10728896  0.91512182  1
  O  O286  1  0.89870309  0.65518321  0.41458942  1
  O  O287  1  0.89671922  0.62916719  0.91645213  1
  O  O288  1  0.18229562  0.00044975  0.08653910  1
  O  O289  1  0.18434125  -0.00218758  0.58543844  1
  O  O290  1  0.18860919  0.48707116  0.07545129  1
  O  O291  1  0.16832751  0.48958577  0.57263624  1
  O  O292  1  0.52596003  0.00052911  0.08894669  1
  O  O293  1  0.50723167  -0.00825271  0.58749043  1
  O  O294  1  0.50516402  0.50031724  0.08745191  1
  O  O295  1  0.50241137  0.50707396  0.58663308  1
  O  O296  1  0.83257877  0.01402951  0.07457260  1
  O  O297  1  0.82759401  0.01461463  0.57822026  1
  O  O298  1  0.84674521  0.50142113  0.08209887  1
  O  O299  1  0.84637584  0.48650905  0.57684151  1
  O  O300  1  0.01433322  0.24968935  0.08530302  1
  O  O301  1  0.01573239  0.24274287  0.58222825  1
  O  O302  1  0.00980052  0.75377846  0.08484991  1
  O  O303  1  0.00259277  0.76629205  0.56943160  1
  O  O304  1  0.35918005  0.24515193  0.08743188  1
  O  O305  1  0.34831152  0.23645235  0.57189769  1
  O  O306  1  0.35987256  0.75636068  0.08583947  1
  O  O307  1  0.34312723  0.74987705  0.58569546  1
  O  O308  1  0.67347971  0.25578538  0.08553798  1
  O  O309  1  0.65282542  0.26536409  0.58495566  1
  O  O310  1  0.66564666  0.74321540  0.08585968  1
  O  O311  1  0.66092734  0.74717482  0.58835080  1
  O  O312  1  0.15895701  0.00169971  0.41050972  1
  O  O313  1  0.17601978  0.00277414  0.91458487  1
  O  O314  1  0.15728471  0.49993088  0.40981072  1
  O  O315  1  0.15622638  0.50857651  0.92222893  1
  O  O316  1  0.49181970  0.01334921  0.42531958  1
  O  O317  1  0.49337452  0.00905533  0.92963753  1
  O  O318  1  0.47549291  0.50250623  0.41193676  1
  O  O319  1  0.47834603  0.50396633  0.91613584  1
  O  O320  1  0.84015435  -0.01871227  0.42104115  1
  O  O321  1  0.80301723  -0.00355801  0.91439279  1
  O  O322  1  0.84968018  0.49306205  0.42219097  1
  O  O323  1  0.82817925  0.50233998  0.91681423  1
  O  O324  1  0.31711278  0.25109676  0.41084813  1
  O  O325  1  0.33247931  0.25004937  0.91690058  1
  O  O326  1  0.30992280  0.74910613  0.41293162  1
  O  O327  1  0.31768047  0.74850969  0.91706492  1
  O  O328  1  0.66468450  0.26524638  0.42519854  1
  O  O329  1  0.66018225  0.27004170  0.92274732  1
  O  O330  1  0.65574172  0.74306295  0.41509170  1
  O  O331  1  0.66257439  0.74184200  0.91701067  1
  O  O332  1  1.00467116  0.25064873  0.41321167  1
  O  O333  1  0.98404556  0.23130155  0.92611833  1
  O  O334  1  1.01721845  0.75237508  0.40624596  1
  O  O335  1  0.99025400  0.74507780  0.92727793  1
  O  O336  1  0.20987326  0.08402665  0.19472186  1
  O  O337  1  0.20315430  0.08039614  0.69544688  1
  O  O338  1  0.21152241  0.58341762  0.19692783  1
  O  O339  1  0.21210664  0.58403319  0.69845377  1
  O  O340  1  0.54092104  0.08295619  0.19781143  1
  O  O341  1  0.53995762  0.07845231  0.69471838  1
  O  O342  1  0.54272312  0.58293324  0.19644800  1
  O  O343  1  0.54499162  0.58477830  0.69686362  1
  O  O344  1  0.87778668  0.08808507  0.19103408  1
  O  O345  1  0.88033806  0.08905510  0.69270822  1
  O  O346  1  0.87743599  0.58394324  0.19248342  1
  O  O347  1  0.87577725  0.58217551  0.70092556  1
  O  O348  1  0.04178938  0.33300882  0.19379547  1
  O  O349  1  0.04668756  0.32270281  0.69315504  1
  O  O350  1  0.04540493  0.83584617  0.19270194  1
  O  O351  1  0.04871552  0.83122307  0.68912495  1
  O  O352  1  0.37770455  0.33202072  0.19532020  1
  O  O353  1  0.37743235  0.33463240  0.70139190  1
  O  O354  1  0.37660948  0.83454702  0.19660126  1
  O  O355  1  0.37679987  0.82883875  0.69732849  1
  O  O356  1  0.69742802  0.33523144  0.19542696  1
  O  O357  1  0.71365600  0.34329146  0.69500650  1
  O  O358  1  0.70630405  0.82967305  0.19382371  1
  O  O359  1  0.70713938  0.83101924  0.69492959  1
  O  O360  1  0.21043845  0.41386496  0.19205918  1
  O  O361  1  0.20922195  0.41370213  0.68838179  1
  O  O362  1  0.21251172  0.91833000  0.19551768  1
  O  O363  1  0.21332599  0.91472802  0.69583348  1
  O  O364  1  0.53970215  0.41709877  0.19585939  1
  O  O365  1  0.54171785  0.42015021  0.69366869  1
  O  O366  1  0.54513513  0.91599862  0.19825081  1
  O  O367  1  0.54559139  0.91078036  0.69816004  1
  O  O368  1  0.87996610  0.42446294  0.19332821  1
  O  O369  1  0.87302427  0.41392593  0.69312413  1
  O  O370  1  0.87633420  0.91620644  0.19916470  1
  O  O371  1  0.87113432  0.91823957  0.69949889  1
  O  O372  1  0.04367570  0.16603506  0.19374568  1
  O  O373  1  0.04628556  0.16429244  0.69529992  1
  O  O374  1  0.04170058  0.66650042  0.18996429  1
  O  O375  1  0.04397512  0.67038935  0.69629230  1
  O  O376  1  0.37614536  0.16503442  0.19654195  1
  O  O377  1  0.37978571  0.17100606  0.69243276  1
  O  O378  1  0.37784009  0.66879414  0.19273658  1
  O  O379  1  0.37902747  0.66659099  0.69439346  1
  O  O380  1  0.70770765  0.17051034  0.19484034  1
  O  O381  1  0.71523524  0.15903950  0.69913028  1
  O  O382  1  0.70710877  0.66493858  0.19530679  1
  O  O383  1  0.70966056  0.66568971  0.69530784  1
  O  O384  1  0.12248881  0.08458928  0.30250561  1
  O  O385  1  0.12802378  0.08390751  0.80615309  1
  O  O386  1  0.12249002  0.58285383  0.30067442  1
  O  O387  1  0.12926264  0.58343227  0.80535829  1
  O  O388  1  0.45204651  0.08490564  0.30846979  1
  O  O389  1  0.46749569  0.08182668  0.81249497  1
  O  O390  1  0.45133261  0.58387944  0.30259937  1
  O  O391  1  0.45633617  0.58455990  0.80529854  1
  O  O392  1  0.78895224  0.08178772  0.30008325  1
  O  O393  1  0.78836741  0.08359460  0.80737253  1
  O  O394  1  0.79053873  0.58401822  0.29848203  1
  O  O395  1  0.79011404  0.58456052  0.80641174  1
  O  O396  1  0.28951779  0.33388630  0.30212111  1
  O  O397  1  0.28956158  0.33366624  0.80685806  1
  O  O398  1  0.28766216  0.83424163  0.30587444  1
  O  O399  1  0.29184159  0.83122394  0.80834444  1
  O  O400  1  0.62351446  0.33759033  0.30871831  1
  O  O401  1  0.61487107  0.34593280  0.80788377  1
  O  O402  1  0.62422485  0.83060751  0.30822083  1
  O  O403  1  0.62327820  0.82730589  0.80903302  1
  O  O404  1  0.96996736  0.33328710  0.30470308  1
  O  O405  1  0.95657642  0.33054005  0.80160570  1
  O  O406  1  0.96074611  0.83262812  0.30080850  1
  O  O407  1  0.95653724  0.83102377  0.79805089  1
  O  O408  1  0.12513427  0.41670194  0.30188986  1
  O  O409  1  0.12649836  0.41637931  0.79710082  1
  O  O410  1  0.12301889  0.91819905  0.30168350  1
  O  O411  1  0.12935833  0.91631766  0.80799039  1
  O  O412  1  0.45492651  0.41769648  0.30402667  1
  O  O413  1  0.45483504  0.42153568  0.80567884  1
  O  O414  1  0.45423859  0.91730627  0.30179353  1
  O  O415  1  0.45641967  0.91396798  0.80227284  1
  O  O416  1  0.79000340  0.42401072  0.30731882  1
  O  O417  1  0.79000388  0.41831266  0.80753639  1
  O  O418  1  0.78732064  0.90687932  0.30731923  1
  O  O419  1  0.78381768  0.90708405  0.80829017  1
  O  O420  1  0.28535176  0.16821892  0.30289779  1
  O  O421  1  0.28623457  0.17409267  0.80606491  1
  O  O422  1  0.28854981  0.66844237  0.30206732  1
  O  O423  1  0.29386291  0.66661530  0.80561093  1
  O  O424  1  0.62064645  0.16694159  0.30097345  1
  O  O425  1  0.61762360  0.15890298  0.80271670  1
  O  O426  1  0.62012985  0.66404278  0.30540482  1
  O  O427  1  0.62450619  0.66350026  0.80590322  1
  O  O428  1  0.95941528  0.16654531  0.30642136  1
  O  O429  1  0.96206069  0.16221120  0.80743319  1
  O  O430  1  0.96071451  0.66782342  0.30112389  1
  O  O431  1  0.95407817  0.67467362  0.80770082  1
  F  F432  1  0.04688863  0.00244813  0.19824985  1
  F  F433  1  0.05017856  0.00251162  0.70190376  1
  F  F434  1  0.04557751  0.49912545  0.19892522  1
  F  F435  1  0.04383888  0.50128882  0.69352594  1
  F  F436  1  0.37688534  0.00238967  0.20268327  1
  F  F437  1  0.38334230  -0.01106815  0.69857446  1
  F  F438  1  0.37862969  0.49948867  0.19966629  1
  F  F439  1  0.37946881  0.50137041  0.70132809  1
  F  F440  1  0.70015945  -0.00154672  0.20054938  1
  F  F441  1  0.70251138  -0.00298476  0.70131743  1
  F  F442  1  0.70847884  0.49870844  0.20080556  1
  F  F443  1  0.71329308  0.50113020  0.70472624  1
  F  F444  1  0.21188380  0.24975286  0.19924510  1
  F  F445  1  0.21264453  0.24906511  0.70075669  1
  F  F446  1  0.21344954  0.75254440  0.19932600  1
  F  F447  1  0.21447606  0.75102902  0.70391071  1
  F  F448  1  0.54132344  0.25211318  0.20365716  1
  F  F449  1  0.53209559  0.25156740  0.69935071  1
  F  F450  1  0.54406316  0.75061764  0.20465723  1
  F  F451  1  0.54560222  0.74867695  0.70533434  1
  F  F452  1  0.88287257  0.24090325  0.19955409  1
  F  F453  1  0.88035954  0.24718541  0.70216812  1
  F  F454  1  0.87717850  0.74842788  0.19981498  1
  F  F455  1  0.87417116  0.74925063  0.69883476  1
  F  F456  1  0.28482909  0.00127526  0.29815783  1
  F  F457  1  0.28471153  -0.01054405  0.80349931  1
  F  F458  1  0.28905099  0.49827833  0.29578097  1
  F  F459  1  0.29031542  0.49821229  0.79690918  1
  F  F460  1  0.61979423  -0.00200664  0.30104183  1
  F  F461  1  0.62114608  -0.00535603  0.80062554  1
  F  F462  1  0.61795758  0.50002459  0.29786753  1
  F  F463  1  0.62000124  0.50332929  0.79818257  1
  F  F464  1  0.96697722  0.00137468  0.29987775  1
  F  F465  1  0.95824238  0.00389715  0.80254938  1
  F  F466  1  0.95857834  0.50157577  0.29597393  1
  F  F467  1  0.95510150  0.49684936  0.80587413  1
  F  F468  1  0.12306277  0.25020707  0.29485767  1
  F  F469  1  0.12333116  0.24811004  0.79880411  1
  F  F470  1  0.12223145  0.74925365  0.29209829  1
  F  F471  1  0.12397766  0.75050980  0.79880187  1
  F  F472  1  0.45076460  0.25209376  0.29833327  1
  F  F473  1  0.45476209  0.24962793  0.80161919  1
  F  F474  1  0.45260427  0.74909779  0.29878743  1
  F  F475  1  0.45521914  0.74653869  0.80046107  1
  F  F476  1  0.78467738  0.24164060  0.30231648  1
  F  F477  1  0.80352171  0.25020503  0.80361242  1
  F  F478  1  0.78825740  0.74879900  0.29515420  1
  F  F479  1  0.78733873  0.74739863  0.79769580  1
