# generated using pymatgen
data_K24Na3Li5Mg64Fe17Si79(O5F)48
_symmetry_space_group_name_H-M   'P 1'
_cell_length_a   16.08379301
_cell_length_b   18.58046515
_cell_length_c   20.54390222
_cell_angle_alpha   89.99812090
_cell_angle_beta   100.01243584
_cell_angle_gamma   90.02234064
_symmetry_Int_Tables_number   1
_chemical_formula_structural   K24Na3Li5Mg64Fe17Si79(O5F)48
_chemical_formula_sum   'K24 Na3 Li5 Mg64 Fe17 Si79 O240 F48'
_cell_volume   6045.92549282
_cell_formula_units_Z   1
loop_
 _symmetry_equiv_pos_site_id
 _symmetry_equiv_pos_as_xyz
  1  'x, y, z'
loop_
 _atom_site_type_symbol
 _atom_site_label
 _atom_site_symmetry_multiplicity
 _atom_site_fract_x
 _atom_site_fract_y
 _atom_site_fract_z
 _atom_site_occupancy
  K  K0  1  -0.00090274  0.00443137  -0.01358000  1
  K  K1  1  -0.00958941  0.01228866  0.50260068  1
  K  K2  1  -0.00110353  0.49489171  -0.00957634  1
  K  K3  1  -0.00152486  0.50059092  0.50559758  1
  K  K4  1  0.33387217  0.00375370  -0.00721800  1
  K  K5  1  0.33478116  0.00239498  0.50463319  1
  K  K6  1  0.33969638  0.50102645  -0.00545642  1
  K  K7  1  0.33639892  0.48986822  0.50830657  1
  K  K8  1  0.66223470  0.00704923  -0.00467032  1
  K  K9  1  0.67194410  -0.00177587  0.50049206  1
  K  K10  1  0.67451334  0.50287627  -0.00693459  1
  K  K11  1  0.67235354  0.49918491  0.51378185  1
  K  K12  1  0.15947818  0.25253269  -0.00722696  1
  K  K13  1  0.16250107  0.25099375  0.51236833  1
  K  K14  1  0.16860161  0.75825889  -0.01101143  1
  K  K15  1  0.15813301  0.74647597  0.50534568  1
  K  K16  1  0.50304436  0.24709620  -0.00515110  1
  K  K17  1  0.49513094  0.25362287  0.50739307  1
  K  K18  1  0.49811711  0.75651413  -0.00473437  1
  K  K19  1  0.51304017  0.74809575  0.50736049  1
  K  K20  1  0.83049333  0.24312636  -0.00627884  1
  K  K21  1  0.84774455  0.24741938  0.51593715  1
  K  K22  1  0.83180386  0.74469363  -0.00701772  1
  K  K23  1  0.83222886  0.75229420  0.50525234  1
  Na  Na24  1  0.83227728  0.00048620  0.25615526  1
  Na  Na25  1  0.83736854  0.17053228  0.74249288  1
  Na  Na26  1  -0.00144673  0.08293726  0.74453750  1
  Li  Li27  1  -0.00122571  0.24726690  0.74755756  1
  Li  Li28  1  -0.00105754  0.74901470  0.75567274  1
  Li  Li29  1  0.50324116  0.83035149  0.74964058  1
  Li  Li30  1  0.67062853  0.58424162  0.75785174  1
  Li  Li31  1  0.33148717  0.41321037  0.23939317  1
  Mg  Mg32  1  0.83514506  -0.00059538  0.75020007  1
  Mg  Mg33  1  0.66554312  0.24971835  0.74927967  1
  Mg  Mg34  1  0.16460510  0.49981305  0.74934890  1
  Mg  Mg35  1  0.16637093  0.00131715  0.74821674  1
  Mg  Mg36  1  0.33216640  0.74881687  0.25076967  1
  Mg  Mg37  1  0.50133206  0.50269560  0.74948066  1
  Mg  Mg38  1  0.16960410  0.49862271  0.25081920  1
  Mg  Mg39  1  0.49683747  0.49700485  0.24742779  1
  Mg  Mg40  1  0.33661663  0.75026886  0.75013429  1
  Mg  Mg41  1  -0.00222111  0.74982947  0.25679653  1
  Mg  Mg42  1  0.16557267  -0.00037252  0.25033989  1
  Mg  Mg43  1  0.82862715  0.50054683  0.75105030  1
  Mg  Mg44  1  0.33223161  0.25197745  0.74796290  1
  Mg  Mg45  1  0.33244894  0.25381882  0.24525411  1
  Mg  Mg46  1  0.66768968  0.25097597  0.24666650  1
  Mg  Mg47  1  0.49921132  -0.00088554  0.24920470  1
  Mg  Mg48  1  0.83447688  0.49885155  0.25205028  1
  Mg  Mg49  1  0.00071949  0.25018039  0.24894245  1
  Mg  Mg50  1  0.66599171  0.74792530  0.75282401  1
  Mg  Mg51  1  0.50123327  -0.00252529  0.74826382  1
  Mg  Mg52  1  0.66480322  0.75131060  0.25401229  1
  Mg  Mg53  1  0.00200922  0.41505036  0.24801607  1
  Mg  Mg54  1  0.66589087  0.58351419  0.25461625  1
  Mg  Mg55  1  0.16554247  0.66808839  0.75324760  1
  Mg  Mg56  1  0.50545333  0.66695054  0.75398352  1
  Mg  Mg57  1  -0.00057797  0.41312061  0.75210524  1
  Mg  Mg58  1  -0.00114931  0.91668605  0.25350415  1
  Mg  Mg59  1  0.33139264  0.58044752  0.25175259  1
  Mg  Mg60  1  0.16444546  0.16581983  0.24737892  1
  Mg  Mg61  1  0.33340806  0.08409777  0.74647234  1
  Mg  Mg62  1  0.16521836  0.83338015  0.75086821  1
  Mg  Mg63  1  0.83441969  0.16604114  0.24982143  1
  Mg  Mg64  1  0.49644214  0.16732079  0.24591285  1
  Mg  Mg65  1  0.66804259  0.41818787  0.74925839  1
  Mg  Mg66  1  0.33486603  0.41690013  0.74847026  1
  Mg  Mg67  1  0.16794343  0.33536102  0.24555019  1
  Mg  Mg68  1  -0.00040222  0.58544814  0.75413825  1
  Mg  Mg69  1  0.33337631  0.91478755  0.25025895  1
  Mg  Mg70  1  0.49684354  0.33536348  0.24579696  1
  Mg  Mg71  1  0.16491883  0.66502244  0.25392620  1
  Mg  Mg72  1  0.83571355  0.33241589  0.75089172  1
  Mg  Mg73  1  0.49845400  0.33565107  0.74886968  1
  Mg  Mg74  1  0.16649384  0.16927379  0.74882796  1
  Mg  Mg75  1  0.00098098  0.91384208  0.74968645  1
  Mg  Mg76  1  0.83432161  0.66594169  0.75424530  1
  Mg  Mg77  1  0.83775643  0.83069286  0.75049975  1
  Mg  Mg78  1  0.50136565  0.16505596  0.74696213  1
  Mg  Mg79  1  0.33114050  0.08461727  0.24717300  1
  Mg  Mg80  1  0.66618387  0.41471118  0.24652601  1
  Mg  Mg81  1  0.66461949  0.08402360  0.24875682  1
  Mg  Mg82  1  0.83144230  0.83539844  0.25553767  1
  Mg  Mg83  1  0.49865818  0.66469733  0.25404559  1
  Mg  Mg84  1  0.66714213  0.91453381  0.74985780  1
  Mg  Mg85  1  0.33676870  0.58494248  0.75126702  1
  Mg  Mg86  1  0.83380132  0.33449114  0.24809834  1
  Mg  Mg87  1  0.83392718  0.66580493  0.25709073  1
  Mg  Mg88  1  0.66318372  0.91545210  0.25319695  1
  Mg  Mg89  1  0.33668760  0.91406185  0.74635007  1
  Mg  Mg90  1  0.67036505  0.08432148  0.74825591  1
  Mg  Mg91  1  0.16530500  0.83296699  0.25149874  1
  Mg  Mg92  1  0.50077839  0.83410802  0.25235106  1
  Mg  Mg93  1  0.16416085  0.33452862  0.74780974  1
  Mg  Mg94  1  -0.00033008  0.58525806  0.25687635  1
  Mg  Mg95  1  -0.00162928  0.08431925  0.25071932  1
  Fe  Fe96  1  0.14012749  0.41393832  0.88920433  1
  Fe  Fe97  1  0.64157555  0.83125442  0.39546081  1
  Fe  Fe98  1  0.97392001  0.66825853  0.39792003  1
  Fe  Fe99  1  0.52368028  0.91545649  0.11037735  1
  Fe  Fe100  1  0.64630900  0.16358410  0.88703886  1
  Fe  Fe101  1  0.47758410  0.59041056  0.89293260  1
  Fe  Fe102  1  0.81033942  0.58483057  0.89289489  1
  Fe  Fe103  1  0.69867334  0.33503419  0.10761202  1
  Fe  Fe104  1  0.97942173  0.83312470  0.88900135  1
  Fe  Fe105  1  0.31065597  0.16902732  0.88480421  1
  Fe  Fe106  1  0.47547524  0.41999405  0.88863177  1
  Fe  Fe107  1  0.02416859  0.16901411  0.60621903  1
  Fe  Fe108  1  0.36097420  0.33703556  0.10617444  1
  Fe  Fe109  1  0.03089355  0.33245509  0.10868323  1
  Fe  Fe110  1  0.80536607  0.41301429  0.89004276  1
  Fe  Fe111  1  0.35571367  0.33170619  0.60584833  1
  Fe  Fe112  1  0.97647758  0.16796559  0.39025575  1
  Si  Si113  1  0.18637558  0.58414707  0.11680537  1
  Si  Si114  1  0.02476126  0.83221780  0.11797960  1
  Si  Si115  1  0.19300223  0.07594257  0.60827443  1
  Si  Si116  1  0.30846206  0.33526290  0.88505528  1
  Si  Si117  1  0.36142313  0.66725423  0.61296740  1
  Si  Si118  1  0.02331203  0.34178467  0.61021392  1
  Si  Si119  1  0.18856788  0.42403051  0.60942863  1
  Si  Si120  1  0.35961828  0.15865245  0.60748975  1
  Si  Si121  1  0.97755605  0.16493683  0.88156655  1
  Si  Si122  1  0.53198812  0.42162544  0.11020062  1
  Si  Si123  1  0.68750114  0.16619830  0.60900196  1
  Si  Si124  1  0.79975453  0.09031979  0.38727158  1
  Si  Si125  1  0.85747901  0.41920325  0.61501677  1
  Si  Si126  1  0.85815883  0.58455474  0.61621679  1
  Si  Si127  1  0.30532601  0.83216072  0.38648069  1
  Si  Si128  1  0.86772196  0.42169227  0.11339487  1
  Si  Si129  1  0.30514717  0.16794169  0.38289694  1
  Si  Si130  1  0.02530906  0.83273422  0.61490191  1
  Si  Si131  1  0.64483023  0.83832309  0.88360277  1
  Si  Si132  1  0.69328665  0.33260008  0.61214398  1
  Si  Si133  1  0.47447317  0.07794130  0.88497733  1
  Si  Si134  1  0.46891093  0.08439252  0.38325747  1
  Si  Si135  1  0.30304364  0.67100003  0.88724243  1
  Si  Si136  1  0.19256813  0.91012639  0.61172531  1
  Si  Si137  1  0.69034501  0.66727025  0.11980881  1
  Si  Si138  1  0.52725284  0.58449312  0.61487108  1
  Si  Si139  1  0.97055154  0.32668187  0.88866043  1
  Si  Si140  1  0.63616734  0.33203333  0.88454501  1
  Si  Si141  1  0.14508040  0.07998454  0.38577266  1
  Si  Si142  1  0.47762943  0.91390456  0.88086916  1
  Si  Si143  1  0.19116070  0.07824450  0.11326877  1
  Si  Si144  1  0.84991079  0.07773088  0.60762766  1
  Si  Si145  1  0.85633486  0.58532020  0.11965509  1
  Si  Si146  1  0.63918146  0.33306772  0.38471895  1
  Si  Si147  1  0.81365590  0.07856608  0.88581207  1
  Si  Si148  1  0.80652760  0.92046475  0.39119279  1
  Si  Si149  1  0.19661461  0.42204623  0.11216542  1
  Si  Si150  1  0.14430881  0.91686393  0.38582516  1
  Si  Si151  1  0.80897436  0.91539941  0.88604160  1
  Si  Si152  1  0.85718058  0.91444469  0.61174467  1
  Si  Si153  1  0.63790775  0.65922914  0.39160905  1
  Si  Si154  1  0.86195736  0.91203905  0.11827943  1
  Si  Si155  1  0.14514155  0.08721515  0.88565279  1
  Si  Si156  1  0.14634886  0.41917102  0.38544812  1
  Si  Si157  1  0.52232583  0.58625784  0.11798353  1
  Si  Si158  1  0.69319412  0.83074585  0.61489388  1
  Si  Si159  1  0.52800027  0.91521805  0.61299986  1
  Si  Si160  1  0.69294043  0.66714740  0.61740525  1
  Si  Si161  1  0.14734258  0.92265994  0.88761179  1
  Si  Si162  1  0.98082056  0.66570647  0.89065038  1
  Si  Si163  1  0.97685180  0.84190889  0.39229847  1
  Si  Si164  1  0.30890830  0.66722081  0.38752474  1
  Si  Si165  1  0.85832618  0.07834806  0.11517766  1
  Si  Si166  1  0.35260258  0.16685647  0.11092347  1
  Si  Si167  1  0.30661078  0.33165688  0.38214760  1
  Si  Si168  1  0.19087607  0.91282644  0.11595455  1
  Si  Si169  1  0.14369088  0.58343913  0.88711972  1
  Si  Si170  1  0.80871893  0.41275243  0.38661523  1
  Si  Si171  1  0.35451148  0.82787614  0.11424128  1
  Si  Si172  1  0.46763239  0.91805933  0.38935200  1
  Si  Si173  1  0.64246815  0.67662950  0.89220861  1
  Si  Si174  1  0.47008540  0.57935006  0.38756133  1
  Si  Si175  1  0.52925757  0.41830315  0.60919873  1
  Si  Si176  1  0.02420246  0.66731760  0.61784624  1
  Si  Si177  1  0.98030676  0.33861790  0.38735809  1
  Si  Si178  1  0.51972238  0.08506052  0.11239201  1
  Si  Si179  1  0.52676554  0.07964882  0.60926511  1
  Si  Si180  1  0.63364864  0.16756172  0.38374070  1
  Si  Si181  1  0.14585890  0.58285290  0.39133755  1
  Si  Si182  1  0.36084221  0.83181955  0.61225462  1
  Si  Si183  1  0.31018826  0.83681952  0.88360104  1
  Si  Si184  1  0.69068798  0.16240493  0.11188421  1
  Si  Si185  1  0.19245996  0.58985631  0.61494214  1
  Si  Si186  1  0.80262892  0.57801792  0.39162320  1
  Si  Si187  1  0.69639256  0.83247989  0.11503083  1
  Si  Si188  1  0.47402125  0.41475348  0.38397243  1
  Si  Si189  1  0.02261236  0.15985688  0.11013340  1
  Si  Si190  1  0.02312335  0.66775978  0.11881008  1
  Si  Si191  1  0.35354129  0.66358598  0.11790982  1
  O  O192  1  0.27529699  0.10716537  0.08645634  1
  O  O193  1  0.27646981  0.10788280  0.58020317  1
  O  O194  1  0.27095422  0.61354424  0.08919673  1
  O  O195  1  0.26833089  0.63094863  0.58320833  1
  O  O196  1  0.60588190  0.11243385  0.08664006  1
  O  O197  1  0.59722487  0.12556579  0.57649931  1
  O  O198  1  0.60408494  0.62149546  0.09103407  1
  O  O199  1  0.60301551  0.62710136  0.58452969  1
  O  O200  1  0.94007572  0.10676109  0.08337334  1
  O  O201  1  0.92184869  0.11752466  0.57472207  1
  O  O202  1  0.93749126  0.62108746  0.09172568  1
  O  O203  1  0.93690973  0.62280089  0.58615676  1
  O  O204  1  0.12924591  0.36185084  0.07914218  1
  O  O205  1  0.09411899  0.39160491  0.57983659  1
  O  O206  1  0.10696672  0.86377213  0.08934953  1
  O  O207  1  0.10424641  0.86658955  0.58159056  1
  O  O208  1  0.46095348  0.36509188  0.07655750  1
  O  O209  1  0.44378646  0.37965865  0.57126651  1
  O  O210  1  0.43074529  0.85351688  0.07885179  1
  O  O211  1  0.43654772  0.87546427  0.58284023  1
  O  O212  1  0.79824256  0.36400138  0.07958025  1
  O  O213  1  0.77070629  0.37408893  0.58327342  1
  O  O214  1  0.78336171  0.85845648  0.08856585  1
  O  O215  1  0.77061014  0.86746937  0.58336517  1
  O  O216  1  0.28404736  0.41301125  0.08402869  1
  O  O217  1  0.25592993  0.38362194  0.57156398  1
  O  O218  1  0.26904231  0.87635311  0.08660133  1
  O  O219  1  0.26909549  0.86923348  0.58022274  1
  O  O220  1  0.61970619  0.40902018  0.08337007  1
  O  O221  1  0.60796748  0.37854759  0.57929696  1
  O  O222  1  0.61995082  0.88205247  0.07857346  1
  O  O223  1  0.60344298  0.87178555  0.58353924  1
  O  O224  1  0.95585857  0.40962056  0.08722418  1
  O  O225  1  0.93308538  0.38486434  0.58081028  1
  O  O226  1  0.94451976  0.88301207  0.08766678  1
  O  O227  1  0.93720568  0.87597315  0.58331807  1
  O  O228  1  0.10481819  0.12203034  0.08302669  1
  O  O229  1  0.11097673  0.11837877  0.57148091  1
  O  O230  1  0.10531577  0.63726882  0.08970273  1
  O  O231  1  0.10335629  0.63259317  0.58559962  1
  O  O232  1  0.43991382  0.13991852  0.08598460  1
  O  O233  1  0.43589571  0.11593195  0.57711970  1
  O  O234  1  0.43805728  0.63600725  0.09045989  1
  O  O235  1  0.43563214  0.62389148  0.58196284  1
  O  O236  1  0.77096413  0.12198275  0.08522550  1
  O  O237  1  0.75930364  0.12097117  0.57754045  1
  O  O238  1  0.77201718  0.63388539  0.09214355  1
  O  O239  1  0.76968269  0.62776891  0.58547538  1
  O  O240  1  0.06633337  0.10271614  0.41940160  1
  O  O241  1  0.05650370  0.10929331  0.91122937  1
  O  O242  1  0.07104012  0.61085202  0.42818577  1
  O  O243  1  0.05778764  0.60628920  0.91504025  1
  O  O244  1  0.39058906  0.12150639  0.41265524  1
  O  O245  1  0.38992309  0.09630472  0.91454986  1
  O  O246  1  0.39241214  0.61882152  0.41674812  1
  O  O247  1  0.37871467  0.62241464  0.92534928  1
  O  O248  1  0.71490725  0.11904728  0.41637227  1
  O  O249  1  0.73866524  0.10486729  0.92386223  1
  O  O250  1  0.71438705  0.60144002  0.41677656  1
  O  O251  1  0.71839183  0.62502256  0.92746876  1
  O  O252  1  0.22923582  0.36864038  0.41397581  1
  O  O253  1  0.22266501  0.34475593  0.91669045  1
  O  O254  1  0.22080952  0.85960955  0.41424296  1
  O  O255  1  0.23536788  0.87625634  0.91539204  1
  O  O256  1  0.56351962  0.37377474  0.41615253  1
  O  O257  1  0.54768295  0.34176395  0.91238961  1
  O  O258  1  0.54624650  0.87151045  0.42620951  1
  O  O259  1  0.55862620  0.86298789  0.91126392  1
  O  O260  1  0.89726836  0.37139017  0.41617752  1
  O  O261  1  0.88621405  0.34254815  0.92047812  1
  O  O262  1  0.90042480  0.88471783  0.41935700  1
  O  O263  1  0.87988758  0.85954790  0.92179617  1
  O  O264  1  0.06129115  0.39377697  0.41359171  1
  O  O265  1  0.04526625  0.38177437  0.92265756  1
  O  O266  1  0.06179412  0.89275441  0.41657985  1
  O  O267  1  0.07363395  0.89253152  0.92465000  1
  O  O268  1  0.39569397  0.37424967  0.41153022  1
  O  O269  1  0.37044787  0.40215533  0.91256457  1
  O  O270  1  0.38173692  0.88756355  0.41601094  1
  O  O271  1  0.39777373  0.88062206  0.91250193  1
  O  O272  1  0.72968623  0.37291447  0.41443456  1
  O  O273  1  0.70011298  0.39661974  0.91424447  1
  O  O274  1  0.73846325  0.88472376  0.43145277  1
  O  O275  1  0.71873402  0.89741699  0.91251938  1
  O  O276  1  0.22812967  0.13100749  0.41361335  1
  O  O277  1  0.21708702  0.14103808  0.92327864  1
  O  O278  1  0.22979762  0.63433219  0.41823770  1
  O  O279  1  0.21455344  0.64739085  0.91200053  1
  O  O280  1  0.55297497  0.13199396  0.41227615  1
  O  O281  1  0.55185381  0.12827225  0.92020754  1
  O  O282  1  0.55548189  0.62370421  0.41873379  1
  O  O283  1  0.55792527  0.66225007  0.92379081  1
  O  O284  1  0.87904291  0.13788693  0.42249940  1
  O  O285  1  0.89771745  0.12875892  0.91257441  1
  O  O286  1  0.87916612  0.62777275  0.42823729  1
  O  O287  1  0.90270839  0.64497421  0.92758524  1
  O  O288  1  0.17569675  -0.00551412  0.08652353  1
  O  O289  1  0.18602365  -0.00889216  0.57997337  1
  O  O290  1  0.16045732  0.50467950  0.08801700  1
  O  O291  1  0.18391732  0.50925810  0.58243045  1
  O  O292  1  0.49306465  0.00805738  0.07844345  1
  O  O293  1  0.52411407  -0.00359743  0.57903776  1
  O  O294  1  0.50108139  0.50595816  0.08911726  1
  O  O295  1  0.52574174  0.50336331  0.58173113  1
  O  O296  1  0.84174960  -0.00597985  0.09011156  1
  O  O297  1  0.84020208  -0.00649454  0.57568074  1
  O  O298  1  0.83593444  0.50503166  0.09071889  1
  O  O299  1  0.84463522  0.50267851  0.58440672  1
  O  O300  1  0.00298621  0.23756446  0.07676387  1
  O  O301  1  0.01700911  0.26499895  0.57233677  1
  O  O302  1  0.00649197  0.75009662  0.08985854  1
  O  O303  1  0.01196176  0.74937355  0.58634874  1
  O  O304  1  0.32313868  0.24266207  0.07758512  1
  O  O305  1  0.34748311  0.23629275  0.57110962  1
  O  O306  1  0.32848931  0.74468853  0.08974242  1
  O  O307  1  0.35929187  0.74948349  0.58112043  1
  O  O308  1  0.67352085  0.23981275  0.07708587  1
  O  O309  1  0.68378636  0.25013348  0.57933013  1
  O  O310  1  0.67756903  0.74852195  0.08943813  1
  O  O311  1  0.68338131  0.74875376  0.58403865  1
  O  O312  1  0.17614865  -0.00275152  0.41146194  1
  O  O313  1  0.16900998  0.00479918  0.91563334  1
  O  O314  1  0.17216950  0.49988315  0.41577717  1
  O  O315  1  0.17636493  0.50774763  0.92051810  1
  O  O316  1  0.47865764  0.00289394  0.41459282  1
  O  O317  1  0.50039038  -0.00591857  0.91113680  1
  O  O318  1  0.47812365  0.49671688  0.41632714  1
  O  O319  1  0.51369407  0.50435580  0.93239160  1
  O  O320  1  0.81497260  0.00613336  0.41265245  1
  O  O321  1  0.83916035  -0.00397273  0.91434402  1
  O  O322  1  0.81786121  0.49415515  0.41821366  1
  O  O323  1  0.83914677  0.49797050  0.93377438  1
  O  O324  1  0.31993418  0.24955671  0.41301244  1
  O  O325  1  0.35333502  0.25931872  0.91273478  1
  O  O326  1  0.32696958  0.75031277  0.41550230  1
  O  O327  1  0.31970785  0.75537271  0.91452234  1
  O  O328  1  0.64439099  0.25014675  0.41353846  1
  O  O329  1  0.67795833  0.25614817  0.91495810  1
  O  O330  1  0.65775304  0.73550498  0.42840628  1
  O  O331  1  0.67343336  0.76050449  0.91691700  1
  O  O332  1  1.00601041  0.26180526  0.42106625  1
  O  O333  1  0.99988778  0.24403490  0.91673982  1
  O  O334  1  0.99382340  0.76447892  0.42845049  1
  O  O335  1  1.01799921  0.74263717  0.92136692  1
  O  O336  1  0.20844962  0.08012261  0.19421110  1
  O  O337  1  0.21061749  0.07728605  0.68859850  1
  O  O338  1  0.20741871  0.58621401  0.19777559  1
  O  O339  1  0.21113179  0.58879219  0.69487635  1
  O  O340  1  0.53814640  0.08394618  0.19403304  1
  O  O341  1  0.54285035  0.07901337  0.68909727  1
  O  O342  1  0.54198169  0.58550484  0.19898107  1
  O  O343  1  0.54002967  0.58569292  0.69358408  1
  O  O344  1  0.87956046  0.08634013  0.19431891  1
  O  O345  1  0.86447636  0.07142194  0.68574775  1
  O  O346  1  0.87568629  0.58513362  0.20048196  1
  O  O347  1  0.87767187  0.58476943  0.69562413  1
  O  O348  1  0.04651189  0.33203479  0.20143034  1
  O  O349  1  0.04413789  0.34135954  0.68961338  1
  O  O350  1  0.04352522  0.83194686  0.19882600  1
  O  O351  1  0.04794041  0.83529091  0.69379631  1
  O  O352  1  0.38043467  0.33110871  0.19766494  1
  O  O353  1  0.37643141  0.33309372  0.69638845  1
  O  O354  1  0.37353002  0.83120450  0.19575070  1
  O  O355  1  0.37367911  0.83174295  0.69139990  1
  O  O356  1  0.71294927  0.33365342  0.20039652  1
  O  O357  1  0.70600898  0.33169839  0.69129837  1
  O  O358  1  0.71085267  0.83279959  0.19620588  1
  O  O359  1  0.71045289  0.83271468  0.69452698  1
  O  O360  1  0.20714206  0.42038406  0.19339735  1
  O  O361  1  0.21047545  0.42143214  0.68963509  1
  O  O362  1  0.20978489  0.91413120  0.19676604  1
  O  O363  1  0.21233096  0.91131621  0.69178420  1
  O  O364  1  0.54484895  0.41857924  0.19254010  1
  O  O365  1  0.54423894  0.41719438  0.68909698  1
  O  O366  1  0.54020484  0.91575004  0.20236967  1
  O  O367  1  0.54579022  0.91797163  0.69208279  1
  O  O368  1  0.87897944  0.41953738  0.19571219  1
  O  O369  1  0.87768673  0.42034809  0.69431622  1
  O  O370  1  0.88183939  0.90826821  0.19800936  1
  O  O371  1  0.87471838  0.91435778  0.69138400  1
  O  O372  1  0.04471472  0.16166579  0.19132773  1
  O  O373  1  0.05295566  0.17239103  0.69267101  1
  O  O374  1  0.04326228  0.66819732  0.19955082  1
  O  O375  1  0.04505813  0.66519410  0.69703627  1
  O  O376  1  0.37225944  0.16553670  0.19269698  1
  O  O377  1  0.38051992  0.16141322  0.68770996  1
  O  O378  1  0.37364197  0.66512958  0.19875557  1
  O  O379  1  0.37628641  0.66870030  0.69258143  1
  O  O380  1  0.70900064  0.16529947  0.19324819  1
  O  O381  1  0.69895050  0.16591423  0.68770942  1
  O  O382  1  0.70831705  0.66659849  0.20087320  1
  O  O383  1  0.71086503  0.66968214  0.69615576  1
  O  O384  1  0.12682342  0.08198186  0.30456360  1
  O  O385  1  0.13785426  0.08303640  0.80611458  1
  O  O386  1  0.12458007  0.58568537  0.31041895  1
  O  O387  1  0.12540290  0.58399642  0.80575605  1
  O  O388  1  0.45239538  0.08315614  0.30274719  1
  O  O389  1  0.45837656  0.07995296  0.80294796  1
  O  O390  1  0.45433368  0.58236162  0.30735287  1
  O  O391  1  0.45545111  0.58571695  0.80015776  1
  O  O392  1  0.78101958  0.09438933  0.30733812  1
  O  O393  1  0.78715293  0.07544193  0.80612873  1
  O  O394  1  0.78908667  0.58171713  0.31050806  1
  O  O395  1  0.79187001  0.58355680  0.80187754  1
  O  O396  1  0.28602102  0.32986339  0.30288937  1
  O  O397  1  0.28877884  0.33572885  0.80277216  1
  O  O398  1  0.28878429  0.83199828  0.30576033  1
  O  O399  1  0.29157000  0.83511484  0.80327293  1
  O  O400  1  0.62104304  0.33376589  0.30454782  1
  O  O401  1  0.61979785  0.33287594  0.80217181  1
  O  O402  1  0.61979301  0.83067620  0.30369088  1
  O  O403  1  0.62802650  0.83492796  0.80384879  1
  O  O404  1  0.95742576  0.33671118  0.30657908  1
  O  O405  1  0.95456203  0.33509741  0.80813596  1
  O  O406  1  0.95829404  0.83549643  0.31117556  1
  O  O407  1  0.95623859  0.83382319  0.79866459  1
  O  O408  1  0.12691318  0.41852825  0.30525433  1
  O  O409  1  0.12144794  0.41832483  0.79726833  1
  O  O410  1  0.12566902  0.91473311  0.30515853  1
  O  O411  1  0.12821466  0.91761680  0.80682941  1
  O  O412  1  0.46294569  0.41713573  0.30493531  1
  O  O413  1  0.45598382  0.42056661  0.79595781  1
  O  O414  1  0.45136126  0.91566612  0.30842143  1
  O  O415  1  0.45591575  0.91614270  0.80120210  1
  O  O416  1  0.79056388  0.41653860  0.30628852  1
  O  O417  1  0.78808454  0.41638534  0.79782208  1
  O  O418  1  0.78273617  0.90885792  0.31175930  1
  O  O419  1  0.79057561  0.91368210  0.80489722  1
  O  O420  1  0.28869141  0.16599246  0.30242563  1
  O  O421  1  0.29044543  0.16637163  0.79250558  1
  O  O422  1  0.28975686  0.66750083  0.30704813  1
  O  O423  1  0.29086868  0.66902000  0.80615088  1
  O  O424  1  0.61804261  0.16805887  0.30329236  1
  O  O425  1  0.62093356  0.16374365  0.79517559  1
  O  O426  1  0.62042767  0.66400954  0.31042821  1
  O  O427  1  0.62368180  0.67322310  0.81143083  1
  O  O428  1  0.95674867  0.16761220  0.29851084  1
  O  O429  1  0.96162535  0.17166991  0.80414363  1
  O  O430  1  0.95543185  0.66738693  0.30595696  1
  O  O431  1  0.95681876  0.66381522  0.80979202  1
  F  F432  1  0.04659694  -0.00325264  0.20167517  1
  F  F433  1  0.05211094  -0.01245168  0.69692599  1
  F  F434  1  0.04629554  0.50536655  0.20750792  1
  F  F435  1  0.04368496  0.50647471  0.69980093  1
  F  F436  1  0.37553437  -0.00201492  0.20199407  1
  F  F437  1  0.38032376  -0.00224154  0.69716217  1
  F  F438  1  0.37926776  0.50607964  0.20197329  1
  F  F439  1  0.37499509  0.50422108  0.69556909  1
  F  F440  1  0.69838343  -0.00171861  0.20276061  1
  F  F441  1  0.71029312  -0.00363157  0.70023800  1
  F  F442  1  0.71307119  0.50330628  0.20592006  1
  F  F443  1  0.71320336  0.49486822  0.69260180  1
  F  F444  1  0.21034272  0.24724820  0.19977802  1
  F  F445  1  0.21299753  0.25472869  0.69495415  1
  F  F446  1  0.20983766  0.74910935  0.20438828  1
  F  F447  1  0.21365689  0.74991282  0.70136183  1
  F  F448  1  0.54533528  0.24987969  0.20144329  1
  F  F449  1  0.54206143  0.25106933  0.69633506  1
  F  F450  1  0.54208399  0.74613534  0.20442388  1
  F  F451  1  0.54803119  0.74621984  0.69985092  1
  F  F452  1  0.87812579  0.25180573  0.20148006  1
  F  F453  1  0.87409096  0.26602123  0.68747698  1
  F  F454  1  0.87712112  0.75080814  0.20752693  1
  F  F455  1  0.87098322  0.74647853  0.69884353  1
  F  F456  1  0.28774676  -0.00070585  0.29743991  1
  F  F457  1  0.29021271  -0.00312463  0.79195199  1
  F  F458  1  0.28547646  0.50648168  0.30306283  1
  F  F459  1  0.28687279  0.50250666  0.79336600  1
  F  F460  1  0.61694882  0.00389581  0.30245314  1
  F  F461  1  0.62090475  -0.00095449  0.79530437  1
  F  F462  1  0.61981225  0.49831296  0.29832232  1
  F  F463  1  0.62046695  0.49899760  0.79413298  1
  F  F464  1  0.96924566  -0.00012872  0.30327280  1
  F  F465  1  0.95199786  -0.01046470  0.79914149  1
  F  F466  1  0.95517433  0.49945776  0.30130307  1
  F  F467  1  0.95498453  0.49998219  0.79694371  1
  F  F468  1  0.12416745  0.24676203  0.29774856  1
  F  F469  1  0.13069666  0.25256995  0.79680733  1
  F  F470  1  0.12256757  0.75062155  0.30216479  1
  F  F471  1  0.13013401  0.75201235  0.80077941  1
  F  F472  1  0.45456225  0.24726395  0.29830934  1
  F  F473  1  0.45471266  0.24613163  0.79249543  1
  F  F474  1  0.45164855  0.74920712  0.30049359  1
  F  F475  1  0.45277000  0.74904638  0.79746976  1
  F  F476  1  0.78844592  0.25043001  0.29843039  1
  F  F477  1  0.78148808  0.25631995  0.79656172  1
  F  F478  1  0.78640234  0.74912883  0.30252415  1
  F  F479  1  0.78803512  0.75093310  0.79920190  1
