# generated using pymatgen
data_K24Na3Li5Mg64Fe17Si79(O5F)48
_symmetry_space_group_name_H-M   'P 1'
_cell_length_a   16.09328556
_cell_length_b   18.58649590
_cell_length_c   20.55044280
_cell_angle_alpha   89.99292048
_cell_angle_beta   100.01125816
_cell_angle_gamma   90.00528772
_symmetry_Int_Tables_number   1
_chemical_formula_structural   K24Na3Li5Mg64Fe17Si79(O5F)48
_chemical_formula_sum   'K24 Na3 Li5 Mg64 Fe17 Si79 O240 F48'
_cell_volume   6053.40625193
_cell_formula_units_Z   1
loop_
 _symmetry_equiv_pos_site_id
 _symmetry_equiv_pos_as_xyz
  1  'x, y, z'
loop_
 _atom_site_type_symbol
 _atom_site_label
 _atom_site_symmetry_multiplicity
 _atom_site_fract_x
 _atom_site_fract_y
 _atom_site_fract_z
 _atom_site_occupancy
  K  K0  1  -0.00839921  -0.00101900  -0.01785127  1
  K  K1  1  0.00615265  0.00416670  0.51148952  1
  K  K2  1  0.00367913  0.51065710  0.00066413  1
  K  K3  1  -0.00147548  0.50998643  0.50361314  1
  K  K4  1  0.34482521  -0.00020795  -0.01104315  1
  K  K5  1  0.35268043  -0.00177968  0.51915453  1
  K  K6  1  0.32588803  0.50243952  0.00507614  1
  K  K7  1  0.34157682  0.49884175  0.49554804  1
  K  K8  1  0.65511927  0.00086750  -0.02172029  1
  K  K9  1  0.66033730  -0.01352163  0.50918897  1
  K  K10  1  0.67382367  0.50110763  0.00614663  1
  K  K11  1  0.66438434  0.49853965  0.49807143  1
  K  K12  1  0.15671807  0.25011906  -0.01432475  1
  K  K13  1  0.17371829  0.24686286  0.51286591  1
  K  K14  1  0.16818146  0.73823022  0.00129091  1
  K  K15  1  0.16831598  0.74906824  0.50343074  1
  K  K16  1  0.50247064  0.25128726  -0.00447323  1
  K  K17  1  0.49566515  0.25437421  0.50715523  1
  K  K18  1  0.49597525  0.75806404  0.00261706  1
  K  K19  1  0.50676736  0.75237091  0.49764183  1
  K  K20  1  0.83428941  0.24997290  -0.01056568  1
  K  K21  1  0.83327437  0.25883845  0.50782208  1
  K  K22  1  0.83510827  0.74324033  0.00157757  1
  K  K23  1  0.83338308  0.74482732  0.50019707  1
  Na  Na24  1  0.50537261  -0.00116342  0.75595823  1
  Na  Na25  1  -0.00260127  0.08215585  0.74752068  1
  Na  Na26  1  0.83155633  0.66403104  0.24927447  1
  Li  Li27  1  0.83099751  0.50609561  0.24825981  1
  Li  Li28  1  0.83368577  0.50030847  0.74389401  1
  Li  Li29  1  0.50624639  0.82821119  0.25695317  1
  Li  Li30  1  0.66535957  0.92152462  0.75468664  1
  Li  Li31  1  0.33176694  0.58676594  0.24581066  1
  Mg  Mg32  1  -0.00183602  0.74733464  0.24403434  1
  Mg  Mg33  1  0.50123459  0.50119038  0.75057994  1
  Mg  Mg34  1  0.33583696  0.74870967  0.75116260  1
  Mg  Mg35  1  0.66790562  0.25247641  0.24838884  1
  Mg  Mg36  1  0.49517160  0.50306747  0.25268618  1
  Mg  Mg37  1  0.33594695  0.24852593  0.75287661  1
  Mg  Mg38  1  0.33438536  0.74855737  0.24843007  1
  Mg  Mg39  1  0.16606788  0.50187483  0.74562752  1
  Mg  Mg40  1  0.66296956  0.74860000  0.25542621  1
  Mg  Mg41  1  0.66771761  0.75237811  0.75289173  1
  Mg  Mg42  1  0.16928154  0.50219323  0.24637492  1
  Mg  Mg43  1  -0.00085344  0.25183489  0.24702852  1
  Mg  Mg44  1  -0.00160561  0.25050263  0.75037683  1
  Mg  Mg45  1  0.16585435  -0.00072238  0.24818802  1
  Mg  Mg46  1  -0.00021583  0.75014238  0.74542907  1
  Mg  Mg47  1  0.16809130  0.00055704  0.75127654  1
  Mg  Mg48  1  0.66809617  0.25008905  0.74994341  1
  Mg  Mg49  1  0.33487372  0.25126527  0.25120661  1
  Mg  Mg50  1  0.83250134  -0.00022173  0.25031733  1
  Mg  Mg51  1  0.50179955  -0.00471341  0.25393494  1
  Mg  Mg52  1  0.83091338  -0.00128468  0.74911265  1
  Mg  Mg53  1  0.66787054  0.08262224  0.75340485  1
  Mg  Mg54  1  0.67014163  0.41819828  0.74843619  1
  Mg  Mg55  1  0.33497037  0.08366084  0.25050906  1
  Mg  Mg56  1  0.83143099  0.83231395  0.25086013  1
  Mg  Mg57  1  0.66900729  0.41860077  0.24796068  1
  Mg  Mg58  1  0.49924714  0.66532720  0.75133724  1
  Mg  Mg59  1  0.33140200  0.41610821  0.74790536  1
  Mg  Mg60  1  0.83356654  0.16538660  0.74894353  1
  Mg  Mg61  1  0.83194724  0.16736470  0.24646059  1
  Mg  Mg62  1  0.16606284  0.83321972  0.75053496  1
  Mg  Mg63  1  0.83284070  0.33709629  0.74913015  1
  Mg  Mg64  1  -0.00453481  0.41917963  0.74872612  1
  Mg  Mg65  1  -0.00363171  0.91715175  0.74742960  1
  Mg  Mg66  1  0.50231190  0.16543755  0.25120032  1
  Mg  Mg67  1  0.16557987  0.83345177  0.24564720  1
  Mg  Mg68  1  0.50238550  0.33690216  0.25051393  1
  Mg  Mg69  1  -0.00253064  0.58412233  0.24406232  1
  Mg  Mg70  1  0.49980610  0.66828789  0.25491468  1
  Mg  Mg71  1  -0.00324015  0.58447541  0.74491305  1
  Mg  Mg72  1  0.83093289  0.33782595  0.24448150  1
  Mg  Mg73  1  0.16598245  0.66441585  0.24401247  1
  Mg  Mg74  1  0.50149151  0.16402212  0.75129932  1
  Mg  Mg75  1  0.16488728  0.66479198  0.74522817  1
  Mg  Mg76  1  0.82940859  0.83552364  0.74769171  1
  Mg  Mg77  1  0.16667191  0.16601957  0.75393890  1
  Mg  Mg78  1  0.66546786  0.91219698  0.25410239  1
  Mg  Mg79  1  0.16698861  0.33536628  0.24829067  1
  Mg  Mg80  1  0.66977080  0.58306447  0.75096564  1
  Mg  Mg81  1  0.50044213  0.33480781  0.75036760  1
  Mg  Mg82  1  0.33706196  0.91601774  0.75389838  1
  Mg  Mg83  1  0.83345602  0.66507703  0.74767074  1
  Mg  Mg84  1  0.50375378  0.83363237  0.75667222  1
  Mg  Mg85  1  0.33451005  0.41883656  0.24960432  1
  Mg  Mg86  1  0.16274192  0.33397285  0.74718083  1
  Mg  Mg87  1  0.33622520  0.91483762  0.25192695  1
  Mg  Mg88  1  -0.00114681  0.08398659  0.24797003  1
  Mg  Mg89  1  0.66745950  0.58379638  0.25304802  1
  Mg  Mg90  1  -0.00252047  0.91424590  0.24685141  1
  Mg  Mg91  1  0.33655415  0.08387543  0.75153942  1
  Mg  Mg92  1  0.16666080  0.16604979  0.24911545  1
  Mg  Mg93  1  -0.00333154  0.41960847  0.24466329  1
  Mg  Mg94  1  0.33115014  0.58444603  0.74660970  1
  Mg  Mg95  1  0.66720719  0.08324583  0.24950730  1
  Fe  Fe96  1  0.85578109  0.42016385  0.61004340  1
  Fe  Fe97  1  0.47615399  0.91203024  0.89788627  1
  Fe  Fe98  1  0.02056638  0.66885928  0.10261364  1
  Fe  Fe99  1  0.36408782  0.66685708  0.60881206  1
  Fe  Fe100  1  0.97581816  0.16464062  0.89206356  1
  Fe  Fe101  1  0.19444068  0.57906764  0.60440544  1
  Fe  Fe102  1  0.85168136  0.91767486  0.60771774  1
  Fe  Fe103  1  0.19481797  0.57877469  0.10613204  1
  Fe  Fe104  1  0.36550026  0.16423840  0.61142170  1
  Fe  Fe105  1  0.64538069  0.83893339  0.39533131  1
  Fe  Fe106  1  0.02481337  0.16672472  0.61186432  1
  Fe  Fe107  1  0.69309978  0.16758700  0.61267964  1
  Fe  Fe108  1  0.64693329  0.66406195  0.39620883  1
  Fe  Fe109  1  0.68830779  0.33482183  0.10577691  1
  Fe  Fe110  1  0.47716707  0.09097996  0.89638761  1
  Fe  Fe111  1  0.02341397  0.67042791  0.60578985  1
  Fe  Fe112  1  0.47454288  0.41383185  0.39102146  1
  Si  Si113  1  0.02278915  0.84193130  0.10880973  1
  Si  Si114  1  0.52466984  0.42224442  0.61679941  1
  Si  Si115  1  0.30557836  0.17244070  0.89219081  1
  Si  Si116  1  0.18961693  0.41181449  0.61273004  1
  Si  Si117  1  0.19387538  0.40600867  0.10960587  1
  Si  Si118  1  0.80687467  0.07888021  0.88960608  1
  Si  Si119  1  0.52579578  0.91269754  0.11878292  1
  Si  Si120  1  0.85322709  0.58731912  0.61054779  1
  Si  Si121  1  0.80938478  0.42017985  0.88469845  1
  Si  Si122  1  0.52781774  0.91075893  0.62108522  1
  Si  Si123  1  0.85395880  0.91875933  0.11379982  1
  Si  Si124  1  0.64619170  0.16333935  0.38470636  1
  Si  Si125  1  0.52110219  0.42351079  0.11157947  1
  Si  Si126  1  0.53473000  0.07885002  0.61290748  1
  Si  Si127  1  0.52376616  0.58813349  0.11627806  1
  Si  Si128  1  0.47502584  0.57950943  0.88761348  1
  Si  Si129  1  0.02434943  0.33497267  0.61185781  1
  Si  Si130  1  0.30319435  0.83558076  0.38485486  1
  Si  Si131  1  0.36304582  0.32969607  0.11402185  1
  Si  Si132  1  0.14911607  0.07782482  0.89044077  1
  Si  Si133  1  0.13613882  0.91439737  0.38311994  1
  Si  Si134  1  0.47438500  0.41406624  0.88620618  1
  Si  Si135  1  0.64584267  0.82425195  0.89347705  1
  Si  Si136  1  0.13953377  0.07975944  0.38351798  1
  Si  Si137  1  0.36396447  0.16502277  0.11522202  1
  Si  Si138  1  0.30416897  0.82633356  0.89077144  1
  Si  Si139  1  0.68765481  0.16344255  0.11156632  1
  Si  Si140  1  0.68439501  0.33462085  0.61154239  1
  Si  Si141  1  0.35596286  0.83513972  0.11609737  1
  Si  Si142  1  0.68917292  0.66439434  0.11551746  1
  Si  Si143  1  0.02339252  0.16459916  0.11345721  1
  Si  Si144  1  0.85221530  0.08412103  0.60899358  1
  Si  Si145  1  0.30137811  0.67080864  0.38230325  1
  Si  Si146  1  0.35739117  0.83523449  0.61538514  1
  Si  Si147  1  0.64632789  0.17287134  0.88979646  1
  Si  Si148  1  0.97805648  0.17002285  0.38246212  1
  Si  Si149  1  0.81186965  0.41224052  0.38291018  1
  Si  Si150  1  0.81473597  0.92298344  0.38694621  1
  Si  Si151  1  0.69184684  0.83053963  0.11540429  1
  Si  Si152  1  0.64664009  0.32962355  0.38744655  1
  Si  Si153  1  0.86257368  0.41339432  0.10742487  1
  Si  Si154  1  0.81478790  0.08635107  0.38349268  1
  Si  Si155  1  0.52650653  0.07621100  0.11656260  1
  Si  Si156  1  0.14161818  0.91211736  0.88646565  1
  Si  Si157  1  0.85595357  0.08327570  0.11342008  1
  Si  Si158  1  0.69249722  0.66605638  0.61810470  1
  Si  Si159  1  0.02624760  0.33028487  0.11184514  1
  Si  Si160  1  0.80559695  0.91218073  0.88576383  1
  Si  Si161  1  0.46894322  0.58728895  0.38948756  1
  Si  Si162  1  0.97358077  0.66984398  0.88348229  1
  Si  Si163  1  0.19378723  0.08734933  0.11370624  1
  Si  Si164  1  0.30755401  0.66139908  0.88634039  1
  Si  Si165  1  0.30404082  0.16520121  0.38453273  1
  Si  Si166  1  0.68728678  0.82635179  0.61452402  1
  Si  Si167  1  0.97639287  0.33410118  0.38129898  1
  Si  Si168  1  0.81044981  0.57478616  0.38736289  1
  Si  Si169  1  0.36231837  0.67085012  0.11290588  1
  Si  Si170  1  0.19490227  0.08157655  0.61380508  1
  Si  Si171  1  0.53328058  0.58565921  0.61599125  1
  Si  Si172  1  0.97248907  0.82994042  0.38327604  1
  Si  Si173  1  0.64562847  0.33838222  0.88530517  1
  Si  Si174  1  0.35957280  0.33630838  0.61359978  1
  Si  Si175  1  0.46777672  0.92196992  0.39033229  1
  Si  Si176  1  0.19288507  0.92158132  0.11257868  1
  Si  Si177  1  0.13844488  0.58483147  0.88328874  1
  Si  Si178  1  0.85539909  0.57938950  0.10890999  1
  Si  Si179  1  0.13896503  0.58491485  0.38230630  1
  Si  Si180  1  0.81054467  0.58399855  0.88450920  1
  Si  Si181  1  0.02620717  0.83990819  0.61139948  1
  Si  Si182  1  0.13757852  0.41995715  0.38116590  1
  Si  Si183  1  0.29954235  0.33047973  0.38645232  1
  Si  Si184  1  0.97422404  0.66414581  0.38211885  1
  Si  Si185  1  0.97545164  0.33571933  0.88880782  1
  Si  Si186  1  0.30334464  0.33799241  0.88529368  1
  Si  Si187  1  0.97341731  0.83475593  0.88446705  1
  Si  Si188  1  0.64323114  0.66018802  0.88858719  1
  Si  Si189  1  0.19502842  0.91678538  0.61944880  1
  Si  Si190  1  0.47424611  0.08754049  0.38670038  1
  Si  Si191  1  0.13829956  0.42148990  0.88358038  1
  O  O192  1  0.27137431  0.12843706  0.08628763  1
  O  O193  1  0.27686147  0.10068098  0.58022378  1
  O  O194  1  0.28752229  0.62110231  0.07414959  1
  O  O195  1  0.29249699  0.59537295  0.57090902  1
  O  O196  1  0.60806302  0.10745018  0.08788679  1
  O  O197  1  0.61544152  0.09632894  0.57768601  1
  O  O198  1  0.60366983  0.61864412  0.08334137  1
  O  O199  1  0.62447422  0.60176500  0.59227753  1
  O  O200  1  0.93939151  0.11560515  0.08627568  1
  O  O201  1  0.94297985  0.09643202  0.58457042  1
  O  O202  1  0.91935971  0.61941128  0.06762241  1
  O  O203  1  0.93081604  0.61052953  0.57394228  1
  O  O204  1  0.11085112  0.35370137  0.08329113  1
  O  O205  1  0.11906565  0.34841832  0.59018877  1
  O  O206  1  0.10151822  0.88536886  0.08258304  1
  O  O207  1  0.11813339  0.86222114  0.58856738  1
  O  O208  1  0.43373103  0.37626924  0.08387893  1
  O  O209  1  0.44118070  0.37393578  0.58730509  1
  O  O210  1  0.43746551  0.87068176  0.08898542  1
  O  O211  1  0.44028198  0.86760090  0.58767076  1
  O  O212  1  0.78557351  0.36265957  0.07212057  1
  O  O213  1  0.76398321  0.35823067  0.57756940  1
  O  O214  1  0.76960547  0.87056042  0.08515830  1
  O  O215  1  0.76458561  0.84982183  0.57803679  1
  O  O216  1  0.27043973  0.36158996  0.08225046  1
  O  O217  1  0.27716944  0.38753895  0.58643720  1
  O  O218  1  0.27027719  0.88213391  0.08380503  1
  O  O219  1  0.27958372  0.89318953  0.58981887  1
  O  O220  1  0.59438482  0.39444658  0.07322506  1
  O  O221  1  0.60646688  0.39411796  0.58747893  1
  O  O222  1  0.60226862  0.87289058  0.08789937  1
  O  O223  1  0.60381417  0.87675680  0.58599224  1
  O  O224  1  0.94909417  0.38352482  0.08022788  1
  O  O225  1  0.95818436  0.39707302  0.57988563  1
  O  O226  1  0.93676760  0.89150845  0.08427589  1
  O  O227  1  0.95719727  0.90048996  0.58181747  1
  O  O228  1  0.10528813  0.13069923  0.08558716  1
  O  O229  1  0.11898422  0.13256040  0.57681240  1
  O  O230  1  0.10254564  0.62878298  0.06104094  1
  O  O231  1  0.11340511  0.64376782  0.56633998  1
  O  O232  1  0.43865058  0.12036137  0.08771694  1
  O  O233  1  0.45508122  0.12660488  0.57467131  1
  O  O234  1  0.44843105  0.64424791  0.08539965  1
  O  O235  1  0.46822311  0.64552301  0.58176021  1
  O  O236  1  0.77267551  0.13153454  0.08511382  1
  O  O237  1  0.79099046  0.15087193  0.57736582  1
  O  O238  1  0.76350762  0.62218264  0.08511709  1
  O  O239  1  0.77856241  0.64981157  0.58937659  1
  O  O240  1  0.06213254  0.12104445  0.41101697  1
  O  O241  1  0.07378993  0.10942068  0.92501289  1
  O  O242  1  0.06069300  0.61957539  0.41351800  1
  O  O243  1  0.06342715  0.62855734  0.91209283  1
  O  O244  1  0.39823923  0.13307996  0.41304019  1
  O  O245  1  0.39507032  0.14554048  0.93208020  1
  O  O246  1  0.38354065  0.62344240  0.41282183  1
  O  O247  1  0.39660256  0.61838320  0.91654798  1
  O  O248  1  0.73053678  0.11404282  0.41128196  1
  O  O249  1  0.73102497  0.12393973  0.91719893  1
  O  O250  1  0.73919541  0.60199027  0.42824593  1
  O  O251  1  0.73065466  0.61531278  0.91756566  1
  O  O252  1  0.21882989  0.36980374  0.41167561  1
  O  O253  1  0.23153681  0.38609856  0.91427974  1
  O  O254  1  0.22274202  0.87163593  0.41337387  1
  O  O255  1  0.21893655  0.85763130  0.91697659  1
  O  O256  1  0.57305907  0.35997199  0.42390779  1
  O  O257  1  0.56296222  0.37101500  0.91464009  1
  O  O258  1  0.55003363  0.88058206  0.42651485  1
  O  O259  1  0.57699599  0.85993146  0.93216406  1
  O  O260  1  0.89412323  0.36008006  0.41116014  1
  O  O261  1  0.89589649  0.37640213  0.91630828  1
  O  O262  1  0.89710735  0.87054555  0.41296398  1
  O  O263  1  0.89856952  0.87485862  0.91643071  1
  O  O264  1  0.05654882  0.38606552  0.41008126  1
  O  O265  1  0.06423501  0.38158419  0.91592351  1
  O  O266  1  0.06018692  0.87427195  0.41231871  1
  O  O267  1  0.05931445  0.88033949  0.91569413  1
  O  O268  1  0.38570211  0.36555573  0.42376331  1
  O  O269  1  0.39714626  0.37344041  0.91559910  1
  O  O270  1  0.38398162  0.88605126  0.41559384  1
  O  O271  1  0.38445420  0.86791495  0.93162472  1
  O  O272  1  0.73403242  0.37529097  0.41389485  1
  O  O273  1  0.72780912  0.38864119  0.91600001  1
  O  O274  1  0.73673409  0.90471413  0.42236644  1
  O  O275  1  0.73817735  0.86422487  0.91966123  1
  O  O276  1  0.23120216  0.11686285  0.41177954  1
  O  O277  1  0.23376144  0.12536536  0.92270464  1
  O  O278  1  0.22147502  0.63448437  0.41148008  1
  O  O279  1  0.23046026  0.62063225  0.91539632  1
  O  O280  1  0.56479030  0.12841650  0.41272476  1
  O  O281  1  0.57489408  0.14609053  0.93016245  1
  O  O282  1  0.54763360  0.63533142  0.42580388  1
  O  O283  1  0.56472253  0.62022215  0.91787676  1
  O  O284  1  0.89501448  0.14043666  0.41062250  1
  O  O285  1  0.89343128  0.11362336  0.92970120  1
  O  O286  1  0.89750039  0.62442309  0.41070999  1
  O  O287  1  0.89664515  0.63062655  0.91428172  1
  O  O288  1  0.18747208  0.00527662  0.08460920  1
  O  O289  1  0.16828160  -0.00286029  0.59081734  1
  O  O290  1  0.18258539  0.48188062  0.07214196  1
  O  O291  1  0.15532657  0.48523768  0.57679442  1
  O  O292  1  0.51228884  -0.00546851  0.08785228  1
  O  O293  1  0.51046521  -0.00682029  0.59296608  1
  O  O294  1  0.49843030  0.50708261  0.08565140  1
  O  O295  1  0.50398039  0.50408458  0.58895556  1
  O  O296  1  0.83701334  0.00145781  0.08514585  1
  O  O297  1  0.81324536  0.00818848  0.57577347  1
  O  O298  1  0.84279065  0.49573197  0.07868857  1
  O  O299  1  0.81491744  0.51127253  0.58016905  1
  O  O300  1  0.00482097  0.24659788  0.08544001  1
  O  O301  1  -0.00748372  0.25874774  0.57729977  1
  O  O302  1  0.00776112  0.76640706  0.07146482  1
  O  O303  1  -0.00398814  0.76453246  0.57545686  1
  O  O304  1  0.36552970  0.24657949  0.08554265  1
  O  O305  1  0.34334832  0.25921044  0.57738286  1
  O  O306  1  0.34420784  0.75458068  0.08363139  1
  O  O307  1  0.32966113  0.76041492  0.57780983  1
  O  O308  1  0.66206150  0.23922353  0.07643274  1
  O  O309  1  0.64695368  0.25789997  0.58238001  1
  O  O310  1  0.68333163  0.74817006  0.08488739  1
  O  O311  1  0.65537512  0.74377124  0.58951926  1
  O  O312  1  0.14235572  -0.00258475  0.41183236  1
  O  O313  1  0.16498445  -0.00719948  0.91771429  1
  O  O314  1  0.15387432  0.50165529  0.41074596  1
  O  O315  1  0.14195542  0.50336211  0.91431778  1
  O  O316  1  0.47313446  0.00713763  0.41840825  1
  O  O317  1  0.48780431  0.00199775  0.93804723  1
  O  O318  1  0.47799099  0.50723378  0.42362268  1
  O  O319  1  0.48248729  0.49642158  0.91719656  1
  O  O320  1  0.84628968  0.00643780  0.40952968  1
  O  O321  1  0.80519840  -0.00591542  0.91724791  1
  O  O322  1  0.83638273  0.49138937  0.41493999  1
  O  O323  1  0.82574878  0.50231170  0.91467973  1
  O  O324  1  0.29562969  0.24597692  0.41274822  1
  O  O325  1  0.29636820  0.25785276  0.91690892  1
  O  O326  1  0.31416154  0.75350747  0.41395206  1
  O  O327  1  0.31340585  0.74185302  0.91856855  1
  O  O328  1  0.66608202  0.24477187  0.41268804  1
  O  O329  1  0.66841521  0.25774431  0.91515560  1
  O  O330  1  0.67427138  0.75252755  0.43599944  1
  O  O331  1  0.65861616  0.73974633  0.92230007  1
  O  O332  1  0.99988491  0.25178617  0.40933804  1
  O  O333  1  0.98829792  0.25982945  0.92803540  1
  O  O334  1  0.98292006  0.74766278  0.41201631  1
  O  O335  1  0.98292588  0.75183028  0.91459131  1
  O  O336  1  0.21019079  0.08518451  0.19440197  1
  O  O337  1  0.21134383  0.08502845  0.69544396  1
  O  O338  1  0.20964103  0.58217563  0.19705129  1
  O  O339  1  0.21199051  0.58268329  0.69812348  1
  O  O340  1  0.54292460  0.08123062  0.19715064  1
  O  O341  1  0.55028500  0.09123968  0.69257814  1
  O  O342  1  0.54044331  0.58390059  0.19606293  1
  O  O343  1  0.54540311  0.58368765  0.69736994  1
  O  O344  1  0.87646837  0.08350010  0.19421334  1
  O  O345  1  0.86190902  0.08204447  0.68988233  1
  O  O346  1  0.88272581  0.57764994  0.18747327  1
  O  O347  1  0.87727791  0.58808465  0.69158177  1
  O  O348  1  0.04438726  0.33094354  0.19253087  1
  O  O349  1  0.04155158  0.33616290  0.69393097  1
  O  O350  1  0.04303618  0.83876148  0.18994102  1
  O  O351  1  0.04386330  0.83382291  0.69321385  1
  O  O352  1  0.37740381  0.32937379  0.19434607  1
  O  O353  1  0.37731975  0.33482664  0.69493113  1
  O  O354  1  0.36840435  0.83586839  0.19540651  1
  O  O355  1  0.37539183  0.83081721  0.69619336  1
  O  O356  1  0.70957508  0.33280851  0.19763384  1
  O  O357  1  0.70625397  0.33557752  0.69330822  1
  O  O358  1  0.71163924  0.83443536  0.19514020  1
  O  O359  1  0.71057593  0.82644576  0.69452304  1
  O  O360  1  0.21124254  0.41049283  0.19056612  1
  O  O361  1  0.20995136  0.41601486  0.69429637  1
  O  O362  1  0.20946591  0.92040697  0.19336791  1
  O  O363  1  0.21292310  0.91439975  0.70001348  1
  O  O364  1  0.54293588  0.41649532  0.19188715  1
  O  O365  1  0.54238176  0.41888435  0.69755145  1
  O  O366  1  0.54542045  0.91868641  0.19803874  1
  O  O367  1  0.54853695  0.90495697  0.69949910  1
  O  O368  1  0.88091375  0.40892549  0.18744599  1
  O  O369  1  0.87818780  0.41642620  0.70074957  1
  O  O370  1  0.87451904  0.91955867  0.19439489  1
  O  O371  1  0.87542164  0.91569419  0.69950365  1
  O  O372  1  0.04360237  0.16498564  0.19411752  1
  O  O373  1  0.05314350  0.17672930  0.70142541  1
  O  O374  1  0.04453632  0.66783916  0.19489867  1
  O  O375  1  0.04451539  0.66729944  0.69861180  1
  O  O376  1  0.37805089  0.16529573  0.19586231  1
  O  O377  1  0.37921229  0.16960503  0.70267017  1
  O  O378  1  0.37801072  0.67124364  0.19280834  1
  O  O379  1  0.37993543  0.66575235  0.70192076  1
  O  O380  1  0.70880852  0.16496786  0.19292974  1
  O  O381  1  0.71188574  0.16801502  0.70491192  1
  O  O382  1  0.69964156  0.66776209  0.19412702  1
  O  O383  1  0.70935364  0.66671856  0.69889606  1
  O  O384  1  0.12249322  0.08241211  0.30266957  1
  O  O385  1  0.13660474  0.08046293  0.81092637  1
  O  O386  1  0.12176691  0.58263742  0.30236831  1
  O  O387  1  0.12351202  0.58378270  0.80384736  1
  O  O388  1  0.45648759  0.08503220  0.30581104  1
  O  O389  1  0.45239460  0.09188150  0.80665880  1
  O  O390  1  0.45740115  0.58450474  0.30870885  1
  O  O391  1  0.45799896  0.58000503  0.80765507  1
  O  O392  1  0.79312859  0.08624582  0.30250224  1
  O  O393  1  0.79503890  0.08200382  0.80975737  1
  O  O394  1  0.78355784  0.57478778  0.30852233  1
  O  O395  1  0.78949802  0.58725183  0.80545079  1
  O  O396  1  0.28729740  0.32995066  0.30518542  1
  O  O397  1  0.28938141  0.33699953  0.80529847  1
  O  O398  1  0.28547198  0.83720849  0.30432562  1
  O  O399  1  0.28926044  0.82907065  0.81010278  1
  O  O400  1  0.62379868  0.33104255  0.30625810  1
  O  O401  1  0.62411340  0.33813081  0.80523106  1
  O  O402  1  0.62545765  0.83459253  0.30413449  1
  O  O403  1  0.62334181  0.82359692  0.81398073  1
  O  O404  1  0.95771183  0.33294771  0.30067198  1
  O  O405  1  0.95880775  0.33542722  0.80856813  1
  O  O406  1  0.95711743  0.83384274  0.30267011  1
  O  O407  1  0.95794838  0.83146219  0.80478680  1
  O  O408  1  0.12092647  0.41600661  0.30061166  1
  O  O409  1  0.12315171  0.41898422  0.80360003  1
  O  O410  1  0.12063275  0.91727398  0.30234040  1
  O  O411  1  0.12377141  0.91364014  0.80651840  1
  O  O412  1  0.45440830  0.41431254  0.29905820  1
  O  O413  1  0.45604658  0.41693405  0.80609231  1
  O  O414  1  0.45127449  0.92406754  0.30998584  1
  O  O415  1  0.45093205  0.90595038  0.80794175  1
  O  O416  1  0.79064576  0.41190527  0.30325613  1
  O  O417  1  0.78725215  0.41596629  0.80577756  1
  O  O418  1  0.79375294  0.91989724  0.30554704  1
  O  O419  1  0.79013014  0.91222194  0.80685473  1
  O  O420  1  0.28842772  0.16471856  0.30366243  1
  O  O421  1  0.28952994  0.17011728  0.81163585  1
  O  O422  1  0.28266664  0.67486432  0.30284751  1
  O  O423  1  0.29023260  0.66388897  0.80667529  1
  O  O424  1  0.62554521  0.16469992  0.30373044  1
  O  O425  1  0.62283248  0.17163573  0.80961398  1
  O  O426  1  0.62211901  0.66492671  0.30375872  1
  O  O427  1  0.62359352  0.66220932  0.80863272  1
  O  O428  1  0.95887665  0.16695161  0.30172877  1
  O  O429  1  0.94966714  0.17460534  0.80313802  1
  O  O430  1  0.96497021  0.66755530  0.30315406  1
  O  O431  1  0.95499417  0.66835228  0.80386603  1
  F  F432  1  0.04471995  0.00142515  0.19944237  1
  F  F433  1  0.05357728  -0.00935503  0.70174033  1
  F  F434  1  0.04845259  0.49760414  0.19670113  1
  F  F435  1  0.04585091  0.50073298  0.70068467  1
  F  F436  1  0.37852742  0.00135884  0.20275507  1
  F  F437  1  0.36692954  -0.00109705  0.70104116  1
  F  F438  1  0.37777133  0.49738744  0.19930986  1
  F  F439  1  0.38071944  0.49874664  0.70378349  1
  F  F440  1  0.71192618  -0.00018825  0.20302591  1
  F  F441  1  0.71039608  0.00081797  0.70618962  1
  F  F442  1  0.70429970  0.50126368  0.19875191  1
  F  F443  1  0.70628759  0.50143754  0.70249513  1
  F  F444  1  0.21276959  0.24762484  0.20114655  1
  F  F445  1  0.21556855  0.25099104  0.70645907  1
  F  F446  1  0.21092246  0.75425486  0.19745290  1
  F  F447  1  0.21399230  0.75043117  0.70449110  1
  F  F448  1  0.54443673  0.24839628  0.20277305  1
  F  F449  1  0.54437913  0.25276827  0.70566339  1
  F  F450  1  0.54357366  0.74878944  0.20255315  1
  F  F451  1  0.54605659  0.74765500  0.70829033  1
  F  F452  1  0.87971920  0.24733854  0.19846264  1
  F  F453  1  0.87656594  0.25437206  0.70235586  1
  F  F454  1  0.88155753  0.76234815  0.19532366  1
  F  F455  1  0.87784411  0.75059133  0.70257014  1
  F  F456  1  0.28515132  0.00206121  0.29732289  1
  F  F457  1  0.28845931  -0.00069038  0.80170567  1
  F  F458  1  0.28215871  0.48894843  0.30096362  1
  F  F459  1  0.28925887  0.49833801  0.79872773  1
  F  F460  1  0.62331468  0.00259290  0.29997669  1
  F  F461  1  0.63545368  0.00806565  0.81318199  1
  F  F462  1  0.61779337  0.49645967  0.29729605  1
  F  F463  1  0.62113360  0.50021969  0.80120384  1
  F  F464  1  0.95679582  0.00068458  0.29593229  1
  F  F465  1  0.95102571  -0.00919622  0.80397138  1
  F  F466  1  0.96126459  0.49949529  0.29496266  1
  F  F467  1  0.96403343  0.50450903  0.80077996  1
  F  F468  1  0.12088803  0.24865094  0.29585258  1
  F  F469  1  0.12479789  0.25653628  0.80371203  1
  F  F470  1  0.12001431  0.75496644  0.29397899  1
  F  F471  1  0.12170298  0.74995333  0.79852735  1
  F  F472  1  0.45507523  0.24769533  0.29853181  1
  F  F473  1  0.45569749  0.25794860  0.80311955  1
  F  F474  1  0.44879449  0.74947476  0.30102428  1
  F  F475  1  0.45567176  0.74604939  0.80402178  1
  F  F476  1  0.79104991  0.24781397  0.29582366  1
  F  F477  1  0.78755718  0.25688610  0.80077587  1
  F  F478  1  0.78591577  0.75896033  0.30160267  1
  F  F479  1  0.79031678  0.74868807  0.79996111  1
