# generated using pymatgen
data_K24Na3Li5Mg64Fe17Si79(O5F)48
_symmetry_space_group_name_H-M   'P 1'
_cell_length_a   16.08789912
_cell_length_b   18.59976909
_cell_length_c   20.55859180
_cell_angle_alpha   90.01457638
_cell_angle_beta   100.01332008
_cell_angle_gamma   89.98481999
_symmetry_Int_Tables_number   1
_chemical_formula_structural   K24Na3Li5Mg64Fe17Si79(O5F)48
_chemical_formula_sum   'K24 Na3 Li5 Mg64 Fe17 Si79 O240 F48'
_cell_volume   6058.06417095
_cell_formula_units_Z   1
loop_
 _symmetry_equiv_pos_site_id
 _symmetry_equiv_pos_as_xyz
  1  'x, y, z'
loop_
 _atom_site_type_symbol
 _atom_site_label
 _atom_site_symmetry_multiplicity
 _atom_site_fract_x
 _atom_site_fract_y
 _atom_site_fract_z
 _atom_site_occupancy
  K  K0  1  0.01332360  -0.00148681  0.00330355  1
  K  K1  1  0.00487742  0.00616820  0.50047330  1
  K  K2  1  0.00319668  0.48735587  -0.00187611  1
  K  K3  1  -0.00203232  0.49652838  0.50724773  1
  K  K4  1  0.32243998  0.00106781  -0.00456464  1
  K  K5  1  0.31724958  0.00275622  0.49503512  1
  K  K6  1  0.32816664  0.49807354  0.00281054  1
  K  K7  1  0.32457937  0.49693188  0.49894140  1
  K  K8  1  0.67226348  -0.00084924  0.00618597  1
  K  K9  1  0.67638070  0.00177584  0.49280414  1
  K  K10  1  0.67618368  0.49813400  0.00502202  1
  K  K11  1  0.65370249  0.49130411  0.49580043  1
  K  K12  1  0.16922434  0.25502626  -0.00541827  1
  K  K13  1  0.15288686  0.24437289  0.50270660  1
  K  K14  1  0.15908347  0.75392794  -0.00775165  1
  K  K15  1  0.15890734  0.75264665  0.50178212  1
  K  K16  1  0.49797548  0.24496620  0.00121855  1
  K  K17  1  0.48784889  0.25429262  0.49348934  1
  K  K18  1  0.50484862  0.75521032  0.00291118  1
  K  K19  1  0.49041914  0.75029704  0.49498379  1
  K  K20  1  0.85937496  0.25165964  0.00582807  1
  K  K21  1  0.84263700  0.25270358  0.49835456  1
  K  K22  1  0.83194130  0.74718292  0.00201700  1
  K  K23  1  0.83674176  0.75211434  0.49672837  1
  Na  Na24  1  0.16153563  -0.00096217  0.24881707  1
  Na  Na25  1  -0.00138869  0.92133764  0.24832473  1
  Na  Na26  1  -0.00027438  0.41746104  0.74908215  1
  Li  Li27  1  0.00805567  0.25157255  0.75004343  1
  Li  Li28  1  0.00375515  0.25161914  0.25165078  1
  Li  Li29  1  0.16468827  0.67458166  0.75080950  1
  Li  Li30  1  0.15875861  0.82901418  0.75039659  1
  Li  Li31  1  0.00908637  0.91472231  0.75098505  1
  Mg  Mg32  1  0.66502331  0.74990948  0.75245429  1
  Mg  Mg33  1  0.32704414  0.75038090  0.75109730  1
  Mg  Mg34  1  0.83748304  -0.00160318  0.75040261  1
  Mg  Mg35  1  0.83539368  0.49715295  0.24629832  1
  Mg  Mg36  1  0.16337274  -0.00384098  0.74919501  1
  Mg  Mg37  1  0.00070640  0.75274344  0.24988799  1
  Mg  Mg38  1  0.50016296  0.50157983  0.75228511  1
  Mg  Mg39  1  0.33119394  0.24979139  0.75180964  1
  Mg  Mg40  1  0.00427888  0.75325745  0.75420538  1
  Mg  Mg41  1  0.83367530  0.49940340  0.75125306  1
  Mg  Mg42  1  0.16513814  0.50500581  0.74835843  1
  Mg  Mg43  1  0.33271864  0.25129504  0.25271140  1
  Mg  Mg44  1  0.66659947  0.25199097  0.24852305  1
  Mg  Mg45  1  0.33491254  0.75308904  0.25133760  1
  Mg  Mg46  1  0.50007535  0.49716727  0.24992091  1
  Mg  Mg47  1  0.49792711  0.00038862  0.75222954  1
  Mg  Mg48  1  0.66823572  0.75134700  0.24788971  1
  Mg  Mg49  1  0.66689585  0.24912485  0.74881460  1
  Mg  Mg50  1  0.83373924  -0.00007769  0.25015241  1
  Mg  Mg51  1  0.16777902  0.49735336  0.24945956  1
  Mg  Mg52  1  0.50015574  -0.00053217  0.25213216  1
  Mg  Mg53  1  0.66969262  0.91525565  0.25006739  1
  Mg  Mg54  1  0.83679876  0.33275978  0.24430089  1
  Mg  Mg55  1  0.16752970  0.66635268  0.24830813  1
  Mg  Mg56  1  0.33413610  0.58479731  0.24907674  1
  Mg  Mg57  1  -0.00037513  0.08605219  0.24995502  1
  Mg  Mg58  1  0.50068377  0.33655559  0.24921444  1
  Mg  Mg59  1  0.83385912  0.66626857  0.75250809  1
  Mg  Mg60  1  0.50126595  0.66591526  0.24868003  1
  Mg  Mg61  1  0.83616226  0.33163874  0.74562449  1
  Mg  Mg62  1  0.49821089  0.83430257  0.75189457  1
  Mg  Mg63  1  0.83742368  0.16829348  0.25171687  1
  Mg  Mg64  1  0.49781657  0.16538333  0.75089516  1
  Mg  Mg65  1  0.32652387  0.91381377  0.75143541  1
  Mg  Mg66  1  0.32866700  0.08389653  0.75114330  1
  Mg  Mg67  1  0.16465450  0.16515576  0.74962269  1
  Mg  Mg68  1  0.16481159  0.33450756  0.75235974  1
  Mg  Mg69  1  0.83388898  0.66603456  0.24472078  1
  Mg  Mg70  1  0.00218019  0.58654838  0.75005452  1
  Mg  Mg71  1  0.83667389  0.83421941  0.75202412  1
  Mg  Mg72  1  0.50115641  0.16706987  0.25364570  1
  Mg  Mg73  1  0.66653083  0.58303942  0.24479544  1
  Mg  Mg74  1  0.00170937  0.58311200  0.24641624  1
  Mg  Mg75  1  0.16715131  0.83451941  0.25146773  1
  Mg  Mg76  1  0.33109930  0.41766512  0.75019266  1
  Mg  Mg77  1  0.33375504  0.41367843  0.25170726  1
  Mg  Mg78  1  0.49911663  0.33422333  0.75026348  1
  Mg  Mg79  1  0.66686254  0.58551279  0.75371307  1
  Mg  Mg80  1  0.33508613  0.91807023  0.25351520  1
  Mg  Mg81  1  0.66694275  0.91631244  0.75100703  1
  Mg  Mg82  1  0.00183612  0.41135187  0.24554831  1
  Mg  Mg83  1  0.83253887  0.83601915  0.24851084  1
  Mg  Mg84  1  0.33311487  0.08339016  0.25438030  1
  Mg  Mg85  1  0.66861929  0.08463152  0.25336090  1
  Mg  Mg86  1  0.66818905  0.41543737  0.75062978  1
  Mg  Mg87  1  0.50079016  0.66695826  0.75296826  1
  Mg  Mg88  1  0.16502416  0.16750524  0.25282280  1
  Mg  Mg89  1  0.00283176  0.08131351  0.75122106  1
  Mg  Mg90  1  0.83889259  0.16790824  0.75003207  1
  Mg  Mg91  1  0.16680148  0.33500725  0.24977804  1
  Mg  Mg92  1  0.50243939  0.83586555  0.25094452  1
  Mg  Mg93  1  0.66630964  0.41406235  0.24749050  1
  Mg  Mg94  1  0.33129043  0.58646043  0.75076544  1
  Mg  Mg95  1  0.66786189  0.08384269  0.75017918  1
  Fe  Fe96  1  0.96535111  0.33509065  0.38669719  1
  Fe  Fe97  1  0.13245125  0.41858226  0.39065213  1
  Fe  Fe98  1  0.64449467  0.66815713  0.89268152  1
  Fe  Fe99  1  0.81024493  0.91535678  0.39101003  1
  Fe  Fe100  1  0.14214111  0.90821766  0.88821851  1
  Fe  Fe101  1  0.97932360  0.32835543  0.88646952  1
  Fe  Fe102  1  0.20047282  0.41860201  0.10842469  1
  Fe  Fe103  1  0.86566840  0.41356161  0.10514305  1
  Fe  Fe104  1  0.69183124  0.83613801  0.10673738  1
  Fe  Fe105  1  0.46510491  0.41901723  0.39361910  1
  Fe  Fe106  1  0.30560067  0.16968962  0.89176107  1
  Fe  Fe107  1  0.63762796  0.33559090  0.38970118  1
  Fe  Fe108  1  0.02183491  0.33403570  0.60999191  1
  Fe  Fe109  1  0.19153061  0.07810894  0.60954654  1
  Fe  Fe110  1  0.52878619  0.41351551  0.10665503  1
  Fe  Fe111  1  0.47754058  0.91512037  0.39138417  1
  Fe  Fe112  1  0.29595672  0.32671376  0.39408146  1
  Si  Si113  1  0.64410713  0.83845232  0.88690300  1
  Si  Si114  1  0.47704747  0.59034753  0.38668217  1
  Si  Si115  1  0.19369010  0.08234872  0.11756603  1
  Si  Si116  1  0.31227570  0.66514581  0.88571791  1
  Si  Si117  1  0.64562556  0.16801099  0.38806079  1
  Si  Si118  1  0.03707791  0.32856602  0.10793029  1
  Si  Si119  1  0.85900892  0.08434427  0.11464280  1
  Si  Si120  1  0.64117049  0.82790196  0.38884646  1
  Si  Si121  1  0.02065824  0.82983034  0.61578308  1
  Si  Si122  1  0.81165197  0.57698703  0.88803370  1
  Si  Si123  1  0.68875085  0.66936340  0.61505562  1
  Si  Si124  1  0.19188886  0.58980131  0.11087611  1
  Si  Si125  1  0.30433846  0.83735062  0.39010234  1
  Si  Si126  1  0.63803422  0.33190167  0.88431639  1
  Si  Si127  1  0.35547651  0.16518369  0.11767717  1
  Si  Si128  1  0.47604078  0.91579919  0.88649166  1
  Si  Si129  1  0.19456057  0.42089605  0.61278768  1
  Si  Si130  1  0.81070923  0.08439226  0.38785436  1
  Si  Si131  1  0.13706816  0.07948463  0.38582422  1
  Si  Si132  1  0.19170557  0.58724930  0.61595834  1
  Si  Si133  1  0.85250871  0.58671062  0.61361888  1
  Si  Si134  1  0.02772891  0.16338615  0.11630405  1
  Si  Si135  1  0.30830447  0.67260870  0.38453021  1
  Si  Si136  1  0.14727727  0.42595207  0.88622334  1
  Si  Si137  1  0.52212889  0.08556035  0.11747215  1
  Si  Si138  1  0.97362116  0.66461134  0.88644037  1
  Si  Si139  1  0.35891701  0.83592016  0.11455007  1
  Si  Si140  1  0.80550969  0.41045808  0.88523624  1
  Si  Si141  1  0.36519689  0.32762333  0.11145824  1
  Si  Si142  1  0.02084196  0.66628326  0.61523414  1
  Si  Si143  1  0.14379683  0.59037700  0.88410925  1
  Si  Si144  1  0.81143963  0.58281462  0.38042010  1
  Si  Si145  1  0.47664160  0.41907323  0.88484576  1
  Si  Si146  1  0.48122118  0.08361379  0.38893414  1
  Si  Si147  1  0.64167578  0.16581322  0.88522054  1
  Si  Si148  1  0.36045238  0.67154770  0.11399322  1
  Si  Si149  1  0.01972889  0.16217403  0.61182819  1
  Si  Si150  1  0.52705328  0.41644129  0.61628358  1
  Si  Si151  1  0.69339917  0.16498667  0.61486427  1
  Si  Si152  1  0.13863586  0.07913352  0.88979915  1
  Si  Si153  1  0.52713461  0.08461598  0.61552452  1
  Si  Si154  1  0.52259481  0.91869437  0.61594601  1
  Si  Si155  1  0.69760668  0.32782382  0.10712405  1
  Si  Si156  1  0.19004839  0.90894077  0.61200938  1
  Si  Si157  1  0.52143581  0.58310582  0.11102226  1
  Si  Si158  1  0.97438312  0.82663110  0.38754887  1
  Si  Si159  1  0.69036781  0.16303845  0.11527991  1
  Si  Si160  1  0.97732552  0.66402620  0.38212407  1
  Si  Si161  1  0.96636447  0.82950355  0.88997522  1
  Si  Si162  1  0.85596737  0.07857194  0.61503016  1
  Si  Si163  1  0.68812631  0.83435347  0.61546671  1
  Si  Si164  1  0.52514966  0.58210309  0.61540824  1
  Si  Si165  1  0.19574278  0.91496644  0.11634309  1
  Si  Si166  1  0.68893316  0.66496567  0.11021446  1
  Si  Si167  1  0.69018179  0.33132519  0.61384421  1
  Si  Si168  1  0.85961295  0.58637212  0.10898913  1
  Si  Si169  1  0.36249010  0.16912817  0.61325046  1
  Si  Si170  1  0.02896804  0.83548045  0.11439175  1
  Si  Si171  1  0.85538901  0.91302011  0.61532444  1
  Si  Si172  1  0.47664076  0.08149345  0.88863747  1
  Si  Si173  1  0.80852732  0.08493483  0.88478449  1
  Si  Si174  1  0.36036951  0.33605558  0.61658996  1
  Si  Si175  1  0.84783660  0.42202752  0.61088811  1
  Si  Si176  1  0.30922899  0.15773393  0.39040353  1
  Si  Si177  1  0.47357481  0.58327054  0.88839721  1
  Si  Si178  1  0.31631887  0.82802723  0.88978798  1
  Si  Si179  1  0.14612421  0.58580807  0.38477918  1
  Si  Si180  1  0.80614995  0.92044710  0.88535555  1
  Si  Si181  1  0.31099791  0.34099193  0.88847389  1
  Si  Si182  1  0.13699874  0.91171344  0.38633951  1
  Si  Si183  1  0.97586200  0.16033241  0.88610999  1
  Si  Si184  1  0.86080907  0.91888347  0.10959718  1
  Si  Si185  1  0.64667993  0.66532191  0.38182227  1
  Si  Si186  1  0.97609338  0.16645564  0.38677021  1
  Si  Si187  1  0.36001478  0.66584571  0.61540272  1
  Si  Si188  1  0.35928218  0.83072058  0.61566180  1
  Si  Si189  1  0.79996848  0.42081328  0.38374065  1
  Si  Si190  1  0.02569468  0.67247255  0.11247492  1
  Si  Si191  1  0.52242619  0.92152565  0.11238609  1
  O  O192  1  0.27462240  0.11377078  0.08602715  1
  O  O193  1  0.28243976  0.12432364  0.57745842  1
  O  O194  1  0.27345664  0.62819454  0.08393291  1
  O  O195  1  0.26724177  0.63112689  0.58529048  1
  O  O196  1  0.60435966  0.11480129  0.08688190  1
  O  O197  1  0.60792397  0.11779279  0.58631302  1
  O  O198  1  0.60751301  0.61146095  0.08475597  1
  O  O199  1  0.60173334  0.62368125  0.58620622  1
  O  O200  1  0.93683429  0.12306156  0.08545234  1
  O  O201  1  0.93404323  0.11099675  0.58465728  1
  O  O202  1  0.93893524  0.62868191  0.08231576  1
  O  O203  1  0.93349742  0.62041425  0.58383919  1
  O  O204  1  0.11782112  0.35166599  0.07456449  1
  O  O205  1  0.11279856  0.37879061  0.57660044  1
  O  O206  1  0.10951052  0.87023468  0.08488583  1
  O  O207  1  0.10115628  0.86342167  0.58594427  1
  O  O208  1  0.45094147  0.33946474  0.08100956  1
  O  O209  1  0.43926246  0.37467081  0.58847940  1
  O  O210  1  0.43650288  0.87348664  0.08501914  1
  O  O211  1  0.43490694  0.87516455  0.58713316  1
  O  O212  1  0.78042256  0.34617545  0.07498513  1
  O  O213  1  0.76166668  0.37374206  0.58128948  1
  O  O214  1  0.78244767  0.87327996  0.06874302  1
  O  O215  1  0.76724814  0.86812476  0.58479391  1
  O  O216  1  0.29648750  0.38584482  0.07668578  1
  O  O217  1  0.27868604  0.38526430  0.58778298  1
  O  O218  1  0.27316632  0.88059287  0.08307395  1
  O  O219  1  0.26622498  0.86166296  0.58407090  1
  O  O220  1  0.62309197  0.38148344  0.07191602  1
  O  O221  1  0.60117906  0.37413490  0.58660069  1
  O  O222  1  0.59606968  0.89409016  0.07421708  1
  O  O223  1  0.60149210  0.88046781  0.58716428  1
  O  O224  1  0.95758179  0.37674952  0.07136886  1
  O  O225  1  0.92539261  0.39310116  0.57910554  1
  O  O226  1  0.94800332  0.88693686  0.08631044  1
  O  O227  1  0.93275890  0.87504312  0.58466691  1
  O  O228  1  0.10430411  0.12212514  0.08518764  1
  O  O229  1  0.09233692  0.12680675  0.57520720  1
  O  O230  1  0.10841702  0.64174973  0.08422668  1
  O  O231  1  0.10112905  0.62827227  0.58684962  1
  O  O232  1  0.43972066  0.13596554  0.08885608  1
  O  O233  1  0.44688879  0.13569537  0.58651613  1
  O  O234  1  0.44221393  0.64019584  0.08505417  1
  O  O235  1  0.43440045  0.62103765  0.58539096  1
  O  O236  1  0.76855675  0.12563256  0.08432839  1
  O  O237  1  0.76961592  0.12506080  0.58524764  1
  O  O238  1  0.77315998  0.63420087  0.08317508  1
  O  O239  1  0.76881228  0.63726359  0.58421211  1
  O  O240  1  0.05710803  0.11199579  0.41697258  1
  O  O241  1  0.04749600  0.09932077  0.91356001  1
  O  O242  1  0.06020311  0.61503914  0.41167349  1
  O  O243  1  0.06575558  0.62776995  0.91531383  1
  O  O244  1  0.39398279  0.10652223  0.41599894  1
  O  O245  1  0.40322588  0.11224026  0.92473916  1
  O  O246  1  0.39631592  0.62978283  0.41423710  1
  O  O247  1  0.38523994  0.60485690  0.91470078  1
  O  O248  1  0.72317554  0.11044825  0.41408917  1
  O  O249  1  0.72671983  0.11868332  0.91360530  1
  O  O250  1  0.72771831  0.61233687  0.40966313  1
  O  O251  1  0.73920311  0.61089437  0.92432780  1
  O  O252  1  0.20089280  0.34556407  0.42984049  1
  O  O253  1  0.23407599  0.38094727  0.91763186  1
  O  O254  1  0.22049626  0.86395235  0.42029166  1
  O  O255  1  0.23963991  0.85255650  0.92560042  1
  O  O256  1  0.55077946  0.35882961  0.43392730  1
  O  O257  1  0.55553784  0.36412113  0.91188849  1
  O  O258  1  0.55623965  0.84146348  0.42010775  1
  O  O259  1  0.56025328  0.86780500  0.91456718  1
  O  O260  1  0.86451625  0.35950210  0.41709658  1
  O  O261  1  0.88063414  0.35934777  0.91906010  1
  O  O262  1  0.89893154  0.85182375  0.42497349  1
  O  O263  1  0.88257089  0.86603545  0.91645621  1
  O  O264  1  0.03278889  0.41023865  0.42175277  1
  O  O265  1  0.06865070  0.39406941  0.91613248  1
  O  O266  1  0.05818456  0.87620999  0.41685102  1
  O  O267  1  0.04945596  0.87102243  0.92612798  1
  O  O268  1  0.37459826  0.39412087  0.43281807  1
  O  O269  1  0.39407202  0.39355769  0.91422847  1
  O  O270  1  0.38088019  0.88721926  0.42597030  1
  O  O271  1  0.39986409  0.88012327  0.91902788  1
  O  O272  1  0.71275124  0.41288293  0.41248806  1
  O  O273  1  0.71794961  0.38376770  0.91188471  1
  O  O274  1  0.71435460  0.88230968  0.42362662  1
  O  O275  1  0.71882081  0.89833504  0.91140878  1
  O  O276  1  0.22850481  0.11741611  0.41679848  1
  O  O277  1  0.20998048  0.13711589  0.92331258  1
  O  O278  1  0.22457272  0.64324792  0.41187526  1
  O  O279  1  0.22672581  0.64061642  0.91388253  1
  O  O280  1  0.55851860  0.14155056  0.41488324  1
  O  O281  1  0.56465938  0.12806282  0.91544862  1
  O  O282  1  0.56208812  0.64177395  0.41173552  1
  O  O283  1  0.54628123  0.63743277  0.92325441  1
  O  O284  1  0.89034728  0.13845614  0.41519735  1
  O  O285  1  0.88950540  0.13361386  0.91544816  1
  O  O286  1  0.89291553  0.63497529  0.41012008  1
  O  O287  1  0.90242723  0.61719893  0.91568221  1
  O  O288  1  0.18248797  -0.00169513  0.09022831  1
  O  O289  1  0.18268357  -0.01590291  0.57181426  1
  O  O290  1  0.17475499  0.51348943  0.07459954  1
  O  O291  1  0.18957421  0.50571093  0.58490593  1
  O  O292  1  0.49856266  0.00494039  0.08733449  1
  O  O293  1  0.51215939  0.00151930  0.58769855  1
  O  O294  1  0.49422886  0.50745735  0.07543743  1
  O  O295  1  0.52172503  0.49929137  0.58709797  1
  O  O296  1  0.85050102  0.00318586  0.08212166  1
  O  O297  1  0.83946418  -0.00439747  0.58627298  1
  O  O298  1  0.84619380  0.50955645  0.07262623  1
  O  O299  1  0.82825034  0.50645589  0.58333779  1
  O  O300  1  0.01738177  0.24344999  0.08356475  1
  O  O301  1  -0.00413518  0.24033636  0.57869964  1
  O  O302  1  0.01117851  0.75449280  0.08154660  1
  O  O303  1  0.00778506  0.74759760  0.58214091  1
  O  O304  1  0.33174504  0.24488403  0.08739698  1
  O  O305  1  0.35468784  0.25393165  0.58795085  1
  O  O306  1  0.34718412  0.75392999  0.08462732  1
  O  O307  1  0.36364496  0.74808421  0.58640430  1
  O  O308  1  0.67045150  0.24295070  0.08361128  1
  O  O309  1  0.68071654  0.24774861  0.58642388  1
  O  O310  1  0.66578779  0.74190461  0.07531588  1
  O  O311  1  0.67155179  0.75181594  0.58645058  1
  O  O312  1  0.14816760  -0.00465379  0.41327646  1
  O  O313  1  0.16531910  0.00144224  0.92379544  1
  O  O314  1  0.17564723  0.51146899  0.42021734  1
  O  O315  1  0.16320866  0.50966742  0.91561306  1
  O  O316  1  0.51330477  0.00733682  0.42267247  1
  O  O317  1  0.49719651  -0.00221961  0.91448727  1
  O  O318  1  0.49530094  0.51542309  0.42449616  1
  O  O319  1  0.50092579  0.50023969  0.91287965  1
  O  O320  1  0.83525031  0.00821208  0.42464715  1
  O  O321  1  0.82590144  0.00260741  0.91376084  1
  O  O322  1  0.83647064  0.50296774  0.40931396  1
  O  O323  1  0.82426241  0.49313922  0.91242311  1
  O  O324  1  0.32902400  0.23303588  0.42802659  1
  O  O325  1  0.33166836  0.26405413  0.92384542  1
  O  O326  1  0.32353399  0.75355486  0.41623192  1
  O  O327  1  0.34354380  0.74451945  0.91642803  1
  O  O328  1  0.67622641  0.24348948  0.42223988  1
  O  O329  1  0.65313643  0.24903548  0.91282977  1
  O  O330  1  0.67500745  0.74485768  0.41150157  1
  O  O331  1  0.67335825  0.76288011  0.92112677  1
  O  O332  1  1.00030202  0.24327118  0.42114044  1
  O  O333  1  1.00419443  0.23544476  0.92264574  1
  O  O334  1  1.00014814  0.74357883  0.41467416  1
  O  O335  1  0.97110049  0.74522994  0.91896318  1
  O  O336  1  0.21549260  0.08961149  0.19635291  1
  O  O337  1  0.21084608  0.08014843  0.70093315  1
  O  O338  1  0.21109364  0.58826194  0.19192061  1
  O  O339  1  0.21357440  0.58514230  0.69515119  1
  O  O340  1  0.54310855  0.08413210  0.19774929  1
  O  O341  1  0.54403832  0.08324550  0.69634748  1
  O  O342  1  0.54055164  0.58462293  0.19220587  1
  O  O343  1  0.54241533  0.58310668  0.69561107  1
  O  O344  1  0.87249464  0.08461282  0.19444737  1
  O  O345  1  0.87203147  0.08096328  0.69512216  1
  O  O346  1  0.87814568  0.58550788  0.18997173  1
  O  O347  1  0.87090888  0.58663329  0.69383381  1
  O  O348  1  0.05065975  0.33565922  0.18774316  1
  O  O349  1  0.05241831  0.32873913  0.69729587  1
  O  O350  1  0.04931502  0.82734419  0.19328865  1
  O  O351  1  0.03467840  0.82894854  0.69422101  1
  O  O352  1  0.37931030  0.33001677  0.19265358  1
  O  O353  1  0.37836014  0.33504225  0.69740243  1
  O  O354  1  0.37692294  0.83360035  0.19481966  1
  O  O355  1  0.37789901  0.83274361  0.69582860  1
  O  O356  1  0.71141630  0.33154189  0.18846990  1
  O  O357  1  0.70581601  0.33238696  0.69436249  1
  O  O358  1  0.70933044  0.83250042  0.19819138  1
  O  O359  1  0.70680098  0.83366631  0.69591737  1
  O  O360  1  0.21637197  0.42007920  0.19941688  1
  O  O361  1  0.21213798  0.42067914  0.69377901  1
  O  O362  1  0.21779990  0.90791966  0.19522071  1
  O  O363  1  0.21341887  0.91685639  0.69126725  1
  O  O364  1  0.54627168  0.41887612  0.19774355  1
  O  O365  1  0.54474268  0.41762580  0.69683247  1
  O  O366  1  0.54452626  0.91749896  0.19305186  1
  O  O367  1  0.54223071  0.91753908  0.69651666  1
  O  O368  1  0.87912307  0.41841917  0.19620009  1
  O  O369  1  0.85917719  0.42081901  0.69065074  1
  O  O370  1  0.86566269  0.91673836  0.18863801  1
  O  O371  1  0.86825114  0.91396526  0.69461981  1
  O  O372  1  0.04616490  0.16440254  0.19546217  1
  O  O373  1  0.04288097  0.16019735  0.69252271  1
  O  O374  1  0.04375002  0.66928665  0.19299471  1
  O  O375  1  0.03397144  0.66897143  0.69425926  1
  O  O376  1  0.37702189  0.16437796  0.19810151  1
  O  O377  1  0.38004499  0.16675765  0.69429796  1
  O  O378  1  0.37737972  0.66978784  0.19460797  1
  O  O379  1  0.37965197  0.66571358  0.69547197  1
  O  O380  1  0.70879565  0.16399989  0.19547910  1
  O  O381  1  0.70770235  0.16467242  0.69524537  1
  O  O382  1  0.70889700  0.66651431  0.19134964  1
  O  O383  1  0.70871685  0.66736111  0.69522267  1
  O  O384  1  0.11859254  0.08843206  0.30712965  1
  O  O385  1  0.12367535  0.08107115  0.80852843  1
  O  O386  1  0.12608550  0.58625639  0.30357696  1
  O  O387  1  0.12260199  0.58607364  0.80481026  1
  O  O388  1  0.46102841  0.08323899  0.30768650  1
  O  O389  1  0.45877309  0.08339838  0.80736419  1
  O  O390  1  0.45771982  0.58777762  0.30565741  1
  O  O391  1  0.45801178  0.58408726  0.80695862  1
  O  O392  1  0.79004076  0.08397951  0.30671145  1
  O  O393  1  0.78811448  0.08345420  0.80437154  1
  O  O394  1  0.79158562  0.58508920  0.29988474  1
  O  O395  1  0.78912494  0.58337986  0.80682111  1
  O  O396  1  0.29014368  0.33174224  0.30201807  1
  O  O397  1  0.29385908  0.33700182  0.80724064  1
  O  O398  1  0.29159511  0.83445184  0.30909004  1
  O  O399  1  0.30149515  0.83153785  0.80994100  1
  O  O400  1  0.62223368  0.33196071  0.29744540  1
  O  O401  1  0.62130312  0.33151610  0.80353721  1
  O  O402  1  0.62359554  0.83170537  0.30718112  1
  O  O403  1  0.62307859  0.83563175  0.80551944  1
  O  O404  1  0.95429896  0.33342283  0.29652773  1
  O  O405  1  0.94827388  0.32341684  0.79858348  1
  O  O406  1  0.95189718  0.82547722  0.30759877  1
  O  O407  1  0.95027786  0.82814396  0.81011039  1
  O  O408  1  0.11998924  0.41888966  0.29824861  1
  O  O409  1  0.13740859  0.42371111  0.80661639  1
  O  O410  1  0.12671605  0.90656031  0.30833776  1
  O  O411  1  0.12629692  0.91404910  0.79991858  1
  O  O412  1  0.45392468  0.41811291  0.30073067  1
  O  O413  1  0.45835881  0.41787302  0.80404773  1
  O  O414  1  0.45735552  0.91581084  0.29938772  1
  O  O415  1  0.45723332  0.91642045  0.80580542  1
  O  O416  1  0.78694630  0.41939574  0.30224621  1
  O  O417  1  0.78705149  0.41352662  0.80407129  1
  O  O418  1  0.78983854  0.91729253  0.29956621  1
  O  O419  1  0.78893606  0.91789464  0.80476466  1
  O  O420  1  0.29154231  0.16349761  0.30963384  1
  O  O421  1  0.29195035  0.16770025  0.80051974  1
  O  O422  1  0.29176747  0.67003580  0.30396178  1
  O  O423  1  0.29776991  0.66673131  0.80625739  1
  O  O424  1  0.62530160  0.16675406  0.30674047  1
  O  O425  1  0.62262742  0.16575424  0.80453390  1
  O  O426  1  0.62554561  0.66573252  0.30119916  1
  O  O427  1  0.62146878  0.66747157  0.80017141  1
  O  O428  1  0.95545468  0.16441896  0.30672924  1
  O  O429  1  0.95392589  0.15997664  0.80588469  1
  O  O430  1  0.95823991  0.66547032  0.30158705  1
  O  O431  1  0.95468934  0.66727859  0.80613523  1
  F  F432  1  0.03263289  0.01223339  0.18963064  1
  F  F433  1  0.04411314  0.00205368  0.69960665  1
  F  F434  1  0.04723952  0.50529050  0.19731983  1
  F  F435  1  0.04871525  0.51294190  0.69646531  1
  F  F436  1  0.37878205  0.00204507  0.20154624  1
  F  F437  1  0.38029749  -0.00066478  0.70386388  1
  F  F438  1  0.37879451  0.50514722  0.20122688  1
  F  F439  1  0.38107005  0.50188789  0.70235374  1
  F  F440  1  0.70915226  0.00319771  0.20109721  1
  F  F441  1  0.71007207  -0.00064408  0.70221665  1
  F  F442  1  0.71247961  0.50111946  0.19847842  1
  F  F443  1  0.70826473  0.50241240  0.70379645  1
  F  F444  1  0.21452188  0.24634495  0.20221356  1
  F  F445  1  0.21561895  0.25384550  0.70080506  1
  F  F446  1  0.21483920  0.75066557  0.20279058  1
  F  F447  1  0.21523225  0.74989412  0.69933668  1
  F  F448  1  0.54460491  0.24491981  0.20111968  1
  F  F449  1  0.54455348  0.24922430  0.70190012  1
  F  F450  1  0.54457351  0.75097168  0.20169276  1
  F  F451  1  0.54373982  0.75261821  0.70073535  1
  F  F452  1  0.87015184  0.24560729  0.19593221  1
  F  F453  1  0.85820064  0.24674245  0.69183140  1
  F  F454  1  0.87990291  0.75049441  0.19922084  1
  F  F455  1  0.87447726  0.74940915  0.70320166  1
  F  F456  1  0.29991783  -0.00057387  0.30336217  1
  F  F457  1  0.29189978  -0.00271269  0.80045567  1
  F  F458  1  0.28970156  0.50707174  0.29846923  1
  F  F459  1  0.29080075  0.50247928  0.79723000  1
  F  F460  1  0.62233118  -0.00094994  0.29764923  1
  F  F461  1  0.62105168  0.00071586  0.79831257  1
  F  F462  1  0.62262761  0.50538351  0.29544786  1
  F  F463  1  0.62127132  0.49936765  0.79934898  1
  F  F464  1  0.94906421  0.00917680  0.30087003  1
  F  F465  1  0.95168113  0.00095136  0.79876608  1
  F  F466  1  0.95538049  0.50527774  0.29418394  1
  F  F467  1  0.94914586  0.51175712  0.79894932  1
  F  F468  1  0.12675339  0.25141472  0.29791727  1
  F  F469  1  0.13249893  0.24827866  0.80102619  1
  F  F470  1  0.12288356  0.74750001  0.29776875  1
  F  F471  1  0.11828069  0.74853971  0.80353747  1
  F  F472  1  0.45560890  0.24976431  0.29821201  1
  F  F473  1  0.45685582  0.25040735  0.79850782  1
  F  F474  1  0.45588691  0.74989488  0.29707592  1
  F  F475  1  0.45539858  0.75047659  0.79728850  1
  F  F476  1  0.78690418  0.25076968  0.29482130  1
  F  F477  1  0.78360421  0.24755351  0.79740598  1
  F  F478  1  0.78948052  0.74608735  0.29549722  1
  F  F479  1  0.78567322  0.75040142  0.79842702  1
