# generated using pymatgen
data_K24Na3Li5Mg64Fe17Si79(O5F)48
_symmetry_space_group_name_H-M   'P 1'
_cell_length_a   16.08162649
_cell_length_b   18.58283105
_cell_length_c   20.55164635
_cell_angle_alpha   89.98967827
_cell_angle_beta   100.01746862
_cell_angle_gamma   90.03168652
_symmetry_Int_Tables_number   1
_chemical_formula_structural   K24Na3Li5Mg64Fe17Si79(O5F)48
_chemical_formula_sum   'K24 Na3 Li5 Mg64 Fe17 Si79 O240 F48'
_cell_volume   6048.06555867
_cell_formula_units_Z   1
loop_
 _symmetry_equiv_pos_site_id
 _symmetry_equiv_pos_as_xyz
  1  'x, y, z'
loop_
 _atom_site_type_symbol
 _atom_site_label
 _atom_site_symmetry_multiplicity
 _atom_site_fract_x
 _atom_site_fract_y
 _atom_site_fract_z
 _atom_site_occupancy
  K  K0  1  0.00526600  -0.00725310  -0.00710629  1
  K  K1  1  -0.00791505  0.00039137  0.50876048  1
  K  K2  1  0.00495728  0.50737081  0.00297749  1
  K  K3  1  0.00645099  0.50604280  0.50242283  1
  K  K4  1  0.32554360  0.00146405  0.00102667  1
  K  K5  1  0.34313182  -0.00689393  0.49597890  1
  K  K6  1  0.32858200  0.49298444  0.00110793  1
  K  K7  1  0.33237748  0.50464517  0.49899975  1
  K  K8  1  0.66842972  0.00121741  -0.00019294  1
  K  K9  1  0.66269288  -0.00903775  0.49636617  1
  K  K10  1  0.66710259  0.49803304  -0.00083037  1
  K  K11  1  0.67405669  0.49559173  0.49782315  1
  K  K12  1  0.16575212  0.24445527  -0.00522692  1
  K  K13  1  0.16503787  0.24368476  0.50738223  1
  K  K14  1  0.16958998  0.75319962  0.00307561  1
  K  K15  1  0.17894934  0.74625076  0.50218206  1
  K  K16  1  0.49854474  0.23792584  0.00163757  1
  K  K17  1  0.51147950  0.24614618  0.50156380  1
  K  K18  1  0.50405921  0.75688864  0.00074388  1
  K  K19  1  0.49512008  0.76265178  0.50180951  1
  K  K20  1  0.83404804  0.24712922  0.00160619  1
  K  K21  1  0.82720275  0.24638672  0.50083360  1
  K  K22  1  0.82979135  0.75371767  -0.00456975  1
  K  K23  1  0.83240763  0.75726537  0.50485631  1
  Na  Na24  1  0.16407670  0.00213058  0.75247698  1
  Na  Na25  1  0.66207111  0.07919985  0.25791379  1
  Na  Na26  1  0.49998454  0.16918521  0.75013756  1
  Li  Li27  1  0.50485204  -0.00422959  0.25450058  1
  Li  Li28  1  0.66270775  0.24589741  0.25804528  1
  Li  Li29  1  0.16596940  0.16399682  0.75331947  1
  Li  Li30  1  0.16791124  0.83442935  0.24263140  1
  Li  Li31  1  0.66464764  0.08367220  0.75304108  1
  Mg  Mg32  1  -0.00200151  0.25017057  0.25042310  1
  Mg  Mg33  1  0.50236339  0.49859249  0.25438676  1
  Mg  Mg34  1  0.16675756  0.50269593  0.24485442  1
  Mg  Mg35  1  0.33524417  0.75040806  0.74246411  1
  Mg  Mg36  1  0.33414266  0.24954197  0.25335530  1
  Mg  Mg37  1  0.82875740  0.00072395  0.75160254  1
  Mg  Mg38  1  0.66475733  0.24853331  0.75069820  1
  Mg  Mg39  1  0.16807607  -0.00268585  0.24928505  1
  Mg  Mg40  1  0.49795017  0.50041472  0.74657966  1
  Mg  Mg41  1  0.50255543  0.00395089  0.75154132  1
  Mg  Mg42  1  0.66658997  0.75092726  0.74769513  1
  Mg  Mg43  1  0.33273755  0.75333293  0.24676658  1
  Mg  Mg44  1  0.83295562  -0.00067643  0.24925665  1
  Mg  Mg45  1  0.00163216  0.24843647  0.75583491  1
  Mg  Mg46  1  -0.00037063  0.75148916  0.74675732  1
  Mg  Mg47  1  0.66999698  0.75062356  0.25091230  1
  Mg  Mg48  1  0.16761051  0.49976635  0.74699633  1
  Mg  Mg49  1  0.83485735  0.49823958  0.24797807  1
  Mg  Mg50  1  0.00571335  0.75217682  0.24467527  1
  Mg  Mg51  1  0.32903894  0.24622233  0.75186641  1
  Mg  Mg52  1  0.83427653  0.49898731  0.74876267  1
  Mg  Mg53  1  0.50237927  0.83614268  0.74831195  1
  Mg  Mg54  1  0.00204630  0.91603058  0.24550551  1
  Mg  Mg55  1  0.16606045  0.83499025  0.74649351  1
  Mg  Mg56  1  0.66568911  0.41516062  0.75163178  1
  Mg  Mg57  1  -0.00049805  0.58580774  0.24330674  1
  Mg  Mg58  1  0.83511356  0.66648225  0.24691734  1
  Mg  Mg59  1  0.50114329  0.66645659  0.24970813  1
  Mg  Mg60  1  0.33356560  0.91873400  0.74824970  1
  Mg  Mg61  1  0.00250043  0.58434486  0.74605365  1
  Mg  Mg62  1  0.66623463  0.58413229  0.74717379  1
  Mg  Mg63  1  0.66924131  0.58267758  0.25179061  1
  Mg  Mg64  1  0.33249154  0.58492821  0.74410654  1
  Mg  Mg65  1  0.16525848  0.33218194  0.75119157  1
  Mg  Mg66  1  0.50359642  0.16468016  0.25737215  1
  Mg  Mg67  1  -0.00388927  0.08422151  0.24994565  1
  Mg  Mg68  1  0.83066050  0.16592760  0.75336487  1
  Mg  Mg69  1  0.33149510  0.58566741  0.24585021  1
  Mg  Mg70  1  -0.00293892  0.41597491  0.24749979  1
  Mg  Mg71  1  0.33408607  0.41660047  0.25158146  1
  Mg  Mg72  1  0.49706301  0.33218709  0.74938060  1
  Mg  Mg73  1  0.16551263  0.16542888  0.25078673  1
  Mg  Mg74  1  0.50192635  0.83708805  0.24937573  1
  Mg  Mg75  1  0.66717877  0.91900917  0.75064276  1
  Mg  Mg76  1  0.33441758  0.91615822  0.24944547  1
  Mg  Mg77  1  0.82941336  0.33258879  0.25095864  1
  Mg  Mg78  1  0.50480585  0.33111531  0.25620291  1
  Mg  Mg79  1  0.33016539  0.41366839  0.74790202  1
  Mg  Mg80  1  0.83063174  0.83650813  0.75031963  1
  Mg  Mg81  1  0.83642413  0.33368086  0.75284224  1
  Mg  Mg82  1  0.16915850  0.66527525  0.74418763  1
  Mg  Mg83  1  0.82579625  0.16721706  0.25300494  1
  Mg  Mg84  1  0.33650655  0.08185645  0.25333940  1
  Mg  Mg85  1  0.00346010  0.41473715  0.75156015  1
  Mg  Mg86  1  0.33071174  0.08380550  0.75214979  1
  Mg  Mg87  1  0.16530921  0.66903617  0.24272282  1
  Mg  Mg88  1  -0.00270594  0.91818193  0.75013597  1
  Mg  Mg89  1  0.83480401  0.83572992  0.24749962  1
  Mg  Mg90  1  0.66860800  0.41160405  0.25390308  1
  Mg  Mg91  1  0.83195663  0.66603735  0.74695668  1
  Mg  Mg92  1  0.49944167  0.66606030  0.74540141  1
  Mg  Mg93  1  -0.00103871  0.08489080  0.75119781  1
  Mg  Mg94  1  0.66669274  0.91544026  0.25161738  1
  Mg  Mg95  1  0.16509915  0.33485192  0.24870946  1
  Fe  Fe96  1  0.64583927  0.33256580  0.39542820  1
  Fe  Fe97  1  0.36764017  0.66976300  0.60327580  1
  Fe  Fe98  1  0.85397512  0.41316669  0.10949293  1
  Fe  Fe99  1  0.81002265  0.92262728  0.89301456  1
  Fe  Fe100  1  0.19474388  0.58463055  0.10408539  1
  Fe  Fe101  1  0.63661840  0.83356429  0.88916432  1
  Fe  Fe102  1  0.69169924  0.66150540  0.60809521  1
  Fe  Fe103  1  0.85439211  0.91791357  0.60976528  1
  Fe  Fe104  1  0.86138581  0.92122878  0.10931807  1
  Fe  Fe105  1  0.69177135  0.83179537  0.11085161  1
  Fe  Fe106  1  0.47573999  0.91538265  0.38974770  1
  Fe  Fe107  1  0.14157106  0.08035049  0.89143961  1
  Fe  Fe108  1  0.01815592  0.67101666  0.10338956  1
  Fe  Fe109  1  0.19686188  0.91463613  0.11078668  1
  Fe  Fe110  1  0.97541847  0.33676986  0.89307758  1
  Fe  Fe111  1  0.14575870  0.42161854  0.89029049  1
  Fe  Fe112  1  0.19580984  0.58028039  0.60422480  1
  Si  Si113  1  0.47206072  0.41965214  0.39084384  1
  Si  Si114  1  0.47643009  0.08159132  0.88647211  1
  Si  Si115  1  0.81567767  0.41931810  0.39048117  1
  Si  Si116  1  0.81254702  0.91427811  0.38728381  1
  Si  Si117  1  0.30737715  0.83305652  0.88025639  1
  Si  Si118  1  0.02889383  0.33273148  0.11419487  1
  Si  Si119  1  0.68968622  0.17286921  0.61646673  1
  Si  Si120  1  0.31476816  0.16600321  0.88971381  1
  Si  Si121  1  0.35656778  0.32685648  0.61315782  1
  Si  Si122  1  0.80167950  0.41389625  0.88749657  1
  Si  Si123  1  0.46724048  0.91792865  0.88521967  1
  Si  Si124  1  0.35786577  0.16770340  0.11894647  1
  Si  Si125  1  0.85999743  0.41608801  0.61381914  1
  Si  Si126  1  0.46994945  0.41675455  0.88348010  1
  Si  Si127  1  0.97375996  0.16541132  0.38810707  1
  Si  Si128  1  0.53064252  0.57534826  0.60911941  1
  Si  Si129  1  0.97703302  0.33126496  0.38687485  1
  Si  Si130  1  0.68896544  0.66397290  0.11525296  1
  Si  Si131  1  0.52583706  0.08650479  0.61568941  1
  Si  Si132  1  0.35958660  0.84258419  0.60937226  1
  Si  Si133  1  0.68428038  0.83070359  0.60863163  1
  Si  Si134  1  0.52016306  0.41284886  0.61493753  1
  Si  Si135  1  0.37043888  0.66545482  0.11085698  1
  Si  Si136  1  0.68719261  0.33067508  0.11438624  1
  Si  Si137  1  0.02496037  0.83775315  0.10990014  1
  Si  Si138  1  0.13946755  0.91927536  0.38449338  1
  Si  Si139  1  0.14101642  0.08412700  0.38714352  1
  Si  Si140  1  0.53173801  0.57884333  0.11764232  1
  Si  Si141  1  0.64182620  0.66133521  0.88561516  1
  Si  Si142  1  0.30414566  0.83147656  0.38560507  1
  Si  Si143  1  0.14919784  0.58978658  0.88327074  1
  Si  Si144  1  0.02824360  0.66897612  0.60957543  1
  Si  Si145  1  0.02332080  0.32849858  0.61360088  1
  Si  Si146  1  0.35310310  0.16236105  0.61344354  1
  Si  Si147  1  0.97609637  0.66142004  0.88161697  1
  Si  Si148  1  0.84882750  0.09100217  0.11472449  1
  Si  Si149  1  0.53004503  0.91997955  0.11377548  1
  Si  Si150  1  0.30466451  0.66670673  0.38205330  1
  Si  Si151  1  0.30448756  0.33660402  0.38664806  1
  Si  Si152  1  0.97703164  0.66938192  0.38335468  1
  Si  Si153  1  0.80952692  0.09214593  0.88892884  1
  Si  Si154  1  0.81086560  0.07968886  0.38859963  1
  Si  Si155  1  0.86471193  0.58254259  0.60959071  1
  Si  Si156  1  0.85077075  0.58231918  0.11000707  1
  Si  Si157  1  0.68380316  0.16980837  0.12151210  1
  Si  Si158  1  0.13850005  0.41738176  0.38421586  1
  Si  Si159  1  0.30596681  0.17046284  0.38873936  1
  Si  Si160  1  0.64725571  0.82910194  0.38940583  1
  Si  Si161  1  0.19416707  0.41121774  0.11369100  1
  Si  Si162  1  0.97498990  0.82663724  0.88652359  1
  Si  Si163  1  0.69117946  0.33752978  0.61638902  1
  Si  Si164  1  0.30969847  0.33006498  0.88736200  1
  Si  Si165  1  0.64488619  0.66307357  0.38628366  1
  Si  Si166  1  0.52704291  0.92473096  0.61380378  1
  Si  Si167  1  0.47301396  0.58156776  0.88298891  1
  Si  Si168  1  0.63479260  0.33406916  0.88598618  1
  Si  Si169  1  0.02032860  0.16802195  0.11654533  1
  Si  Si170  1  0.36772080  0.83227235  0.11012516  1
  Si  Si171  1  0.81399052  0.58446842  0.38501898  1
  Si  Si172  1  0.51937786  0.08297795  0.12112889  1
  Si  Si173  1  0.13898124  0.58212982  0.38183285  1
  Si  Si174  1  0.64322944  0.16435952  0.39467176  1
  Si  Si175  1  0.97850981  0.83393063  0.38492820  1
  Si  Si176  1  0.47251877  0.08817451  0.39329731  1
  Si  Si177  1  0.31217238  0.67182468  0.88118738  1
  Si  Si178  1  0.85191349  0.08813269  0.61329140  1
  Si  Si179  1  0.80925263  0.57886720  0.88343462  1
  Si  Si180  1  0.47316057  0.58679319  0.38566019  1
  Si  Si181  1  0.52550088  0.41599957  0.11799704  1
  Si  Si182  1  0.02100107  0.16551352  0.61568227  1
  Si  Si183  1  0.18855606  0.08717351  0.11504634  1
  Si  Si184  1  0.14068798  0.90586537  0.88485976  1
  Si  Si185  1  0.64201607  0.16891041  0.88685486  1
  Si  Si186  1  0.02671979  0.83500258  0.61016555  1
  Si  Si187  1  0.18908880  0.08400708  0.61496035  1
  Si  Si188  1  0.19291632  0.91783592  0.61313007  1
  Si  Si189  1  0.36288043  0.33226303  0.11902164  1
  Si  Si190  1  0.18946983  0.40964244  0.60925580  1
  Si  Si191  1  0.97511553  0.16698306  0.89017584  1
  O  O192  1  0.26795234  0.12889650  0.08849809  1
  O  O193  1  0.26509498  0.12006224  0.57852045  1
  O  O194  1  0.29669152  0.61291731  0.07509867  1
  O  O195  1  0.27953479  0.61342407  0.56098902  1
  O  O196  1  0.60196094  0.11708289  0.09262083  1
  O  O197  1  0.59987298  0.13214685  0.58576555  1
  O  O198  1  0.61929430  0.59815739  0.09120111  1
  O  O199  1  0.61934530  0.58294609  0.58245914  1
  O  O200  1  0.93284563  0.12504147  0.08779799  1
  O  O201  1  0.93297486  0.12392346  0.58336925  1
  O  O202  1  0.93006369  0.60378311  0.07563407  1
  O  O203  1  0.94874614  0.61380174  0.58294102  1
  O  O204  1  0.12016214  0.35032101  0.09122234  1
  O  O205  1  0.10407416  0.35978558  0.58279603  1
  O  O206  1  0.11260253  0.84750663  0.08059092  1
  O  O207  1  0.11297474  0.86438728  0.58331131  1
  O  O208  1  0.44217041  0.36695089  0.08877071  1
  O  O209  1  0.43858138  0.36127814  0.58514680  1
  O  O210  1  0.45180985  0.86443346  0.08420310  1
  O  O211  1  0.43725161  0.88536705  0.58259481  1
  O  O212  1  0.76325337  0.35112306  0.07519356  1
  O  O213  1  0.76933341  0.37521392  0.58573003  1
  O  O214  1  0.78808728  0.84815682  0.07683727  1
  O  O215  1  0.76172103  0.85953896  0.57391701  1
  O  O216  1  0.27959401  0.37946904  0.08854080  1
  O  O217  1  0.26936138  0.36965944  0.58120006  1
  O  O218  1  0.28861636  0.87875900  0.07353269  1
  O  O219  1  0.27489991  0.89206689  0.58095890  1
  O  O220  1  0.60501255  0.38485631  0.08678870  1
  O  O221  1  0.60396031  0.38245185  0.58710462  1
  O  O222  1  0.60822076  0.89997059  0.07727573  1
  O  O223  1  0.60277411  0.88560817  0.58376522  1
  O  O224  1  0.95634739  0.38761809  0.08102122  1
  O  O225  1  0.93594899  0.37415316  0.58392975  1
  O  O226  1  0.96636143  0.90752893  0.08403529  1
  O  O227  1  0.94953089  0.88441984  0.57466949  1
  O  O228  1  0.10294013  0.13679313  0.08911410  1
  O  O229  1  0.10010035  0.12817664  0.58517723  1
  O  O230  1  0.10908935  0.64316645  0.06392220  1
  O  O231  1  0.10390018  0.64237345  0.57341645  1
  O  O232  1  0.43505317  0.13151630  0.08736796  1
  O  O233  1  0.43403525  0.12616773  0.58558190  1
  O  O234  1  0.45904020  0.63665033  0.08726620  1
  O  O235  1  0.46414222  0.63401506  0.57300078  1
  O  O236  1  0.76737102  0.14543821  0.08928321  1
  O  O237  1  0.76885897  0.14009631  0.58484646  1
  O  O238  1  0.77448214  0.64222237  0.08664066  1
  O  O239  1  0.78718809  0.63048889  0.57284166  1
  O  O240  1  0.06378431  0.12401964  0.41774627  1
  O  O241  1  0.04252349  0.10657019  0.92367859  1
  O  O242  1  0.06436778  0.62434457  0.41282532  1
  O  O243  1  0.06184813  0.61519033  0.90942917  1
  O  O244  1  0.39667453  0.13567792  0.42223127  1
  O  O245  1  0.40152415  0.11928255  0.92014046  1
  O  O246  1  0.39771098  0.63117080  0.41298762  1
  O  O247  1  0.39280219  0.61866795  0.91111103  1
  O  O248  1  0.73020463  0.11362401  0.41747333  1
  O  O249  1  0.72713837  0.12474185  0.91971297  1
  O  O250  1  0.73097165  0.61542357  0.41351286  1
  O  O251  1  0.72708783  0.61102463  0.91125984  1
  O  O252  1  0.22864986  0.37891498  0.41519060  1
  O  O253  1  0.23411166  0.35590904  0.92397731  1
  O  O254  1  0.22527479  0.87376704  0.41272776  1
  O  O255  1  0.22091553  0.84952352  0.90874152  1
  O  O256  1  0.55586025  0.38046780  0.42850114  1
  O  O257  1  0.55365824  0.36895954  0.91410835  1
  O  O258  1  0.57706251  0.86538754  0.42600561  1
  O  O259  1  0.53627964  0.86084671  0.91929331  1
  O  O260  1  0.90482484  0.37496150  0.41783260  1
  O  O261  1  0.87201098  0.35893212  0.92229864  1
  O  O262  1  0.90093699  0.87076428  0.41614838  1
  O  O263  1  0.90073278  0.85814657  0.92119642  1
  O  O264  1  0.06720043  0.37200578  0.41589674  1
  O  O265  1  0.05279801  0.40564515  0.92923150  1
  O  O266  1  0.06327154  0.88025798  0.41648640  1
  O  O267  1  0.06288546  0.86976961  0.91657157  1
  O  O268  1  0.39042286  0.38081334  0.41694848  1
  O  O269  1  0.39161469  0.38368915  0.91446933  1
  O  O270  1  0.38983874  0.86648747  0.42613196  1
  O  O271  1  0.37728192  0.89415376  0.90932536  1
  O  O272  1  0.74450330  0.38774332  0.42885849  1
  O  O273  1  0.71260083  0.38966740  0.91259745  1
  O  O274  1  0.73849262  0.87073259  0.41686583  1
  O  O275  1  0.71840515  0.89501912  0.92997929  1
  O  O276  1  0.22820374  0.12928199  0.41729185  1
  O  O277  1  0.23954522  0.13742998  0.92594691  1
  O  O278  1  0.23163806  0.61821695  0.40964465  1
  O  O279  1  0.22535018  0.64994543  0.90837839  1
  O  O280  1  0.56400449  0.12633756  0.42500989  1
  O  O281  1  0.56234569  0.12975666  0.91480113  1
  O  O282  1  0.56530125  0.62463073  0.41466960  1
  O  O283  1  0.56191057  0.62150939  0.91399380  1
  O  O284  1  0.89835962  0.12597405  0.42046655  1
  O  O285  1  0.88326585  0.15277766  0.91457062  1
  O  O286  1  0.89787158  0.63348114  0.41433658  1
  O  O287  1  0.89622128  0.62453323  0.91075623  1
  O  O288  1  0.17439299  0.01057491  0.07881447  1
  O  O289  1  0.17108593  0.00081939  0.58564966  1
  O  O290  1  0.17093266  0.48674169  0.07764321  1
  O  O291  1  0.17076981  0.48520459  0.57124713  1
  O  O292  1  0.49983785  0.00264590  0.08879326  1
  O  O293  1  0.52014126  0.00604921  0.58111556  1
  O  O294  1  0.50398883  0.49785455  0.08855745  1
  O  O295  1  0.49473493  0.49278023  0.58525459  1
  O  O296  1  0.82392337  0.01475762  0.08057533  1
  O  O297  1  0.83279340  0.01198520  0.57590258  1
  O  O298  1  0.81295170  0.50472199  0.08222060  1
  O  O299  1  0.85406268  0.49761043  0.58243544  1
  O  O300  1  0.00451458  0.25024156  0.08817289  1
  O  O301  1  0.00968368  0.24712176  0.58208671  1
  O  O302  1  -0.02082628  0.76356921  0.07881035  1
  O  O303  1  0.00494181  0.75178618  0.58296639  1
  O  O304  1  0.34956996  0.25063910  0.08948007  1
  O  O305  1  0.34447459  0.24517810  0.58210996  1
  O  O306  1  0.35835853  0.74803877  0.08215900  1
  O  O307  1  0.34689339  0.76587564  0.57253364  1
  O  O308  1  0.65352413  0.24936632  0.08943377  1
  O  O309  1  0.67776301  0.25606481  0.58609570  1
  O  O310  1  0.64938264  0.73782548  0.08379442  1
  O  O311  1  0.65366255  0.75246960  0.57683994  1
  O  O312  1  0.15140809  0.00192710  0.41704954  1
  O  O313  1  0.16626977  -0.01701924  0.91838479  1
  O  O314  1  0.14087399  0.49987745  0.41312798  1
  O  O315  1  0.18451373  0.51564983  0.91753544  1
  O  O316  1  0.47357346  0.00924177  0.42618919  1
  O  O317  1  0.49033646  -0.00065741  0.91664852  1
  O  O318  1  0.47263240  0.50488030  0.41596436  1
  O  O319  1  0.48344741  0.49914263  0.91309385  1
  O  O320  1  0.82379400  -0.00330332  0.41858179  1
  O  O321  1  0.83822402  0.01669521  0.92474087  1
  O  O322  1  0.83544172  0.50379471  0.41597300  1
  O  O323  1  0.82231339  0.49731992  0.91420391  1
  O  O324  1  0.30705901  0.25435188  0.41658227  1
  O  O325  1  0.34084431  0.24954336  0.91507155  1
  O  O326  1  0.29907724  0.74693931  0.41302933  1
  O  O327  1  0.34014370  0.75277913  0.90927196  1
  O  O328  1  0.66292291  0.24013608  0.43450456  1
  O  O329  1  0.64939291  0.25297395  0.91818530  1
  O  O330  1  0.66216187  0.74404800  0.41650059  1
  O  O331  1  0.65842409  0.73767527  0.92131399  1
  O  O332  1  0.98399791  0.24870619  0.41755883  1
  O  O333  1  1.00998787  0.24409221  0.92157267  1
  O  O334  1  0.99056068  0.75095299  0.41447534  1
  O  O335  1  0.99142800  0.74205242  0.91199209  1
  O  O336  1  0.20818895  0.08644575  0.19638560  1
  O  O337  1  0.21481173  0.08823636  0.69277604  1
  O  O338  1  0.21263348  0.58300130  0.19716580  1
  O  O339  1  0.21228320  0.58180060  0.69669919  1
  O  O340  1  0.53075560  0.08471215  0.19957165  1
  O  O341  1  0.54414750  0.07969057  0.69376075  1
  O  O342  1  0.54573949  0.57989563  0.19834533  1
  O  O343  1  0.54307362  0.57960244  0.69104059  1
  O  O344  1  0.87316614  0.08835416  0.19589048  1
  O  O345  1  0.87143155  0.08661929  0.69388406  1
  O  O346  1  0.87408083  0.58260763  0.19229583  1
  O  O347  1  0.87739346  0.58244445  0.69059313  1
  O  O348  1  0.04374009  0.33273098  0.19586530  1
  O  O349  1  0.04152705  0.33147353  0.69308214  1
  O  O350  1  0.04141510  0.83490351  0.19168067  1
  O  O351  1  0.04268565  0.83401968  0.69101105  1
  O  O352  1  0.37837116  0.33389599  0.19957283  1
  O  O353  1  0.37407070  0.33143267  0.69320510  1
  O  O354  1  0.37943576  0.83132752  0.19091679  1
  O  O355  1  0.37773744  0.83708872  0.69025900  1
  O  O356  1  0.71166563  0.33837549  0.19405225  1
  O  O357  1  0.71082813  0.33704031  0.69647825  1
  O  O358  1  0.71328664  0.83118539  0.20340183  1
  O  O359  1  0.70792310  0.83105140  0.68965054  1
  O  O360  1  0.21214655  0.41526436  0.19537016  1
  O  O361  1  0.21040641  0.41414680  0.68980582  1
  O  O362  1  0.21504151  0.91949106  0.20148273  1
  O  O363  1  0.21401228  0.91154521  0.69223718  1
  O  O364  1  0.54231034  0.41705136  0.19828551  1
  O  O365  1  0.54056262  0.41518575  0.69542284  1
  O  O366  1  0.54919233  0.91271005  0.19364831  1
  O  O367  1  0.54167763  0.92082556  0.69370540  1
  O  O368  1  0.87706434  0.41383902  0.20196054  1
  O  O369  1  0.87639654  0.41732036  0.69390880  1
  O  O370  1  0.88068928  0.91858048  0.20198577  1
  O  O371  1  0.87700679  0.91614942  0.70060787  1
  O  O372  1  0.04096297  0.16773254  0.19765462  1
  O  O373  1  0.03500137  0.16868720  0.69452971  1
  O  O374  1  0.04393523  0.66613160  0.19617714  1
  O  O375  1  0.04451634  0.66716167  0.69069176  1
  O  O376  1  0.37375215  0.16827467  0.19926962  1
  O  O377  1  0.36523236  0.16644971  0.69231793  1
  O  O378  1  0.38183287  0.66478126  0.19206091  1
  O  O379  1  0.37954310  0.66587628  0.69570698  1
  O  O380  1  0.70955805  0.17269552  0.20004176  1
  O  O381  1  0.71045145  0.17298601  0.69559390  1
  O  O382  1  0.70972986  0.66374829  0.19676585  1
  O  O383  1  0.71166070  0.66490582  0.70012417  1
  O  O384  1  0.12228363  0.08650431  0.30710267  1
  O  O385  1  0.11488098  0.09158223  0.80427323  1
  O  O386  1  0.12094648  0.58052258  0.30223149  1
  O  O387  1  0.12582308  0.58641302  0.80222020  1
  O  O388  1  0.45126080  0.09188952  0.31367609  1
  O  O389  1  0.45351015  0.07885729  0.80740738  1
  O  O390  1  0.45714517  0.58428808  0.30512904  1
  O  O391  1  0.45665022  0.58131474  0.80260407  1
  O  O392  1  0.80174995  0.08157811  0.30980677  1
  O  O393  1  0.79178122  0.08649063  0.80855839  1
  O  O394  1  0.79395545  0.58312464  0.30471970  1
  O  O395  1  0.79187886  0.57970872  0.80293321  1
  O  O396  1  0.28797389  0.33505549  0.30622700  1
  O  O397  1  0.28983261  0.33398237  0.80631387  1
  O  O398  1  0.29549252  0.83165297  0.30612286  1
  O  O399  1  0.29099110  0.83171498  0.79969507  1
  O  O400  1  0.62223350  0.33634938  0.30503366  1
  O  O401  1  0.61946966  0.33407121  0.80549666  1
  O  O402  1  0.62529438  0.82779011  0.30909669  1
  O  O403  1  0.62142575  0.83227605  0.79667472  1
  O  O404  1  0.96023874  0.33180075  0.30696607  1
  O  O405  1  0.95552936  0.33596295  0.80010919  1
  O  O406  1  0.96078861  0.83243468  0.30516119  1
  O  O407  1  0.95721735  0.82883489  0.80538962  1
  O  O408  1  0.12220057  0.41627760  0.30396358  1
  O  O409  1  0.12455614  0.41878724  0.79725812  1
  O  O410  1  0.11773992  0.92358737  0.30559397  1
  O  O411  1  0.11708389  0.90568942  0.80481876  1
  O  O412  1  0.45620002  0.41763506  0.30976957  1
  O  O413  1  0.45454874  0.41757369  0.80304844  1
  O  O414  1  0.45302837  0.91289722  0.29969561  1
  O  O415  1  0.45528479  0.91717363  0.80421433  1
  O  O416  1  0.79301462  0.41722537  0.31000976  1
  O  O417  1  0.78781564  0.41622817  0.80618287  1
  O  O418  1  0.79426047  0.91599757  0.30789093  1
  O  O419  1  0.78648676  0.91646575  0.80104533  1
  O  O420  1  0.28760667  0.16910403  0.30843734  1
  O  O421  1  0.29685444  0.16533835  0.80963755  1
  O  O422  1  0.29170627  0.66648500  0.30215625  1
  O  O423  1  0.29344962  0.66889230  0.80107440  1
  O  O424  1  0.61760127  0.17227847  0.31632034  1
  O  O425  1  0.63006942  0.17304215  0.80854275  1
  O  O426  1  0.62507605  0.66345953  0.30588988  1
  O  O427  1  0.62058307  0.66239686  0.80462553  1
  O  O428  1  0.95756289  0.16684954  0.30809627  1
  O  O429  1  0.95467046  0.16745814  0.80827857  1
  O  O430  1  0.95702544  0.66619224  0.30364397  1
  O  O431  1  0.95660507  0.66354855  0.80078090  1
  F  F432  1  0.04606067  0.00600634  0.20283001  1
  F  F433  1  0.02970355  0.00086150  0.69702868  1
  F  F434  1  0.04503563  0.49754051  0.20024462  1
  F  F435  1  0.04369872  0.50064191  0.69788399  1
  F  F436  1  0.36969205  0.00284302  0.20228829  1
  F  F437  1  0.37956919  0.00163948  0.70004001  1
  F  F438  1  0.38168923  0.49844192  0.20439852  1
  F  F439  1  0.37778421  0.49664522  0.69874306  1
  F  F440  1  0.71611433  -0.00746105  0.20260313  1
  F  F441  1  0.71106007  -0.00024870  0.70026559  1
  F  F442  1  0.71105507  0.49796341  0.20675784  1
  F  F443  1  0.71220673  0.49666383  0.70251134  1
  F  F444  1  0.21247562  0.25033066  0.20486259  1
  F  F445  1  0.21287512  0.25524021  0.70118615  1
  F  F446  1  0.21753202  0.74643423  0.19743450  1
  F  F447  1  0.21225004  0.75023115  0.69704401  1
  F  F448  1  0.53310278  0.24876626  0.20435975  1
  F  F449  1  0.54904235  0.26163812  0.69624272  1
  F  F450  1  0.54779573  0.74792785  0.20462652  1
  F  F451  1  0.54332024  0.74847694  0.69845293  1
  F  F452  1  0.87885969  0.24950690  0.20468757  1
  F  F453  1  0.87652255  0.24958933  0.70305877  1
  F  F454  1  0.88027899  0.74950601  0.20374814  1
  F  F455  1  0.87877605  0.74921009  0.70053055  1
  F  F456  1  0.28572022  0.00569908  0.30432533  1
  F  F457  1  0.29870181  -0.00175537  0.80059118  1
  F  F458  1  0.28868755  0.49928635  0.29881943  1
  F  F459  1  0.29149806  0.49862732  0.79527714  1
  F  F460  1  0.62256843  -0.01600567  0.31009582  1
  F  F461  1  0.61871471  -0.00297511  0.80114001  1
  F  F462  1  0.62319658  0.50033082  0.30239370  1
  F  F463  1  0.61929224  0.49962789  0.79644963  1
  F  F464  1  0.95717654  0.00337707  0.30006013  1
  F  F465  1  0.95267987  0.00164555  0.79925064  1
  F  F466  1  0.95747985  0.50240449  0.29748323  1
  F  F467  1  0.95502370  0.50229972  0.79450170  1
  F  F468  1  0.12137156  0.25113996  0.29946706  1
  F  F469  1  0.12011557  0.25583768  0.80058293  1
  F  F470  1  0.12273440  0.74609141  0.29784426  1
  F  F471  1  0.12201665  0.74793489  0.79185510  1
  F  F472  1  0.45010633  0.25326609  0.30516640  1
  F  F473  1  0.44808134  0.26043834  0.80073670  1
  F  F474  1  0.45485531  0.74776115  0.29660534  1
  F  F475  1  0.45531132  0.75120351  0.79422417  1
  F  F476  1  0.79916011  0.25212903  0.30609865  1
  F  F477  1  0.78593242  0.25376063  0.79850115  1
  F  F478  1  0.79245671  0.74523414  0.30086785  1
  F  F479  1  0.78966244  0.74913460  0.79732202  1
