# generated using pymatgen
data_K24Na3Li5Mg64Fe17Si79(O5F)48
_symmetry_space_group_name_H-M   'P 1'
_cell_length_a   16.09737102
_cell_length_b   18.57794361
_cell_length_c   20.54137468
_cell_angle_alpha   90.00536473
_cell_angle_beta   100.00895728
_cell_angle_gamma   89.97889316
_symmetry_Int_Tables_number   1
_chemical_formula_structural   K24Na3Li5Mg64Fe17Si79(O5F)48
_chemical_formula_sum   'K24 Na3 Li5 Mg64 Fe17 Si79 O240 F48'
_cell_volume   6049.52882734
_cell_formula_units_Z   1
loop_
 _symmetry_equiv_pos_site_id
 _symmetry_equiv_pos_as_xyz
  1  'x, y, z'
loop_
 _atom_site_type_symbol
 _atom_site_label
 _atom_site_symmetry_multiplicity
 _atom_site_fract_x
 _atom_site_fract_y
 _atom_site_fract_z
 _atom_site_occupancy
  K  K0  1  0.01000903  -0.00128414  -0.00209610  1
  K  K1  1  0.00218696  -0.00408742  0.50471512  1
  K  K2  1  -0.00119913  0.49353801  -0.00458000  1
  K  K3  1  -0.00304209  0.49124818  0.50125352  1
  K  K4  1  0.32217458  0.00835003  0.00113777  1
  K  K5  1  0.33582325  0.00854762  0.50321853  1
  K  K6  1  0.32110382  0.49937371  -0.00674276  1
  K  K7  1  0.33347666  0.49923303  0.50988953  1
  K  K8  1  0.66879622  0.00773033  0.00096574  1
  K  K9  1  0.66210763  0.00737636  0.50140537  1
  K  K10  1  0.67350807  0.49581753  -0.00305275  1
  K  K11  1  0.67958784  0.50011261  0.50505436  1
  K  K12  1  0.15847739  0.25243868  -0.00439085  1
  K  K13  1  0.16688234  0.25433415  0.50219313  1
  K  K14  1  0.16978800  0.75075192  -0.00009038  1
  K  K15  1  0.16823818  0.75275666  0.50548846  1
  K  K16  1  0.50105472  0.24933483  -0.00151035  1
  K  K17  1  0.50413954  0.24700958  0.49983026  1
  K  K18  1  0.49240231  0.74750613  -0.00193019  1
  K  K19  1  0.50577824  0.75334069  0.50225733  1
  K  K20  1  0.82743822  0.25430300  0.00259890  1
  K  K21  1  0.83406371  0.24259625  0.50069292  1
  K  K22  1  0.83996442  0.74278317  -0.00359430  1
  K  K23  1  0.83352301  0.74220711  0.49843557  1
  Na  Na24  1  0.33052422  0.25498280  0.74891621  1
  Na  Na25  1  -0.00075450  0.41661859  0.25152283  1
  Na  Na26  1  0.33094369  0.41708792  0.75047991  1
  Li  Li27  1  0.83581859  0.49615019  0.75982126  1
  Li  Li28  1  0.15796544  -0.00203321  0.74280835  1
  Li  Li29  1  0.83605465  0.33924414  0.75461796  1
  Li  Li30  1  0.00551267  0.91944783  0.74610457  1
  Li  Li31  1  0.33021195  0.08430836  0.24945388  1
  Mg  Mg32  1  0.50054914  0.00039052  0.74571361  1
  Mg  Mg33  1  0.33342941  0.75265638  0.74484062  1
  Mg  Mg34  1  0.83343384  -0.00119921  0.24921929  1
  Mg  Mg35  1  0.33333980  0.74954991  0.24371695  1
  Mg  Mg36  1  0.66879297  0.74837684  0.75213482  1
  Mg  Mg37  1  0.16525065  0.49808425  0.24699412  1
  Mg  Mg38  1  0.17042536  0.00111981  0.24817275  1
  Mg  Mg39  1  0.00070329  0.74999867  0.25222704  1
  Mg  Mg40  1  0.49524671  0.00316495  0.24857696  1
  Mg  Mg41  1  0.83769829  -0.00144972  0.74869294  1
  Mg  Mg42  1  0.83290812  0.50044413  0.25590219  1
  Mg  Mg43  1  0.16523931  0.49878783  0.75270912  1
  Mg  Mg44  1  0.49971839  0.49970388  0.74887808  1
  Mg  Mg45  1  0.66580854  0.24727053  0.24820524  1
  Mg  Mg46  1  0.33330532  0.24803379  0.25021956  1
  Mg  Mg47  1  -0.00055099  0.24835339  0.25001360  1
  Mg  Mg48  1  0.66578099  0.75003119  0.25512010  1
  Mg  Mg49  1  0.00179756  0.75364926  0.75222052  1
  Mg  Mg50  1  0.50056643  0.50247825  0.24966673  1
  Mg  Mg51  1  0.67114349  0.25156705  0.75086700  1
  Mg  Mg52  1  -0.00437600  0.24983646  0.75078591  1
  Mg  Mg53  1  0.16350742  0.33460424  0.75300843  1
  Mg  Mg54  1  0.83603842  0.66306356  0.75650744  1
  Mg  Mg55  1  0.33074307  0.58494673  0.74598834  1
  Mg  Mg56  1  0.33355245  0.58500550  0.24623685  1
  Mg  Mg57  1  0.00019195  0.58315549  0.25292322  1
  Mg  Mg58  1  0.50042357  0.66730009  0.25026188  1
  Mg  Mg59  1  0.16448237  0.83936047  0.74640334  1
  Mg  Mg60  1  -0.00091625  0.58321075  0.75798246  1
  Mg  Mg61  1  0.00257372  0.08178451  0.24908010  1
  Mg  Mg62  1  0.00367624  0.91361017  0.25069693  1
  Mg  Mg63  1  0.66554992  0.08558261  0.24872908  1
  Mg  Mg64  1  0.50152319  0.33422046  0.25076432  1
  Mg  Mg65  1  -0.00053625  0.07869972  0.74870269  1
  Mg  Mg66  1  0.16707360  0.16436624  0.24770860  1
  Mg  Mg67  1  -0.00339553  0.41647790  0.75670209  1
  Mg  Mg68  1  0.49804169  0.16524905  0.24903350  1
  Mg  Mg69  1  0.50043151  0.33404199  0.75016061  1
  Mg  Mg70  1  0.16604636  0.66717256  0.74931716  1
  Mg  Mg71  1  0.83478907  0.33316923  0.24991611  1
  Mg  Mg72  1  0.66667782  0.91697367  0.25212192  1
  Mg  Mg73  1  0.32990187  0.91978982  0.74554821  1
  Mg  Mg74  1  0.16392366  0.16607028  0.74868772  1
  Mg  Mg75  1  0.83320055  0.16454232  0.24998988  1
  Mg  Mg76  1  0.16790585  0.83475373  0.24662576  1
  Mg  Mg77  1  0.49821887  0.83570579  0.24831440  1
  Mg  Mg78  1  0.83513157  0.66521796  0.25750587  1
  Mg  Mg79  1  0.32886921  0.08459860  0.74715348  1
  Mg  Mg80  1  0.49888853  0.66585156  0.75005082  1
  Mg  Mg81  1  0.83656022  0.83302244  0.25358470  1
  Mg  Mg82  1  0.16403576  0.33239793  0.24946135  1
  Mg  Mg83  1  0.67300195  0.41752723  0.75350391  1
  Mg  Mg84  1  0.33259201  0.41593000  0.24781671  1
  Mg  Mg85  1  0.83645702  0.83421019  0.74987487  1
  Mg  Mg86  1  0.49886825  0.83547596  0.74473326  1
  Mg  Mg87  1  0.66786097  0.58616683  0.25457347  1
  Mg  Mg88  1  0.67148692  0.58138806  0.75369665  1
  Mg  Mg89  1  0.16624451  0.66440159  0.24624974  1
  Mg  Mg90  1  0.49855628  0.16819948  0.74750641  1
  Mg  Mg91  1  0.66646767  0.91562390  0.74764748  1
  Mg  Mg92  1  0.66705216  0.08432680  0.74575216  1
  Mg  Mg93  1  0.83394085  0.16629655  0.74920799  1
  Mg  Mg94  1  0.33075295  0.91888460  0.24384428  1
  Mg  Mg95  1  0.66932452  0.41566170  0.25294532  1
  Fe  Fe96  1  0.19024346  0.92411480  0.60743121  1
  Fe  Fe97  1  0.18574349  0.41352805  0.60963051  1
  Fe  Fe98  1  0.53280524  0.91567642  0.60753046  1
  Fe  Fe99  1  0.14598444  0.08042455  0.38804333  1
  Fe  Fe100  1  0.81235100  0.58002871  0.89585783  1
  Fe  Fe101  1  0.63884962  0.16466817  0.38925523  1
  Fe  Fe102  1  0.85628906  0.07748821  0.60863631  1
  Fe  Fe103  1  0.35701463  0.66624024  0.60903465  1
  Fe  Fe104  1  0.98086756  0.83383675  0.39182296  1
  Fe  Fe105  1  0.35772156  0.66561977  0.10649996  1
  Fe  Fe106  1  0.18955740  0.92183537  0.10541682  1
  Fe  Fe107  1  0.97736469  0.32647700  0.39159839  1
  Fe  Fe108  1  0.81197344  0.58151149  0.39551688  1
  Fe  Fe109  1  0.63797254  0.67055096  0.39473244  1
  Fe  Fe110  1  0.14147000  0.41601992  0.89608114  1
  Fe  Fe111  1  0.69293439  0.16421950  0.10670377  1
  Fe  Fe112  1  0.01832381  0.33140463  0.10823355  1
  Si  Si113  1  0.46604150  0.08363554  0.38510834  1
  Si  Si114  1  0.35817213  0.17076364  0.11353918  1
  Si  Si115  1  0.85751555  0.90984789  0.11373861  1
  Si  Si116  1  0.30998545  0.66973066  0.88353566  1
  Si  Si117  1  0.46741900  0.91771435  0.38225901  1
  Si  Si118  1  0.85591577  0.58803751  0.11771019  1
  Si  Si119  1  0.52643847  0.91619869  0.11431569  1
  Si  Si120  1  0.69102094  0.17283970  0.61226535  1
  Si  Si121  1  0.97398937  0.16020850  0.88643013  1
  Si  Si122  1  0.98464059  0.66518333  0.39057005  1
  Si  Si123  1  0.69491438  0.33804712  0.61870490  1
  Si  Si124  1  0.47399604  0.41957076  0.38425549  1
  Si  Si125  1  0.18989746  0.09481650  0.61165007  1
  Si  Si126  1  0.47618028  0.41517083  0.88664307  1
  Si  Si127  1  0.30818689  0.33058770  0.89241739  1
  Si  Si128  1  0.80476716  0.08165845  0.88460552  1
  Si  Si129  1  0.63905073  0.33110287  0.88702052  1
  Si  Si130  1  0.69072051  0.33644048  0.11209813  1
  Si  Si131  1  0.14161617  0.08237161  0.88433248  1
  Si  Si132  1  0.36035478  0.83689033  0.10748988  1
  Si  Si133  1  0.85090174  0.42493331  0.11443530  1
  Si  Si134  1  0.18878566  0.09237072  0.10952751  1
  Si  Si135  1  0.97561252  0.15734301  0.38677669  1
  Si  Si136  1  0.02345453  0.82799627  0.11023888  1
  Si  Si137  1  0.51880784  0.08097388  0.10956353  1
  Si  Si138  1  0.35852907  0.83657504  0.60777309  1
  Si  Si139  1  0.36679718  0.33585347  0.61107777  1
  Si  Si140  1  0.19296658  0.41202792  0.11215993  1
  Si  Si141  1  0.47447696  0.91804565  0.88330307  1
  Si  Si142  1  0.02334323  0.66232466  0.11504905  1
  Si  Si143  1  0.86050236  0.41884094  0.62218758  1
  Si  Si144  1  0.01949880  0.16438501  0.11108975  1
  Si  Si145  1  0.14933808  0.41808249  0.38654804  1
  Si  Si146  1  0.52440225  0.08809744  0.61005330  1
  Si  Si147  1  0.52990562  0.41753853  0.61534337  1
  Si  Si148  1  0.69749742  0.66224427  0.61890876  1
  Si  Si149  1  0.69398304  0.66989890  0.11722186  1
  Si  Si150  1  0.14443708  0.59058890  0.88979777  1
  Si  Si151  1  0.02257605  0.16729432  0.61463597  1
  Si  Si152  1  0.01744968  0.33030068  0.61577943  1
  Si  Si153  1  0.80920860  0.07986613  0.38521761  1
  Si  Si154  1  0.86309109  0.07508647  0.11056547  1
  Si  Si155  1  0.02510186  0.83096912  0.61377407  1
  Si  Si156  1  0.97976348  0.67389539  0.89249633  1
  Si  Si157  1  0.18351755  0.58315357  0.61127285  1
  Si  Si158  1  0.02308480  0.66819071  0.61794609  1
  Si  Si159  1  0.63821063  0.66717611  0.89040240  1
  Si  Si160  1  0.63979376  0.33638922  0.38717553  1
  Si  Si161  1  0.30987515  0.83521061  0.88356677  1
  Si  Si162  1  0.30518878  0.17264233  0.38497329  1
  Si  Si163  1  0.30904194  0.82620927  0.38093753  1
  Si  Si164  1  0.69975686  0.82611227  0.61382657  1
  Si  Si165  1  0.36313745  0.33600648  0.11448844  1
  Si  Si166  1  0.18784527  0.57823659  0.11038710  1
  Si  Si167  1  0.53149018  0.58327979  0.61492237  1
  Si  Si168  1  0.36027097  0.16973349  0.61290253  1
  Si  Si169  1  0.30684226  0.16422755  0.88581953  1
  Si  Si170  1  0.63895323  0.16500643  0.88319225  1
  Si  Si171  1  0.14323717  0.91699304  0.88296079  1
  Si  Si172  1  0.30394150  0.66356053  0.38172422  1
  Si  Si173  1  0.80658409  0.40913487  0.89179093  1
  Si  Si174  1  0.85824667  0.90925938  0.61375821  1
  Si  Si175  1  0.14456878  0.58103882  0.38431323  1
  Si  Si176  1  0.46793029  0.58385922  0.38650112  1
  Si  Si177  1  0.80826738  0.41082105  0.39039301  1
  Si  Si178  1  0.64009902  0.83362022  0.88579332  1
  Si  Si179  1  0.52744281  0.41941183  0.11550380  1
  Si  Si180  1  0.80639491  0.91620403  0.88549056  1
  Si  Si181  1  0.80797095  0.91690696  0.38647402  1
  Si  Si182  1  0.31164139  0.33525010  0.38439324  1
  Si  Si183  1  0.53143614  0.58449685  0.11240378  1
  Si  Si184  1  0.97128878  0.32586783  0.89040383  1
  Si  Si185  1  0.63984057  0.84310036  0.38775915  1
  Si  Si186  1  0.97619990  0.83887965  0.88582447  1
  Si  Si187  1  0.15179827  0.91497747  0.38645646  1
  Si  Si188  1  0.69036655  0.83342850  0.11640806  1
  Si  Si189  1  0.86437946  0.58286499  0.62148463  1
  Si  Si190  1  0.47302653  0.08268769  0.88304846  1
  Si  Si191  1  0.47296920  0.58165269  0.88617024  1
  O  O192  1  0.26856193  0.13256009  0.08202563  1
  O  O193  1  0.27213944  0.12845026  0.58206509  1
  O  O194  1  0.26175085  0.60913621  0.07404806  1
  O  O195  1  0.26433642  0.60665459  0.57806702  1
  O  O196  1  0.59257587  0.11193891  0.07288711  1
  O  O197  1  0.60014506  0.13332834  0.58373754  1
  O  O198  1  0.61837945  0.61357688  0.08717020  1
  O  O199  1  0.61953050  0.60828515  0.58947536  1
  O  O200  1  0.95116884  0.09861580  0.08542401  1
  O  O201  1  0.95314412  0.11052361  0.57796401  1
  O  O202  1  0.93770172  0.61604339  0.08659508  1
  O  O203  1  0.94361911  0.61452094  0.58890388  1
  O  O204  1  0.11927915  0.35911686  0.07810344  1
  O  O205  1  0.09356207  0.35258809  0.57774262  1
  O  O206  1  0.09455470  0.86238866  0.07294796  1
  O  O207  1  0.10205498  0.85697740  0.57825754  1
  O  O208  1  0.44280457  0.37229502  0.08569976  1
  O  O209  1  0.44944406  0.36851798  0.58034803  1
  O  O210  1  0.45101545  0.86079832  0.08398791  1
  O  O211  1  0.44598279  0.85100654  0.57896517  1
  O  O212  1  0.76631964  0.37768521  0.08210668  1
  O  O213  1  0.77385763  0.37438848  0.58988356  1
  O  O214  1  0.77096817  0.86365933  0.08508238  1
  O  O215  1  0.78957298  0.84358959  0.58950614  1
  O  O216  1  0.28146563  0.38661631  0.08682377  1
  O  O217  1  0.28510428  0.38247016  0.57798779  1
  O  O218  1  0.28951477  0.89493534  0.07559567  1
  O  O219  1  0.29096752  0.89868225  0.57814787  1
  O  O220  1  0.60542303  0.38527967  0.08472757  1
  O  O221  1  0.61202643  0.38670633  0.58625055  1
  O  O222  1  0.61080112  0.88648219  0.08629674  1
  O  O223  1  0.62837318  0.87974318  0.57617994  1
  O  O224  1  0.93016085  0.39921962  0.08171017  1
  O  O225  1  0.93593401  0.38340981  0.58784062  1
  O  O226  1  0.93239291  0.86929777  0.08296541  1
  O  O227  1  0.94372264  0.88321917  0.58656426  1
  O  O228  1  0.10669623  0.14461289  0.08246251  1
  O  O229  1  0.11250745  0.15302015  0.58809944  1
  O  O230  1  0.10025369  0.62478303  0.08444637  1
  O  O231  1  0.10616614  0.64282053  0.58797285  1
  O  O232  1  0.43124035  0.12699085  0.08177903  1
  O  O233  1  0.43728367  0.13277753  0.58089006  1
  O  O234  1  0.45493293  0.63322574  0.07475265  1
  O  O235  1  0.45553550  0.63345294  0.57833314  1
  O  O236  1  0.78420104  0.12199131  0.07272028  1
  O  O237  1  0.76321303  0.13843170  0.57655755  1
  O  O238  1  0.77897442  0.64478874  0.08888691  1
  O  O239  1  0.78100449  0.63242788  0.59151224  1
  O  O240  1  0.04142040  0.09341621  0.41475438  1
  O  O241  1  0.06232715  0.11672356  0.91683408  1
  O  O242  1  0.06037321  0.60397018  0.41328333  1
  O  O243  1  0.07432889  0.64049673  0.91930539  1
  O  O244  1  0.38368571  0.11737216  0.41222732  1
  O  O245  1  0.39599486  0.11968960  0.91466662  1
  O  O246  1  0.37678761  0.60412394  0.40939766  1
  O  O247  1  0.39507440  0.62262129  0.91381843  1
  O  O248  1  0.72865166  0.10129350  0.41828735  1
  O  O249  1  0.72838649  0.12379186  0.91417697  1
  O  O250  1  0.72247548  0.61084167  0.43553950  1
  O  O251  1  0.72294664  0.62936142  0.92861943  1
  O  O252  1  0.23220651  0.36636036  0.41602216  1
  O  O253  1  0.24328870  0.36754316  0.93504137  1
  O  O254  1  0.22514996  0.85132490  0.40932584  1
  O  O255  1  0.23159010  0.87221147  0.91423157  1
  O  O256  1  0.55524087  0.36933264  0.41342744  1
  O  O257  1  0.56460627  0.37273182  0.91908056  1
  O  O258  1  0.55590207  0.87713721  0.41308011  1
  O  O259  1  0.56525027  0.87857053  0.91421932  1
  O  O260  1  0.87512805  0.34926758  0.42131363  1
  O  O261  1  0.88705589  0.35528265  0.91825480  1
  O  O262  1  0.87767836  0.85913636  0.41962459  1
  O  O263  1  0.89848047  0.87999471  0.91584841  1
  O  O264  1  0.06926531  0.39245783  0.41792747  1
  O  O265  1  0.05190167  0.37038820  0.92882441  1
  O  O266  1  0.07023204  0.89731237  0.42060203  1
  O  O267  1  0.06456656  0.88180629  0.91559220  1
  O  O268  1  0.39227480  0.38799361  0.41286551  1
  O  O269  1  0.40185204  0.37199413  0.91619948  1
  O  O270  1  0.39123338  0.87595905  0.41083434  1
  O  O271  1  0.39857372  0.87811906  0.91436097  1
  O  O272  1  0.71560587  0.39368262  0.41343180  1
  O  O273  1  0.72724542  0.36896825  0.92128777  1
  O  O274  1  0.71654372  0.90171889  0.41062230  1
  O  O275  1  0.73204473  0.87185456  0.91589243  1
  O  O276  1  0.22596306  0.15255786  0.42009395  1
  O  O277  1  0.22927722  0.12599526  0.91774738  1
  O  O278  1  0.21993196  0.63946634  0.41153488  1
  O  O279  1  0.23378363  0.63487005  0.91610492  1
  O  O280  1  0.54709758  0.12697587  0.42418567  1
  O  O281  1  0.56274040  0.12389896  0.91332026  1
  O  O282  1  0.53649892  0.64014199  0.42240108  1
  O  O283  1  0.55773172  0.62788917  0.91764115  1
  O  O284  1  0.88506156  0.13703093  0.41147911  1
  O  O285  1  0.89623431  0.11840364  0.91533837  1
  O  O286  1  0.90486902  0.64265278  0.42422728  1
  O  O287  1  0.91187984  0.63355773  0.92925177  1
  O  O288  1  0.17096435  0.01605183  0.07089527  1
  O  O289  1  0.16453646  0.01874135  0.57522666  1
  O  O290  1  0.17008479  0.49464811  0.08494998  1
  O  O291  1  0.14997006  0.50657508  0.57913341  1
  O  O292  1  0.50185010  -0.00354248  0.08329304  1
  O  O293  1  0.51514262  0.01030946  0.57451339  1
  O  O294  1  0.51502428  0.50100061  0.08525047  1
  O  O295  1  0.51347329  0.49999695  0.58702365  1
  O  O296  1  0.84505228  -0.00896154  0.08260224  1
  O  O297  1  0.82577322  -0.01627161  0.57661228  1
  O  O298  1  0.82702626  0.50880446  0.08784591  1
  O  O299  1  0.84559392  0.50144476  0.59134469  1
  O  O300  1  -0.01754769  0.23830718  0.07599134  1
  O  O301  1  -0.01196254  0.24826522  0.59000241  1
  O  O302  1  0.00726193  0.74366961  0.08402831  1
  O  O303  1  -0.00389816  0.74812606  0.58752665  1
  O  O304  1  0.35324223  0.25410372  0.08347893  1
  O  O305  1  0.35330869  0.25191097  0.58262159  1
  O  O306  1  0.33590417  0.75908616  0.07323234  1
  O  O307  1  0.32279313  0.75829375  0.57916521  1
  O  O308  1  0.67540001  0.25946770  0.07492673  1
  O  O309  1  0.67743897  0.25722084  0.58692976  1
  O  O310  1  0.66904132  0.75142916  0.08699209  1
  O  O311  1  0.67510830  0.74280799  0.58824493  1
  O  O312  1  0.19447454  -0.00953677  0.41419240  1
  O  O313  1  0.15542946  -0.00056997  0.91396120  1
  O  O314  1  0.17651981  0.50143890  0.41296292  1
  O  O315  1  0.15167500  0.51339993  0.92643436  1
  O  O316  1  0.47165445  -0.00081574  0.41199740  1
  O  O317  1  0.48376951  0.00034394  0.91348610  1
  O  O318  1  0.49100291  0.50105714  0.41394968  1
  O  O319  1  0.48121395  0.49891035  0.91690564  1
  O  O320  1  0.83967826  -0.00183639  0.41126512  1
  O  O321  1  0.80595383  -0.00115644  0.91505050  1
  O  O322  1  0.84047128  0.48719067  0.42381249  1
  O  O323  1  0.82187293  0.48550213  0.93102871  1
  O  O324  1  0.33772033  0.25452838  0.41271841  1
  O  O325  1  0.32414786  0.24492763  0.91866981  1
  O  O326  1  0.33243612  0.74420846  0.40978211  1
  O  O327  1  0.32451062  0.75251954  0.91339537  1
  O  O328  1  0.66033030  0.25932639  0.42252416  1
  O  O329  1  0.64275508  0.24684940  0.91404094  1
  O  O330  1  0.66216950  0.76714625  0.42426660  1
  O  O331  1  0.63903129  0.75242556  0.91701478  1
  O  O332  1  1.00934725  0.23284621  0.42149178  1
  O  O333  1  0.98205394  0.24106990  0.91814153  1
  O  O334  1  1.02155869  0.74215804  0.41989911  1
  O  O335  1  0.98502610  0.75850857  0.92010550  1
  O  O336  1  0.20724077  0.08571218  0.18921871  1
  O  O337  1  0.21197195  0.09026542  0.69176842  1
  O  O338  1  0.20988197  0.58233520  0.19134951  1
  O  O339  1  0.20560786  0.58511449  0.69309680  1
  O  O340  1  0.53943986  0.08261191  0.19016419  1
  O  O341  1  0.54356205  0.08486217  0.69142743  1
  O  O342  1  0.54397832  0.58416401  0.19327475  1
  O  O343  1  0.54660821  0.58480715  0.69608117  1
  O  O344  1  0.87562804  0.07840208  0.19140134  1
  O  O345  1  0.87488419  0.08217435  0.70007951  1
  O  O346  1  0.87686347  0.58720922  0.19765672  1
  O  O347  1  0.88282162  0.58769602  0.70072258  1
  O  O348  1  0.04832203  0.32486011  0.19741260  1
  O  O349  1  0.03672922  0.33281356  0.69653010  1
  O  O350  1  0.04387828  0.83075380  0.19092078  1
  O  O351  1  0.04472581  0.82928874  0.69402100  1
  O  O352  1  0.37955353  0.33437780  0.19500417  1
  O  O353  1  0.39022662  0.33544489  0.68985201  1
  O  O354  1  0.37692989  0.83411896  0.18916620  1
  O  O355  1  0.37743097  0.83601396  0.69066023  1
  O  O356  1  0.70688974  0.33368765  0.19312830  1
  O  O357  1  0.70770372  0.33486394  0.69817935  1
  O  O358  1  0.70935257  0.83355770  0.19674857  1
  O  O359  1  0.71111208  0.83034397  0.69518913  1
  O  O360  1  0.21144870  0.41454322  0.19318213  1
  O  O361  1  0.19906039  0.41703119  0.69918102  1
  O  O362  1  0.20973458  0.91617954  0.19670241  1
  O  O363  1  0.21258806  0.91762770  0.69789421  1
  O  O364  1  0.54387460  0.41795569  0.19603433  1
  O  O365  1  0.54662438  0.41691078  0.69578750  1
  O  O366  1  0.54438782  0.91714300  0.19473136  1
  O  O367  1  0.54751433  0.91740168  0.69973984  1
  O  O368  1  0.86199161  0.42101382  0.19411547  1
  O  O369  1  0.87946216  0.41836228  0.70105007  1
  O  O370  1  0.87463682  0.91302916  0.19375584  1
  O  O371  1  0.87116965  0.91463728  0.69405315  1
  O  O372  1  0.03923661  0.16492746  0.19190405  1
  O  O373  1  0.03884412  0.16477386  0.69559467  1
  O  O374  1  0.04244062  0.66588976  0.19542310  1
  O  O375  1  0.04194963  0.66760226  0.69876994  1
  O  O376  1  0.37882934  0.17177290  0.19310670  1
  O  O377  1  0.38153689  0.16227267  0.69236423  1
  O  O378  1  0.37968880  0.66598726  0.19851025  1
  O  O379  1  0.37960190  0.66834151  0.70108867  1
  O  O380  1  0.71209829  0.16430561  0.19775847  1
  O  O381  1  0.70923697  0.16762563  0.69325927  1
  O  O382  1  0.71052379  0.67054583  0.19710923  1
  O  O383  1  0.71206466  0.66619700  0.69925828  1
  O  O384  1  0.12324049  0.08209176  0.29587660  1
  O  O385  1  0.12130753  0.08598132  0.80527830  1
  O  O386  1  0.12646942  0.58293686  0.30351609  1
  O  O387  1  0.12417431  0.58822649  0.80905863  1
  O  O388  1  0.45813380  0.08449545  0.30494058  1
  O  O389  1  0.45824968  0.08394507  0.80310715  1
  O  O390  1  0.45588909  0.58274622  0.30529766  1
  O  O391  1  0.45855528  0.58227205  0.80633109  1
  O  O392  1  0.78976434  0.07982788  0.30374308  1
  O  O393  1  0.78629901  0.08100299  0.80480849  1
  O  O394  1  0.78694747  0.58440296  0.30271180  1
  O  O395  1  0.78840306  0.58554141  0.80598268  1
  O  O396  1  0.29319705  0.33486032  0.30368242  1
  O  O397  1  0.27863493  0.33326871  0.81459640  1
  O  O398  1  0.29246871  0.82913615  0.30033430  1
  O  O399  1  0.29358173  0.83458003  0.80374192  1
  O  O400  1  0.62187473  0.33371729  0.30559391  1
  O  O401  1  0.62412986  0.33315914  0.80704588  1
  O  O402  1  0.62138406  0.83687216  0.30623853  1
  O  O403  1  0.62515505  0.83311216  0.80577161  1
  O  O404  1  0.94983557  0.32318195  0.30173572  1
  O  O405  1  0.95962878  0.32946058  0.81073350  1
  O  O406  1  0.95774239  0.83297659  0.29925631  1
  O  O407  1  0.95508161  0.83325958  0.80672146  1
  O  O408  1  0.13782971  0.41776277  0.30655935  1
  O  O409  1  0.11889269  0.41732298  0.80543651  1
  O  O410  1  0.12630455  0.91346139  0.30474473  1
  O  O411  1  0.12457995  0.91414413  0.80464357  1
  O  O412  1  0.45634885  0.41841430  0.30340405  1
  O  O413  1  0.46720749  0.41742910  0.80771701  1
  O  O414  1  0.45346639  0.91689464  0.30160574  1
  O  O415  1  0.45760728  0.91700727  0.80342231  1
  O  O416  1  0.78931827  0.41406577  0.30830522  1
  O  O417  1  0.78554778  0.41521320  0.81279403  1
  O  O418  1  0.79004018  0.91570155  0.30466767  1
  O  O419  1  0.78819052  0.91541403  0.80539033  1
  O  O420  1  0.28717648  0.17204252  0.30465869  1
  O  O421  1  0.28588240  0.16034862  0.80685422  1
  O  O422  1  0.28679223  0.66511400  0.30111991  1
  O  O423  1  0.29022949  0.67035423  0.80370443  1
  O  O424  1  0.61791119  0.16649809  0.29743463  1
  O  O425  1  0.62295784  0.16420418  0.80318898  1
  O  O426  1  0.61958461  0.66801386  0.30148192  1
  O  O427  1  0.62287854  0.66688069  0.80947334  1
  O  O428  1  0.95592254  0.16080243  0.30453331  1
  O  O429  1  0.95594343  0.16281245  0.80671059  1
  O  O430  1  0.96144651  0.66700260  0.30848782  1
  O  O431  1  0.95930947  0.67076725  0.81178818  1
  F  F432  1  0.04421218  -0.00528908  0.19921138  1
  F  F433  1  0.03983580  0.00115801  0.69906789  1
  F  F434  1  0.04866647  0.51003809  0.19886456  1
  F  F435  1  0.04205179  0.50379764  0.70746410  1
  F  F436  1  0.38160709  -0.00262187  0.19611607  1
  F  F437  1  0.38108848  0.00210629  0.69966353  1
  F  F438  1  0.38035056  0.49961737  0.19942097  1
  F  F439  1  0.38469464  0.50991388  0.69830910  1
  F  F440  1  0.71082560  -0.00209675  0.20094679  1
  F  F441  1  0.71211161  -0.00084918  0.70186790  1
  F  F442  1  0.70835274  0.50015740  0.20465104  1
  F  F443  1  0.70595056  0.49947023  0.70223021  1
  F  F444  1  0.21468820  0.25109538  0.20077504  1
  F  F445  1  0.19671533  0.25147542  0.70101518  1
  F  F446  1  0.21093027  0.74805866  0.19699545  1
  F  F447  1  0.21107380  0.75095608  0.70238889  1
  F  F448  1  0.54255260  0.25308244  0.19900821  1
  F  F449  1  0.55010827  0.25006563  0.70204134  1
  F  F450  1  0.54596038  0.75348714  0.20120645  1
  F  F451  1  0.54854051  0.74879153  0.70426118  1
  F  F452  1  0.87430111  0.24590143  0.19916386  1
  F  F453  1  0.87684947  0.24739925  0.70410264  1
  F  F454  1  0.87696624  0.74705135  0.20368351  1
  F  F455  1  0.87915352  0.74777523  0.70699420  1
  F  F456  1  0.29065630  -0.00123138  0.29474054  1
  F  F457  1  0.30211528  0.00144140  0.80128922  1
  F  F458  1  0.28956744  0.50091085  0.29318630  1
  F  F459  1  0.28444392  0.51425467  0.80243033  1
  F  F460  1  0.61807920  0.00122137  0.29491065  1
  F  F461  1  0.62269366  0.00254596  0.79798426  1
  F  F462  1  0.61894419  0.49984934  0.29872907  1
  F  F463  1  0.62003524  0.50065222  0.80071859  1
  F  F464  1  0.95399871  -0.00290056  0.29371381  1
  F  F465  1  0.95186493  0.00149583  0.80401947  1
  F  F466  1  0.95075499  0.50929653  0.30246676  1
  F  F467  1  0.96075569  0.50161257  0.80850105  1
  F  F468  1  0.12394426  0.24677164  0.29747557  1
  F  F469  1  0.11622933  0.24699093  0.80042836  1
  F  F470  1  0.12433712  0.74902977  0.29350089  1
  F  F471  1  0.12398578  0.75182093  0.79915911  1
  F  F472  1  0.45525583  0.25164094  0.29758713  1
  F  F473  1  0.46922716  0.24947162  0.80262165  1
  F  F474  1  0.45381314  0.75344427  0.29611963  1
  F  F475  1  0.45686571  0.75455837  0.79820098  1
  F  F476  1  0.78526211  0.24945245  0.29604162  1
  F  F477  1  0.78379577  0.23934199  0.80384996  1
  F  F478  1  0.78775878  0.75151992  0.30045172  1
  F  F479  1  0.78858972  0.75213879  0.80181473  1
