# generated using pymatgen
data_K24Na3Li5Mg64Fe17Si79(O5F)48
_symmetry_space_group_name_H-M   'P 1'
_cell_length_a   16.09086716
_cell_length_b   18.58554031
_cell_length_c   20.56411368
_cell_angle_alpha   89.99369596
_cell_angle_beta   100.00939116
_cell_angle_gamma   90.00505905
_symmetry_Int_Tables_number   1
_chemical_formula_structural   K24Na3Li5Mg64Fe17Si79(O5F)48
_chemical_formula_sum   'K24 Na3 Li5 Mg64 Fe17 Si79 O240 F48'
_cell_volume   6056.24637187
_cell_formula_units_Z   1
loop_
 _symmetry_equiv_pos_site_id
 _symmetry_equiv_pos_as_xyz
  1  'x, y, z'
loop_
 _atom_site_type_symbol
 _atom_site_label
 _atom_site_symmetry_multiplicity
 _atom_site_fract_x
 _atom_site_fract_y
 _atom_site_fract_z
 _atom_site_occupancy
  K  K0  1  0.00947434  -0.01222821  -0.00834387  1
  K  K1  1  0.00069899  -0.00261660  0.50410181  1
  K  K2  1  0.01390891  0.51097922  -0.00567413  1
  K  K3  1  0.00443673  0.50654578  0.50444539  1
  K  K4  1  0.32171077  -0.01043293  -0.00976889  1
  K  K5  1  0.33396268  -0.00788316  0.49508277  1
  K  K6  1  0.32522001  0.50859173  -0.00552172  1
  K  K7  1  0.32252138  0.50602752  0.50371989  1
  K  K8  1  0.66561130  -0.00727599  -0.00201591  1
  K  K9  1  0.66830809  -0.00555705  0.49886974  1
  K  K10  1  0.67091641  0.51118725  -0.00381219  1
  K  K11  1  0.66326630  0.50583382  0.50478929  1
  K  K12  1  0.16790806  0.24716243  -0.00626623  1
  K  K13  1  0.17256828  0.25346193  0.50512089  1
  K  K14  1  0.17778011  0.75958468  -0.00447298  1
  K  K15  1  0.17678030  0.75019434  0.50232620  1
  K  K16  1  0.49918874  0.24939388  0.00013180  1
  K  K17  1  0.50098320  0.25360839  0.49986949  1
  K  K18  1  0.48651278  0.74942984  -0.00485962  1
  K  K19  1  0.49294230  0.74792948  0.50079580  1
  K  K20  1  0.83330567  0.25154355  -0.00397284  1
  K  K21  1  0.83504897  0.25034952  0.50317846  1
  K  K22  1  0.83915025  0.74995786  -0.00700572  1
  K  K23  1  0.83384560  0.74783801  0.50483825  1
  Na  Na24  1  0.16673198  -0.00107485  0.24898197  1
  Na  Na25  1  0.83637763  0.82790174  0.74543979  1
  Na  Na26  1  0.66382098  0.58094255  0.75332373  1
  Li  Li27  1  0.83479603  -0.00120566  0.25039137  1
  Li  Li28  1  -0.00335788  0.75172960  0.74591909  1
  Li  Li29  1  0.49744785  0.82905498  0.74560999  1
  Li  Li30  1  0.17439138  0.66709896  0.25145276  1
  Li  Li31  1  0.32766151  0.58877294  0.25162967  1
  Mg  Mg32  1  0.49704857  0.50178456  0.25110842  1
  Mg  Mg33  1  0.33056324  0.25074023  0.75291597  1
  Mg  Mg34  1  0.49708745  0.49939633  0.75446598  1
  Mg  Mg35  1  0.83509757  -0.00251504  0.74757616  1
  Mg  Mg36  1  0.33605500  0.75112676  0.74911675  1
  Mg  Mg37  1  0.66454635  0.24870776  0.75026619  1
  Mg  Mg38  1  0.66497317  0.74913703  0.25283342  1
  Mg  Mg39  1  0.00024918  0.24967213  0.25121448  1
  Mg  Mg40  1  0.16672369  -0.00146026  0.74999372  1
  Mg  Mg41  1  0.16480129  0.50024042  0.75241098  1
  Mg  Mg42  1  -0.00106160  0.25323218  0.75118285  1
  Mg  Mg43  1  0.50002764  -0.00566570  0.74715671  1
  Mg  Mg44  1  0.83098510  0.49905301  0.74801451  1
  Mg  Mg45  1  0.83337913  0.50277740  0.25247688  1
  Mg  Mg46  1  0.33011295  0.74885612  0.24699047  1
  Mg  Mg47  1  0.00326282  0.75007114  0.25030625  1
  Mg  Mg48  1  0.33356982  0.24939169  0.24966589  1
  Mg  Mg49  1  0.66478621  0.74929903  0.75018350  1
  Mg  Mg50  1  0.16874675  0.50337521  0.25467664  1
  Mg  Mg51  1  0.66800394  0.24930843  0.25215109  1
  Mg  Mg52  1  0.50074662  0.00002211  0.24823209  1
  Mg  Mg53  1  0.66931888  0.91774673  0.24773257  1
  Mg  Mg54  1  -0.00191659  0.08107995  0.24831073  1
  Mg  Mg55  1  0.66735871  0.58565661  0.25391233  1
  Mg  Mg56  1  0.49961028  0.66620066  0.75213225  1
  Mg  Mg57  1  0.49682609  0.33387439  0.75248830  1
  Mg  Mg58  1  -0.00096473  0.41784976  0.75011192  1
  Mg  Mg59  1  0.49911260  0.83405154  0.24890636  1
  Mg  Mg60  1  0.50389715  0.16625169  0.25051317  1
  Mg  Mg61  1  -0.00369820  0.58729150  0.74986779  1
  Mg  Mg62  1  0.83430118  0.66641045  0.25332666  1
  Mg  Mg63  1  0.16873364  0.83162976  0.24807806  1
  Mg  Mg64  1  0.67072684  0.08355619  0.25112821  1
  Mg  Mg65  1  0.66704512  0.91287580  0.74561224  1
  Mg  Mg66  1  0.83421119  0.83531615  0.24869206  1
  Mg  Mg67  1  0.66832582  0.41696911  0.25196535  1
  Mg  Mg68  1  0.83554494  0.33427158  0.25202521  1
  Mg  Mg69  1  0.00431509  0.58668520  0.25236305  1
  Mg  Mg70  1  0.49804447  0.16317868  0.75090803  1
  Mg  Mg71  1  0.83174988  0.16601433  0.74878776  1
  Mg  Mg72  1  0.83168390  0.33561908  0.75012469  1
  Mg  Mg73  1  0.00306301  0.41763609  0.25285586  1
  Mg  Mg74  1  -0.00079716  0.91816432  0.24826051  1
  Mg  Mg75  1  -0.00047922  0.08355007  0.75195804  1
  Mg  Mg76  1  0.33333521  0.41807384  0.25100736  1
  Mg  Mg77  1  0.33180108  0.08382022  0.75062028  1
  Mg  Mg78  1  0.33360954  0.58451194  0.75125680  1
  Mg  Mg79  1  0.16790422  0.16684091  0.75412125  1
  Mg  Mg80  1  0.66563929  0.08099556  0.74834462  1
  Mg  Mg81  1  0.83451914  0.16315025  0.25124909  1
  Mg  Mg82  1  0.33456485  0.91407169  0.74795745  1
  Mg  Mg83  1  0.16589686  0.16600609  0.24822866  1
  Mg  Mg84  1  0.83101996  0.66648865  0.74897196  1
  Mg  Mg85  1  0.16510750  0.83534639  0.74663453  1
  Mg  Mg86  1  0.50132691  0.33448575  0.25125387  1
  Mg  Mg87  1  0.00129141  0.91105995  0.74741899  1
  Mg  Mg88  1  0.66374623  0.41453127  0.75090946  1
  Mg  Mg89  1  0.16387078  0.66945070  0.75076104  1
  Mg  Mg90  1  0.33166190  0.41599775  0.75498432  1
  Mg  Mg91  1  0.16782566  0.33704432  0.75372982  1
  Mg  Mg92  1  0.16785607  0.33620586  0.25272060  1
  Mg  Mg93  1  0.49700792  0.66496477  0.25135340  1
  Mg  Mg94  1  0.33267655  0.91373056  0.24795554  1
  Mg  Mg95  1  0.33379984  0.08242237  0.24816535  1
  Fe  Fe96  1  0.19418418  0.41343916  0.61226016  1
  Fe  Fe97  1  0.35763671  0.83247771  0.10633898  1
  Fe  Fe98  1  0.31390080  0.16181423  0.89284694  1
  Fe  Fe99  1  0.36557751  0.83271903  0.60893321  1
  Fe  Fe100  1  0.13527686  0.42047315  0.89407009  1
  Fe  Fe101  1  0.64549438  0.16787027  0.39115460  1
  Fe  Fe102  1  0.47942313  0.41903071  0.89424364  1
  Fe  Fe103  1  0.86036777  0.91628115  0.60713132  1
  Fe  Fe104  1  0.19304802  0.92046992  0.60678177  1
  Fe  Fe105  1  0.30876036  0.83270855  0.38922851  1
  Fe  Fe106  1  0.14143721  0.41743781  0.39245274  1
  Fe  Fe107  1  0.30996918  0.33464304  0.89741948  1
  Fe  Fe108  1  0.85772901  0.41881856  0.61009631  1
  Fe  Fe109  1  0.13825963  0.91274005  0.88934305  1
  Fe  Fe110  1  0.63479494  0.66565960  0.39278683  1
  Fe  Fe111  1  0.81276583  0.58264765  0.39315295  1
  Fe  Fe112  1  0.48273630  0.59003941  0.89392695  1
  Si  Si113  1  0.69152831  0.66718732  0.11439975  1
  Si  Si114  1  0.97127696  0.82983744  0.88736714  1
  Si  Si115  1  0.35792648  0.66083839  0.11236741  1
  Si  Si116  1  0.18494164  0.58429185  0.61481866  1
  Si  Si117  1  0.13490489  0.08640978  0.89065425  1
  Si  Si118  1  0.85081719  0.58808867  0.61248246  1
  Si  Si119  1  0.02376446  0.16755965  0.11256579  1
  Si  Si120  1  0.63894864  0.32506345  0.88783345  1
  Si  Si121  1  0.81217957  0.07980781  0.38663071  1
  Si  Si122  1  0.86008328  0.08225820  0.11357612  1
  Si  Si123  1  0.46507371  0.58004791  0.38639311  1
  Si  Si124  1  0.68818050  0.16734036  0.61519429  1
  Si  Si125  1  0.35983848  0.16670798  0.11344032  1
  Si  Si126  1  0.19227955  0.08736457  0.11278141  1
  Si  Si127  1  0.52660787  0.58016529  0.11516325  1
  Si  Si128  1  0.31517548  0.83534365  0.88547103  1
  Si  Si129  1  0.02096522  0.66772109  0.61653623  1
  Si  Si130  1  0.18640734  0.09036014  0.61295174  1
  Si  Si131  1  0.96494613  0.33542609  0.88980702  1
  Si  Si132  1  0.85974942  0.58548282  0.11448910  1
  Si  Si133  1  0.64275710  0.16124082  0.88495145  1
  Si  Si134  1  0.35961874  0.16562913  0.61417105  1
  Si  Si135  1  0.52436298  0.08095981  0.61299567  1
  Si  Si136  1  0.52807448  0.41440795  0.11604865  1
  Si  Si137  1  0.14131386  0.58794205  0.38775168  1
  Si  Si138  1  0.80824761  0.92022706  0.88375044  1
  Si  Si139  1  0.48035468  0.07517809  0.88730696  1
  Si  Si140  1  0.02059909  0.16931960  0.61784842  1
  Si  Si141  1  0.80975809  0.91623094  0.38127810  1
  Si  Si142  1  0.80759682  0.08192445  0.88430466  1
  Si  Si143  1  0.02928168  0.83175436  0.60726827  1
  Si  Si144  1  0.53418833  0.91725277  0.60985541  1
  Si  Si145  1  0.69068121  0.83025086  0.61105214  1
  Si  Si146  1  0.13873869  0.08495215  0.38280715  1
  Si  Si147  1  0.64462513  0.83847262  0.38550337  1
  Si  Si148  1  0.97572551  0.16449039  0.38546400  1
  Si  Si149  1  0.52108942  0.57963830  0.61584356  1
  Si  Si150  1  0.64599433  0.33886597  0.38776282  1
  Si  Si151  1  0.02433309  0.33332174  0.11453147  1
  Si  Si152  1  0.30702358  0.66550494  0.38329416  1
  Si  Si153  1  0.02549398  0.33148921  0.61328366  1
  Si  Si154  1  0.47875697  0.92178099  0.38462658  1
  Si  Si155  1  0.96766130  0.66482892  0.88572507  1
  Si  Si156  1  0.13527371  0.91701258  0.38399689  1
  Si  Si157  1  0.19196757  0.41521678  0.11530147  1
  Si  Si158  1  0.48387776  0.91231193  0.88235185  1
  Si  Si159  1  0.35495498  0.66177599  0.61192245  1
  Si  Si160  1  0.02457901  0.83336247  0.11235464  1
  Si  Si161  1  0.69623440  0.16750408  0.11357376  1
  Si  Si162  1  0.85432919  0.08620837  0.61250183  1
  Si  Si163  1  0.35941284  0.33371038  0.11557197  1
  Si  Si164  1  0.18913023  0.91875695  0.11018690  1
  Si  Si165  1  0.80856905  0.57977077  0.88604390  1
  Si  Si166  1  0.69530209  0.33338287  0.11541569  1
  Si  Si167  1  0.97405988  0.83693624  0.38288072  1
  Si  Si168  1  0.53020893  0.91984375  0.11023672  1
  Si  Si169  1  0.30713038  0.66973743  0.88587737  1
  Si  Si170  1  0.79790961  0.41443535  0.88691382  1
  Si  Si171  1  0.31177375  0.32731441  0.38715546  1
  Si  Si172  1  0.64823239  0.67476848  0.89010942  1
  Si  Si173  1  0.96789711  0.16993803  0.88574689  1
  Si  Si174  1  0.86031098  0.91533402  0.11319482  1
  Si  Si175  1  0.52856859  0.08625014  0.11331712  1
  Si  Si176  1  0.02565587  0.66684933  0.11446786  1
  Si  Si177  1  0.30664984  0.16237380  0.38333649  1
  Si  Si178  1  0.47506708  0.41458892  0.38598010  1
  Si  Si179  1  0.65003154  0.83521391  0.88417397  1
  Si  Si180  1  0.86025484  0.41891766  0.11558427  1
  Si  Si181  1  0.13965375  0.59302388  0.88824158  1
  Si  Si182  1  0.47321746  0.08593754  0.38453597  1
  Si  Si183  1  0.69465862  0.83305182  0.11311763  1
  Si  Si184  1  0.36544535  0.33105549  0.61250039  1
  Si  Si185  1  0.81200413  0.41497482  0.38561400  1
  Si  Si186  1  0.19040703  0.58036470  0.11748439  1
  Si  Si187  1  0.97821678  0.67371876  0.38791404  1
  Si  Si188  1  0.69080587  0.33043744  0.61410814  1
  Si  Si189  1  0.68474831  0.66941102  0.61533214  1
  Si  Si190  1  0.96980790  0.32955563  0.38710367  1
  Si  Si191  1  0.52905459  0.41492337  0.61551739  1
  O  O192  1  0.27145019  0.12455417  0.08242744  1
  O  O193  1  0.26886656  0.12693604  0.58524519  1
  O  O194  1  0.26919957  0.61486922  0.08643376  1
  O  O195  1  0.26778226  0.61503107  0.58558059  1
  O  O196  1  0.60370138  0.13138633  0.08454836  1
  O  O197  1  0.60573501  0.11726073  0.58551795  1
  O  O198  1  0.60316946  0.62360395  0.08658469  1
  O  O199  1  0.60221093  0.61653284  0.58849467  1
  O  O200  1  0.93640265  0.12309353  0.08222542  1
  O  O201  1  0.93965675  0.11791082  0.58687878  1
  O  O202  1  0.93478623  0.62572414  0.08256387  1
  O  O203  1  0.93506309  0.62104127  0.58649411  1
  O  O204  1  0.10428654  0.36968257  0.08660664  1
  O  O205  1  0.11152177  0.34354818  0.58382274  1
  O  O206  1  0.09681201  0.87857588  0.08261648  1
  O  O207  1  0.11185246  0.85041989  0.57429519  1
  O  O208  1  0.43872035  0.37260458  0.08826711  1
  O  O209  1  0.45021470  0.36183785  0.58527322  1
  O  O210  1  0.44612329  0.88092989  0.07310749  1
  O  O211  1  0.46143886  0.86388801  0.57525542  1
  O  O212  1  0.77092098  0.37663295  0.08635097  1
  O  O213  1  0.76915100  0.35270928  0.57946041  1
  O  O214  1  0.77223304  0.87184070  0.08278863  1
  O  O215  1  0.77315480  0.84929521  0.57923714  1
  O  O216  1  0.27087872  0.37617923  0.08702988  1
  O  O217  1  0.28776460  0.37910807  0.57645377  1
  O  O218  1  0.25809689  0.88430263  0.07094831  1
  O  O219  1  0.28623053  0.89825607  0.57046847  1
  O  O220  1  0.60376276  0.37072297  0.08696441  1
  O  O221  1  0.60977628  0.38279644  0.58545417  1
  O  O222  1  0.61129340  0.88107319  0.08319699  1
  O  O223  1  0.61987377  0.89240666  0.58143676  1
  O  O224  1  0.93650473  0.37797977  0.08542001  1
  O  O225  1  0.95380082  0.38728570  0.57811367  1
  O  O226  1  0.93444649  0.87395776  0.08095348  1
  O  O227  1  0.95305109  0.88399626  0.57110083  1
  O  O228  1  0.10448424  0.13313719  0.08374228  1
  O  O229  1  0.10545385  0.14595704  0.58846354  1
  O  O230  1  0.10134899  0.62376329  0.08560275  1
  O  O231  1  0.10224220  0.63562201  0.58582416  1
  O  O232  1  0.43869532  0.12782092  0.08491783  1
  O  O233  1  0.43706645  0.12578247  0.58389777  1
  O  O234  1  0.43500817  0.61520580  0.08481543  1
  O  O235  1  0.43243622  0.61939109  0.58252060  1
  O  O236  1  0.77023356  0.12425605  0.08248809  1
  O  O237  1  0.77355189  0.14273011  0.58748280  1
  O  O238  1  0.76899282  0.62577511  0.08499359  1
  O  O239  1  0.76776912  0.64029143  0.58551463  1
  O  O240  1  0.06073102  0.11829121  0.41594285  1
  O  O241  1  0.05045711  0.12301498  0.91645128  1
  O  O242  1  0.06054661  0.62357605  0.41641804  1
  O  O243  1  0.06001532  0.63069703  0.91772330  1
  O  O244  1  0.38365283  0.10667383  0.41027951  1
  O  O245  1  0.40317834  0.09549046  0.92387770  1
  O  O246  1  0.37515391  0.60007124  0.40986626  1
  O  O247  1  0.38234749  0.61942227  0.92361033  1
  O  O248  1  0.73612029  0.10544026  0.42369680  1
  O  O249  1  0.72452480  0.10989049  0.91420423  1
  O  O250  1  0.71831634  0.60167438  0.42909972  1
  O  O251  1  0.73282177  0.62213547  0.91518876  1
  O  O252  1  0.23503354  0.35556742  0.42098235  1
  O  O253  1  0.21515518  0.35656015  0.93397973  1
  O  O254  1  0.21212737  0.86823006  0.42053305  1
  O  O255  1  0.24439426  0.87111953  0.92216567  1
  O  O256  1  0.56225018  0.37047479  0.41493781  1
  O  O257  1  0.56049461  0.34399501  0.92281785  1
  O  O258  1  0.56509812  0.87613556  0.41330573  1
  O  O259  1  0.56621711  0.86230551  0.91368276  1
  O  O260  1  0.87749104  0.34719317  0.40833530  1
  O  O261  1  0.87786784  0.36211595  0.91638277  1
  O  O262  1  0.88746754  0.86079056  0.40998220  1
  O  O263  1  0.88982554  0.87057973  0.91384959  1
  O  O264  1  0.04324383  0.38239103  0.42194709  1
  O  O265  1  0.03779295  0.38702416  0.92702347  1
  O  O266  1  0.04705904  0.89570961  0.41189123  1
  O  O267  1  0.05637579  0.86451233  0.93024442  1
  O  O268  1  0.39966404  0.37210786  0.41506019  1
  O  O269  1  0.38646629  0.40430993  0.93362275  1
  O  O270  1  0.40139477  0.89458443  0.41816457  1
  O  O271  1  0.40475101  0.87926880  0.91364741  1
  O  O272  1  0.72271372  0.39681640  0.41151899  1
  O  O273  1  0.71938247  0.37857216  0.91729119  1
  O  O274  1  0.72594324  0.89282093  0.41145887  1
  O  O275  1  0.72745649  0.89098659  0.91646985  1
  O  O276  1  0.22346979  0.13351093  0.41226534  1
  O  O277  1  0.21426909  0.13516070  0.92416611  1
  O  O278  1  0.22063978  0.64268946  0.41207629  1
  O  O279  1  0.21951908  0.64783769  0.91344352  1
  O  O280  1  0.54331680  0.14277894  0.41926674  1
  O  O281  1  0.56311716  0.12856697  0.91551058  1
  O  O282  1  0.53720720  0.63303717  0.42463481  1
  O  O283  1  0.57466180  0.65216875  0.93063394  1
  O  O284  1  0.89704123  0.12919407  0.41508965  1
  O  O285  1  0.88618996  0.13558614  0.91438646  1
  O  O286  1  0.89981223  0.65014712  0.42231733  1
  O  O287  1  0.89822928  0.61820481  0.92061460  1
  O  O288  1  0.17541445  0.00494528  0.08578233  1
  O  O289  1  0.16165283  0.01582356  0.57498700  1
  O  O290  1  0.17773897  0.49714457  0.08565294  1
  O  O291  1  0.16337589  0.50630762  0.58081409  1
  O  O292  1  0.52987087  0.00484435  0.08318328  1
  O  O293  1  0.51342430  0.00089418  0.58048367  1
  O  O294  1  0.52690062  0.49663518  0.08738007  1
  O  O295  1  0.51324009  0.49652068  0.58518005  1
  O  O296  1  0.85089481  -0.00081649  0.08445278  1
  O  O297  1  0.82918663  0.01141641  0.57499902  1
  O  O298  1  0.85148673  0.50156893  0.08603965  1
  O  O299  1  0.82839324  0.51115841  0.57640066  1
  O  O300  1  0.01024108  0.25090272  0.08401244  1
  O  O301  1  -0.00854744  0.24903341  0.58926632  1
  O  O302  1  0.01837779  0.74971317  0.08349902  1
  O  O303  1  0.00156624  0.74771155  0.58473899  1
  O  O304  1  0.35170284  0.25056884  0.08676719  1
  O  O305  1  0.35491322  0.24723314  0.58310946  1
  O  O306  1  0.34861917  0.73699073  0.07310220  1
  O  O307  1  0.34219547  0.73849472  0.57528183  1
  O  O308  1  0.69458938  0.25092161  0.08501406  1
  O  O309  1  0.66105986  0.24812746  0.58779091  1
  O  O310  1  0.68456365  0.74985646  0.08389074  1
  O  O311  1  0.65789051  0.74900907  0.58266296  1
  O  O312  1  0.15509092  0.00227111  0.40819130  1
  O  O313  1  0.14251481  0.00701219  0.92405552  1
  O  O314  1  0.16351752  0.51100286  0.42461104  1
  O  O315  1  0.15680859  0.51661849  0.92608557  1
  O  O316  1  0.50107620  0.00511038  0.41149269  1
  O  O317  1  0.51117579  -0.00684049  0.91297968  1
  O  O318  1  0.48509983  0.49614005  0.41504301  1
  O  O319  1  0.52420729  0.50390702  0.93091025  1
  O  O320  1  0.83894192  -0.00340504  0.40988580  1
  O  O321  1  0.82969741  0.00183463  0.91610696  1
  O  O322  1  0.85327515  0.48805775  0.41740534  1
  O  O323  1  0.81163222  0.49659777  0.91747680  1
  O  O324  1  0.33266342  0.24292195  0.41283519  1
  O  O325  1  0.35125300  0.24686991  0.93312554  1
  O  O326  1  0.33978677  0.73985982  0.42084043  1
  O  O327  1  0.33029474  0.75234186  0.91327558  1
  O  O328  1  0.67191060  0.26239211  0.42263982  1
  O  O329  1  0.66964883  0.24197220  0.91360923  1
  O  O330  1  0.66543455  0.76146951  0.42001978  1
  O  O331  1  0.68020391  0.75683410  0.91715951  1
  O  O332  1  0.99161945  0.24644389  0.41398361  1
  O  O333  1  0.97818179  0.25117516  0.91767374  1
  O  O334  1  1.00406377  0.75732431  0.41171318  1
  O  O335  1  0.96327135  0.74643685  0.91541825  1
  O  O336  1  0.21410882  0.09303468  0.19195791  1
  O  O337  1  0.20682286  0.08563896  0.69370961  1
  O  O338  1  0.20594764  0.57873252  0.19608310  1
  O  O339  1  0.20608334  0.58469558  0.69577807  1
  O  O340  1  0.54493925  0.08508194  0.19344564  1
  O  O341  1  0.54231057  0.08273353  0.69351849  1
  O  O342  1  0.54435996  0.58088469  0.19525706  1
  O  O343  1  0.53268971  0.57926877  0.69477683  1
  O  O344  1  0.87763891  0.08774323  0.19275962  1
  O  O345  1  0.87338419  0.08630107  0.69365248  1
  O  O346  1  0.87812246  0.58474093  0.19439879  1
  O  O347  1  0.87097988  0.58176851  0.69306165  1
  O  O348  1  0.04065970  0.33207466  0.19464112  1
  O  O349  1  0.03971561  0.33299114  0.69485414  1
  O  O350  1  0.04041357  0.83375172  0.19219649  1
  O  O351  1  0.04618657  0.83733893  0.68758457  1
  O  O352  1  0.37720375  0.33215724  0.19605702  1
  O  O353  1  0.37837788  0.32892270  0.69282051  1
  O  O354  1  0.38129761  0.83449595  0.19730839  1
  O  O355  1  0.37711739  0.83297270  0.69900331  1
  O  O356  1  0.71273526  0.33283434  0.19574713  1
  O  O357  1  0.70784704  0.32985958  0.69519603  1
  O  O358  1  0.71108704  0.83295295  0.19322339  1
  O  O359  1  0.70051854  0.83149066  0.69065331  1
  O  O360  1  0.21082859  0.41381091  0.19528903  1
  O  O361  1  0.21209688  0.41796787  0.70309014  1
  O  O362  1  0.21240848  0.91217792  0.18923323  1
  O  O363  1  0.21392089  0.91957481  0.69877127  1
  O  O364  1  0.54638613  0.41420972  0.19642001  1
  O  O365  1  0.54429342  0.41307866  0.69547412  1
  O  O366  1  0.54595576  0.91881205  0.19112529  1
  O  O367  1  0.54851923  0.92200806  0.68978900  1
  O  O368  1  0.87783586  0.41703312  0.19577082  1
  O  O369  1  0.87718649  0.41519509  0.70202486  1
  O  O370  1  0.87801193  0.91323091  0.19236704  1
  O  O371  1  0.88495416  0.92520510  0.69703897  1
  O  O372  1  0.04107060  0.16777129  0.19279696  1
  O  O373  1  0.03994320  0.16738225  0.69842305  1
  O  O374  1  0.03618105  0.66703007  0.19344389  1
  O  O375  1  0.04378548  0.66370600  0.69601074  1
  O  O376  1  0.37828372  0.16673853  0.19397814  1
  O  O377  1  0.37885810  0.16458915  0.69431462  1
  O  O378  1  0.37948086  0.66717833  0.19203735  1
  O  O379  1  0.37377985  0.66497306  0.69244735  1
  O  O380  1  0.71392972  0.16743340  0.19348301  1
  O  O381  1  0.70699967  0.16544401  0.69583306  1
  O  O382  1  0.71116153  0.66828119  0.19415212  1
  O  O383  1  0.70886131  0.67141096  0.69426962  1
  O  O384  1  0.11718609  0.09248301  0.30355199  1
  O  O385  1  0.12052156  0.08604489  0.80914059  1
  O  O386  1  0.11981711  0.58063501  0.30780446  1
  O  O387  1  0.12065193  0.58690601  0.80774186  1
  O  O388  1  0.45775847  0.08634849  0.30327985  1
  O  O389  1  0.46065128  0.08048478  0.80643440  1
  O  O390  1  0.45919484  0.58065711  0.30640291  1
  O  O391  1  0.45497956  0.58358903  0.80220218  1
  O  O392  1  0.79013179  0.08664257  0.30644677  1
  O  O393  1  0.78886412  0.08425707  0.80420864  1
  O  O394  1  0.78918124  0.58399276  0.29966704  1
  O  O395  1  0.79805557  0.57832720  0.80728175  1
  O  O396  1  0.29274482  0.33017305  0.30603256  1
  O  O397  1  0.28987241  0.33162440  0.80395417  1
  O  O398  1  0.28802927  0.83395192  0.29805596  1
  O  O399  1  0.29275481  0.83498547  0.80555716  1
  O  O400  1  0.62548877  0.33420056  0.30624992  1
  O  O401  1  0.62273032  0.32742111  0.80691096  1
  O  O402  1  0.62510265  0.83653664  0.30388997  1
  O  O403  1  0.63225295  0.83550788  0.80507373  1
  O  O404  1  0.95706053  0.33165276  0.30544217  1
  O  O405  1  0.95270558  0.33284210  0.80923931  1
  O  O406  1  0.95530138  0.83467078  0.30224023  1
  O  O407  1  0.96592230  0.83491885  0.80933394  1
  O  O408  1  0.12201195  0.41600031  0.30030597  1
  O  O409  1  0.11720902  0.41767611  0.80212350  1
  O  O410  1  0.11676392  0.91023484  0.30424433  1
  O  O411  1  0.12037726  0.91763046  0.79862175  1
  O  O412  1  0.45751345  0.41405009  0.30533234  1
  O  O413  1  0.45389209  0.41404855  0.80121745  1
  O  O414  1  0.46137401  0.91978101  0.30350935  1
  O  O415  1  0.46014140  0.91739035  0.80328756  1
  O  O416  1  0.79140208  0.41598501  0.30383004  1
  O  O417  1  0.78393741  0.41388626  0.80704538  1
  O  O418  1  0.78900765  0.91458738  0.30137445  1
  O  O419  1  0.78523297  0.92496860  0.80501215  1
  O  O420  1  0.28918861  0.16580598  0.30277813  1
  O  O421  1  0.29012602  0.16502417  0.80012536  1
  O  O422  1  0.29215235  0.67010774  0.30391827  1
  O  O423  1  0.28937492  0.66706160  0.80516797  1
  O  O424  1  0.62453312  0.16699813  0.29882621  1
  O  O425  1  0.62346303  0.16242852  0.80452285  1
  O  O426  1  0.61992947  0.66681925  0.29975098  1
  O  O427  1  0.61974002  0.67389409  0.81118672  1
  O  O428  1  0.95707232  0.16587865  0.30461509  1
  O  O429  1  0.95181438  0.16924703  0.80544015  1
  O  O430  1  0.95762254  0.66902389  0.30649879  1
  O  O431  1  0.95013568  0.66062474  0.80696646  1
  F  F432  1  0.03175503  0.00146256  0.19390014  1
  F  F433  1  0.04489360  0.00602215  0.70260812  1
  F  F434  1  0.04276542  0.50076277  0.20080128  1
  F  F435  1  0.04215576  0.50341331  0.70289412  1
  F  F436  1  0.38172208  0.00278395  0.19791709  1
  F  F437  1  0.37964647  0.00284306  0.70196855  1
  F  F438  1  0.38293801  0.49068347  0.19869682  1
  F  F439  1  0.37416587  0.49848611  0.70237357  1
  F  F440  1  0.70854198  0.00232197  0.19875687  1
  F  F441  1  0.71229603  0.00234038  0.69972494  1
  F  F442  1  0.71170908  0.49796841  0.20050300  1
  F  F443  1  0.71306805  0.48791859  0.69895261  1
  F  F444  1  0.21138012  0.25203923  0.20161198  1
  F  F445  1  0.20859547  0.24989800  0.70289395  1
  F  F446  1  0.21070101  0.75155245  0.19495744  1
  F  F447  1  0.21375774  0.74972322  0.70212623  1
  F  F448  1  0.54622897  0.25267191  0.20034094  1
  F  F449  1  0.54443653  0.24694007  0.70308753  1
  F  F450  1  0.54658757  0.75224401  0.19986259  1
  F  F451  1  0.54499047  0.74445245  0.70231944  1
  F  F452  1  0.87893196  0.25026954  0.20168832  1
  F  F453  1  0.87620854  0.25050298  0.70352245  1
  F  F454  1  0.87826460  0.74929367  0.20159079  1
  F  F455  1  0.88178578  0.73605311  0.69661478  1
  F  F456  1  0.30098725  0.00084364  0.29752242  1
  F  F457  1  0.28999838  0.00187399  0.79880515  1
  F  F458  1  0.28740171  0.49269947  0.30056987  1
  F  F459  1  0.28643369  0.50424097  0.80099182  1
  F  F460  1  0.62178450  0.00064056  0.29582416  1
  F  F461  1  0.62180747  -0.00003209  0.79598441  1
  F  F462  1  0.62055688  0.49820862  0.29711144  1
  F  F463  1  0.61660280  0.48716015  0.80333546  1
  F  F464  1  0.95725149  0.00091648  0.29733414  1
  F  F465  1  0.95238583  0.00698862  0.80221990  1
  F  F466  1  0.95463831  0.50103281  0.29663929  1
  F  F467  1  0.95350702  0.50135142  0.79906076  1
  F  F468  1  0.12154529  0.25001535  0.29660184  1
  F  F469  1  0.11813317  0.25046413  0.79937555  1
  F  F470  1  0.11952114  0.75234351  0.29547139  1
  F  F471  1  0.12641565  0.75294623  0.79754759  1
  F  F472  1  0.45562198  0.24976932  0.29666571  1
  F  F473  1  0.45551894  0.24630660  0.79768108  1
  F  F474  1  0.45689962  0.75012838  0.29687366  1
  F  F475  1  0.45108531  0.74383197  0.80142183  1
  F  F476  1  0.78989940  0.24934162  0.29676152  1
  F  F477  1  0.78596032  0.24842835  0.79810427  1
  F  F478  1  0.78812287  0.75192996  0.29647321  1
  F  F479  1  0.78306296  0.74003537  0.80269941  1
