# generated using pymatgen
data_K24Na3Li5Mg64Fe17Si79(O5F)48
_symmetry_space_group_name_H-M   'P 1'
_cell_length_a   16.08001693
_cell_length_b   18.57153077
_cell_length_c   20.55738494
_cell_angle_alpha   90.00822203
_cell_angle_beta   99.99454812
_cell_angle_gamma   89.98158505
_symmetry_Int_Tables_number   1
_chemical_formula_structural   K24Na3Li5Mg64Fe17Si79(O5F)48
_chemical_formula_sum   'K24 Na3 Li5 Mg64 Fe17 Si79 O240 F48'
_cell_volume   6045.89765816
_cell_formula_units_Z   1
loop_
 _symmetry_equiv_pos_site_id
 _symmetry_equiv_pos_as_xyz
  1  'x, y, z'
loop_
 _atom_site_type_symbol
 _atom_site_label
 _atom_site_symmetry_multiplicity
 _atom_site_fract_x
 _atom_site_fract_y
 _atom_site_fract_z
 _atom_site_occupancy
  K  K0  1  -0.00578074  0.00786683  -0.00157580  1
  K  K1  1  -0.00843100  0.00309264  0.50440913  1
  K  K2  1  -0.00200447  0.50259313  -0.00177184  1
  K  K3  1  -0.00469781  0.49997029  0.49848934  1
  K  K4  1  0.33480376  0.00615637  -0.00341550  1
  K  K5  1  0.33819194  0.00721278  0.49782788  1
  K  K6  1  0.32935938  0.49897460  -0.00067324  1
  K  K7  1  0.33003314  0.49798767  0.50232654  1
  K  K8  1  0.67858464  0.00349858  0.00723152  1
  K  K9  1  0.66449249  0.01096894  0.48767975  1
  K  K10  1  0.68080207  0.49473504  -0.00361722  1
  K  K11  1  0.68435760  0.49792446  0.50040342  1
  K  K12  1  0.17354036  0.24687665  -0.00379119  1
  K  K13  1  0.16368725  0.24674280  0.50607752  1
  K  K14  1  0.16080830  0.75235595  -0.01051137  1
  K  K15  1  0.15571486  0.74981445  0.50175171  1
  K  K16  1  0.49211023  0.25024673  0.00075330  1
  K  K17  1  0.49929770  0.24000874  0.49150221  1
  K  K18  1  0.51133730  0.75739971  -0.00069428  1
  K  K19  1  0.50253102  0.75496119  0.49952216  1
  K  K20  1  0.83074204  0.24766143  0.00110101  1
  K  K21  1  0.83946363  0.23880429  0.49960893  1
  K  K22  1  0.82659726  0.74056089  0.00013497  1
  K  K23  1  0.83663110  0.75805163  0.49843391  1
  Na  Na24  1  -0.00078352  0.75075054  0.25693725  1
  Na  Na25  1  0.83618689  0.83025906  0.75022845  1
  Na  Na26  1  0.16694601  0.82717849  0.74848784  1
  Li  Li27  1  0.50770056  0.00091416  0.25384881  1
  Li  Li28  1  0.16233941  -0.00423890  0.74726841  1
  Li  Li29  1  0.83903013  0.16576342  0.75108815  1
  Li  Li30  1  0.66320164  0.92121752  0.25105551  1
  Li  Li31  1  0.16593352  0.66981739  0.75026234  1
  Mg  Mg32  1  0.33078414  0.74828490  0.74820566  1
  Mg  Mg33  1  0.66730490  0.74850134  0.75349711  1
  Mg  Mg34  1  0.49999662  0.49981173  0.24616473  1
  Mg  Mg35  1  0.66588989  0.24916506  0.24627009  1
  Mg  Mg36  1  0.66846409  0.24834764  0.75096151  1
  Mg  Mg37  1  0.83111583  0.49902351  0.75377440  1
  Mg  Mg38  1  -0.00239142  0.24694383  0.74716213  1
  Mg  Mg39  1  0.50007720  -0.00033952  0.74901295  1
  Mg  Mg40  1  0.33278784  0.75145746  0.24999702  1
  Mg  Mg41  1  0.83237649  0.49982846  0.25352323  1
  Mg  Mg42  1  -0.00272161  0.24939218  0.24871738  1
  Mg  Mg43  1  0.32985161  0.25078696  0.75144467  1
  Mg  Mg44  1  0.49859710  0.49961756  0.75395744  1
  Mg  Mg45  1  0.83545626  0.00202282  0.74804791  1
  Mg  Mg46  1  0.16585393  0.50037654  0.25070505  1
  Mg  Mg47  1  0.16541397  0.50317444  0.75094903  1
  Mg  Mg48  1  0.83000148  -0.00021273  0.24780807  1
  Mg  Mg49  1  0.33503073  0.24927791  0.24808638  1
  Mg  Mg50  1  0.16578071  0.00101908  0.25113212  1
  Mg  Mg51  1  0.00311129  0.74978262  0.75207237  1
  Mg  Mg52  1  0.66649985  0.75237151  0.25256383  1
  Mg  Mg53  1  0.67051087  0.91582469  0.75089860  1
  Mg  Mg54  1  0.66892855  0.58417251  0.25423313  1
  Mg  Mg55  1  0.50271856  0.83814425  0.25273138  1
  Mg  Mg56  1  0.33183755  0.58528877  0.75213632  1
  Mg  Mg57  1  0.49915270  0.16142415  0.24772663  1
  Mg  Mg58  1  0.83460566  0.66583057  0.25603777  1
  Mg  Mg59  1  0.00029341  0.08373560  0.74694260  1
  Mg  Mg60  1  0.66953405  0.41524551  0.24950750  1
  Mg  Mg61  1  0.00099893  0.58700488  0.75187434  1
  Mg  Mg62  1  0.32931583  0.08144585  0.74846340  1
  Mg  Mg63  1  0.16610266  0.16585470  0.25059746  1
  Mg  Mg64  1  -0.00138605  0.58505340  0.25454183  1
  Mg  Mg65  1  0.49925984  0.16583464  0.74901553  1
  Mg  Mg66  1  0.83127958  0.83445232  0.25207769  1
  Mg  Mg67  1  0.16585732  0.33428372  0.74912415  1
  Mg  Mg68  1  0.83295824  0.16436057  0.24613612  1
  Mg  Mg69  1  -0.00133840  0.41448170  0.25059224  1
  Mg  Mg70  1  0.83298206  0.33391008  0.25020484  1
  Mg  Mg71  1  0.49952279  0.33423495  0.75396976  1
  Mg  Mg72  1  0.16487600  0.66672898  0.25201460  1
  Mg  Mg73  1  0.33267333  0.58424824  0.24787570  1
  Mg  Mg74  1  -0.00106875  0.41636364  0.75118324  1
  Mg  Mg75  1  0.66378671  0.07962121  0.24844326  1
  Mg  Mg76  1  0.16386020  0.16153257  0.74798026  1
  Mg  Mg77  1  0.50052781  0.66760213  0.25159990  1
  Mg  Mg78  1  0.16663708  0.33466867  0.24833735  1
  Mg  Mg79  1  0.50139343  0.83353872  0.75105892  1
  Mg  Mg80  1  0.49942102  0.33349628  0.24571197  1
  Mg  Mg81  1  0.33377287  0.41633873  0.75288664  1
  Mg  Mg82  1  -0.00085002  0.91631401  0.25045115  1
  Mg  Mg83  1  0.16631851  0.83387854  0.25158972  1
  Mg  Mg84  1  0.66886608  0.58365201  0.75449653  1
  Mg  Mg85  1  0.33307141  0.41521746  0.24485543  1
  Mg  Mg86  1  0.32997153  0.91589796  0.74951316  1
  Mg  Mg87  1  0.33690137  0.91860810  0.25148894  1
  Mg  Mg88  1  0.67117142  0.08435816  0.74909639  1
  Mg  Mg89  1  0.33542346  0.08213225  0.24850843  1
  Mg  Mg90  1  0.00394345  0.91760766  0.74829956  1
  Mg  Mg91  1  0.50236168  0.66517735  0.75379290  1
  Mg  Mg92  1  0.66834469  0.41403421  0.75346637  1
  Mg  Mg93  1  0.83367174  0.66480296  0.75498109  1
  Mg  Mg94  1  -0.00128126  0.08467678  0.24795715  1
  Mg  Mg95  1  0.83488034  0.33100834  0.75223645  1
  Fe  Fe96  1  0.80959540  0.40720926  0.89181770  1
  Fe  Fe97  1  0.80832592  0.58484262  0.39622363  1
  Fe  Fe98  1  0.46950495  0.08099574  0.38746634  1
  Fe  Fe99  1  0.97746635  0.67106196  0.39722249  1
  Fe  Fe100  1  0.97787447  0.15806196  0.38843279  1
  Fe  Fe101  1  0.47550672  0.41947204  0.89270503  1
  Fe  Fe102  1  0.80855984  0.41068737  0.39359082  1
  Fe  Fe103  1  0.81332089  0.58168180  0.89552221  1
  Fe  Fe104  1  0.69258018  0.33635950  0.10817044  1
  Fe  Fe105  1  0.98107332  0.16653074  0.88795509  1
  Fe  Fe106  1  0.36225874  0.33062950  0.10731121  1
  Fe  Fe107  1  0.29880556  0.33679257  0.89037746  1
  Fe  Fe108  1  0.02368652  0.16626359  0.60606201  1
  Fe  Fe109  1  0.85850067  0.08333386  0.10634124  1
  Fe  Fe110  1  0.64085846  0.67155565  0.89298708  1
  Fe  Fe111  1  0.14662567  0.08053698  0.38933581  1
  Fe  Fe112  1  0.98153880  0.32907662  0.39104524  1
  Si  Si113  1  0.69029634  0.66662288  0.61479398  1
  Si  Si114  1  0.14972707  0.91530194  0.38737618  1
  Si  Si115  1  0.14499363  0.07657493  0.88637444  1
  Si  Si116  1  0.30764252  0.66529281  0.88530100  1
  Si  Si117  1  0.63664264  0.16964184  0.38386738  1
  Si  Si118  1  0.19318462  0.42107829  0.61387952  1
  Si  Si119  1  0.47248154  0.08190073  0.88292292  1
  Si  Si120  1  0.52540247  0.91259571  0.11662592  1
  Si  Si121  1  0.47372665  0.58898865  0.88983483  1
  Si  Si122  1  0.03139610  0.17069034  0.10972276  1
  Si  Si123  1  0.68323399  0.16573615  0.10792321  1
  Si  Si124  1  0.52164992  0.58772580  0.11531950  1
  Si  Si125  1  0.97750889  0.84588990  0.38957130  1
  Si  Si126  1  0.35977644  0.16679630  0.61376380  1
  Si  Si127  1  0.36104714  0.66590603  0.61506921  1
  Si  Si128  1  0.69104654  0.82961508  0.11694535  1
  Si  Si129  1  0.02720225  0.83277760  0.11578371  1
  Si  Si130  1  0.64100959  0.83068674  0.38686175  1
  Si  Si131  1  0.47611733  0.91669196  0.88519159  1
  Si  Si132  1  0.64035727  0.15986787  0.88349299  1
  Si  Si133  1  0.85253661  0.07867264  0.60968419  1
  Si  Si134  1  0.35686676  0.83580496  0.11485546  1
  Si  Si135  1  0.30843407  0.66374242  0.38420840  1
  Si  Si136  1  0.35885027  0.83204232  0.61353162  1
  Si  Si137  1  0.47154271  0.58249412  0.38391320  1
  Si  Si138  1  0.30748302  0.16405871  0.88526385  1
  Si  Si139  1  0.85692312  0.91071914  0.11154875  1
  Si  Si140  1  0.52427002  0.91710586  0.61373488  1
  Si  Si141  1  0.52932811  0.42376201  0.11068203  1
  Si  Si142  1  0.85947504  0.58443675  0.11656707  1
  Si  Si143  1  0.63586157  0.32437740  0.88840485  1
  Si  Si144  1  0.19364033  0.08176565  0.11432868  1
  Si  Si145  1  0.02442907  0.34042188  0.61208456  1
  Si  Si146  1  0.97819958  0.67310779  0.89025899  1
  Si  Si147  1  0.52609865  0.41477270  0.61447104  1
  Si  Si148  1  0.68993483  0.16636690  0.61325174  1
  Si  Si149  1  0.31393941  0.83000552  0.88535846  1
  Si  Si150  1  0.19376665  0.91433456  0.61355807  1
  Si  Si151  1  0.98261467  0.83857887  0.88583763  1
  Si  Si152  1  0.35648982  0.67056755  0.11450054  1
  Si  Si153  1  0.52552738  0.07691922  0.11338210  1
  Si  Si154  1  0.19678122  0.07948449  0.61042216  1
  Si  Si155  1  0.97880847  0.33073704  0.88588897  1
  Si  Si156  1  0.69060680  0.66499089  0.11750488  1
  Si  Si157  1  0.69174032  0.33233706  0.61378287  1
  Si  Si158  1  0.02468588  0.66681868  0.61572622  1
  Si  Si159  1  0.80797492  0.08510071  0.88431947  1
  Si  Si160  1  0.35839726  0.15946588  0.11008441  1
  Si  Si161  1  0.13073974  0.42235626  0.88643328  1
  Si  Si162  1  0.52549919  0.58084766  0.61513868  1
  Si  Si163  1  0.80529434  0.91817702  0.38490949  1
  Si  Si164  1  0.47388220  0.91157642  0.39009401  1
  Si  Si165  1  0.85706903  0.41970508  0.61615393  1
  Si  Si166  1  0.80005089  0.08422786  0.38464625  1
  Si  Si167  1  0.19341774  0.58585989  0.61576408  1
  Si  Si168  1  0.30552453  0.17453547  0.38744884  1
  Si  Si169  1  0.14597747  0.58251110  0.38888449  1
  Si  Si170  1  0.02186948  0.83326996  0.61288319  1
  Si  Si171  1  0.64857872  0.84166466  0.88912573  1
  Si  Si172  1  0.14552124  0.42002238  0.38655191  1
  Si  Si173  1  0.85799305  0.58577204  0.61661930  1
  Si  Si174  1  0.47100495  0.41885964  0.38252377  1
  Si  Si175  1  0.02634350  0.66645248  0.11641821  1
  Si  Si176  1  0.68766912  0.83184530  0.61482947  1
  Si  Si177  1  0.30768713  0.33814633  0.38315187  1
  Si  Si178  1  0.63280313  0.33516940  0.38515877  1
  Si  Si179  1  0.86547190  0.41870578  0.11155359  1
  Si  Si180  1  0.19418293  0.42135039  0.11129436  1
  Si  Si181  1  0.19021088  0.58653832  0.11413378  1
  Si  Si182  1  0.03151233  0.33698852  0.11250027  1
  Si  Si183  1  0.14014057  0.58712353  0.88471951  1
  Si  Si184  1  0.35817654  0.33328495  0.61390326  1
  Si  Si185  1  0.52591370  0.08410211  0.61367343  1
  Si  Si186  1  0.81404860  0.92287783  0.88414988  1
  Si  Si187  1  0.14721086  0.91566138  0.88416351  1
  Si  Si188  1  0.85601617  0.91535533  0.61262940  1
  Si  Si189  1  0.19001200  0.91671009  0.11525423  1
  Si  Si190  1  0.30854996  0.82750100  0.38571264  1
  Si  Si191  1  0.63430337  0.66621150  0.38944292  1
  O  O192  1  0.27646324  0.10631017  0.08336042  1
  O  O193  1  0.27830039  0.11829940  0.58234383  1
  O  O194  1  0.27082957  0.62350039  0.08567709  1
  O  O195  1  0.26982084  0.62774072  0.58502799  1
  O  O196  1  0.60196329  0.11077083  0.08008890  1
  O  O197  1  0.60048256  0.12411748  0.58194841  1
  O  O198  1  0.60314278  0.62079521  0.08683687  1
  O  O199  1  0.60228238  0.62162980  0.58519835  1
  O  O200  1  0.95122865  0.12481324  0.07394438  1
  O  O201  1  0.92325647  0.11522048  0.57354193  1
  O  O202  1  0.93614780  0.62653327  0.08692621  1
  O  O203  1  0.93662533  0.62238916  0.58633752  1
  O  O204  1  0.10995765  0.37358753  0.08254270  1
  O  O205  1  0.10250641  0.38374261  0.58419113  1
  O  O206  1  0.10546954  0.86954346  0.08387061  1
  O  O207  1  0.10178816  0.87359282  0.58584087  1
  O  O208  1  0.45710424  0.36751092  0.07783068  1
  O  O209  1  0.43561687  0.37391904  0.58411074  1
  O  O210  1  0.43695513  0.86812531  0.08419238  1
  O  O211  1  0.43498802  0.87520069  0.58388195  1
  O  O212  1  0.78888253  0.36928885  0.07571729  1
  O  O213  1  0.76924508  0.37462136  0.58649830  1
  O  O214  1  0.76985275  0.86296791  0.08495613  1
  O  O215  1  0.76884529  0.86685152  0.58709372  1
  O  O216  1  0.27178988  0.39390429  0.07828137  1
  O  O217  1  0.27019290  0.37782915  0.58478714  1
  O  O218  1  0.27089569  0.88215348  0.08526680  1
  O  O219  1  0.26716907  0.86761752  0.58190185  1
  O  O220  1  0.61493523  0.41114101  0.08140519  1
  O  O221  1  0.60202225  0.37458350  0.58327685  1
  O  O222  1  0.60269963  0.87307796  0.08555366  1
  O  O223  1  0.60025971  0.87679404  0.58259823  1
  O  O224  1  0.95061717  0.38851024  0.08454698  1
  O  O225  1  0.93753815  0.38820431  0.58607663  1
  O  O226  1  0.93661643  0.86979997  0.08430473  1
  O  O227  1  0.93236093  0.87503027  0.58024192  1
  O  O228  1  0.11607579  0.13599042  0.08424459  1
  O  O229  1  0.11371837  0.12107554  0.57415884  1
  O  O230  1  0.10422207  0.63122828  0.08317430  1
  O  O231  1  0.10344169  0.62683835  0.58654595  1
  O  O232  1  0.43702363  0.11893721  0.08224473  1
  O  O233  1  0.43993492  0.13012642  0.58507195  1
  O  O234  1  0.43838362  0.63873642  0.08615256  1
  O  O235  1  0.43563691  0.62215563  0.58411280  1
  O  O236  1  0.75999515  0.13521918  0.07317683  1
  O  O237  1  0.76215543  0.12254619  0.58229495  1
  O  O238  1  0.77046610  0.62805067  0.08938665  1
  O  O239  1  0.76998576  0.63009792  0.58610508  1
  O  O240  1  0.04832694  0.08329087  0.42203207  1
  O  O241  1  0.06847749  0.10097324  0.92338187  1
  O  O242  1  0.07185240  0.60749765  0.42696101  1
  O  O243  1  0.06575359  0.62666006  0.91766052  1
  O  O244  1  0.38096593  0.12282502  0.42402178  1
  O  O245  1  0.39264900  0.11408180  0.91247336  1
  O  O246  1  0.38658511  0.60827613  0.41270983  1
  O  O247  1  0.38325528  0.60945964  0.91590305  1
  O  O248  1  0.71858261  0.11905976  0.41277952  1
  O  O249  1  0.71762903  0.10444952  0.91062002  1
  O  O250  1  0.70445615  0.61176865  0.42498055  1
  O  O251  1  0.72390683  0.61186624  0.93549436  1
  O  O252  1  0.22669693  0.36616585  0.41472495  1
  O  O253  1  0.20074185  0.36683555  0.92237954  1
  O  O254  1  0.22231274  0.85107818  0.41281833  1
  O  O255  1  0.23185797  0.86439502  0.91264292  1
  O  O256  1  0.54358591  0.36011731  0.41153475  1
  O  O257  1  0.54967324  0.34103747  0.91628157  1
  O  O258  1  0.56042361  0.86326965  0.41786157  1
  O  O259  1  0.56626356  0.87864384  0.91607457  1
  O  O260  1  0.88585540  0.34130257  0.42847153  1
  O  O261  1  0.89416454  0.33805526  0.91812428  1
  O  O262  1  0.89566282  0.88059182  0.41968383  1
  O  O263  1  0.89939474  0.87417410  0.91209219  1
  O  O264  1  0.06651359  0.40131667  0.42114839  1
  O  O265  1  0.03970349  0.40258509  0.90848690  1
  O  O266  1  0.06205016  0.89714998  0.41566933  1
  O  O267  1  0.06878871  0.88348280  0.91959295  1
  O  O268  1  0.38514127  0.39532365  0.41095713  1
  O  O269  1  0.37944698  0.40156505  0.92742876  1
  O  O270  1  0.39308029  0.87289546  0.41893447  1
  O  O271  1  0.40052071  0.87652361  0.91710336  1
  O  O272  1  0.70325649  0.38950997  0.42124583  1
  O  O273  1  0.71068036  0.37714675  0.92188932  1
  O  O274  1  0.72865367  0.87547622  0.41508436  1
  O  O275  1  0.73171641  0.89341415  0.91476344  1
  O  O276  1  0.22058815  0.15844384  0.41714749  1
  O  O277  1  0.23091670  0.12466095  0.91532042  1
  O  O278  1  0.22793674  0.63620276  0.41550707  1
  O  O279  1  0.22488119  0.63513804  0.91426200  1
  O  O280  1  0.56244163  0.13988739  0.42083613  1
  O  O281  1  0.55737645  0.12856472  0.91224031  1
  O  O282  1  0.54394823  0.64130124  0.41343074  1
  O  O283  1  0.53492889  0.65557946  0.91759602  1
  O  O284  1  0.87881627  0.13090416  0.42015104  1
  O  O285  1  0.87956962  0.14021997  0.91868438  1
  O  O286  1  0.88665610  0.65052772  0.43770469  1
  O  O287  1  0.90533383  0.64476800  0.92820584  1
  O  O288  1  0.17232938  -0.00115871  0.08623248  1
  O  O289  1  0.19320740  -0.00446767  0.58124016  1
  O  O290  1  0.17492919  0.50532498  0.08453386  1
  O  O291  1  0.19127168  0.50363277  0.58307654  1
  O  O292  1  0.51291119  -0.00636931  0.08398130  1
  O  O293  1  0.51513810  0.00056570  0.58538437  1
  O  O294  1  0.49623704  0.50735110  0.08771363  1
  O  O295  1  0.51708377  0.49804325  0.58476323  1
  O  O296  1  0.84438789  -0.01284479  0.07373338  1
  O  O297  1  0.83623264  -0.00482038  0.57827959  1
  O  O298  1  0.85303355  0.50351955  0.08472590  1
  O  O299  1  0.84199575  0.50294224  0.58804635  1
  O  O300  1  0.02119877  0.25499739  0.08226456  1
  O  O301  1  0.01376662  0.26311345  0.57671327  1
  O  O302  1  0.01993846  0.74932569  0.08818799  1
  O  O303  1  0.01691984  0.74931916  0.58364960  1
  O  O304  1  0.34057605  0.23631275  0.07385053  1
  O  O305  1  0.34932482  0.25022015  0.58407493  1
  O  O306  1  0.33945872  0.75291414  0.08570182  1
  O  O307  1  0.36010308  0.74857041  0.58498931  1
  O  O308  1  0.65426016  0.24458380  0.07742509  1
  O  O309  1  0.68336203  0.24970420  0.58311855  1
  O  O310  1  0.67732605  0.74682218  0.08643414  1
  O  O311  1  0.67526330  0.74910449  0.58405847  1
  O  O312  1  0.19311829  -0.01133205  0.41776446  1
  O  O313  1  0.17343192  -0.00508344  0.91678507  1
  O  O314  1  0.18167848  0.50118491  0.41157771  1
  O  O315  1  0.15364418  0.50520528  0.91592312  1
  O  O316  1  0.48872399  -0.01170647  0.42679443  1
  O  O317  1  0.48427808  -0.00028434  0.91309574  1
  O  O318  1  0.49558395  0.50076498  0.41264781  1
  O  O319  1  0.51105750  0.51348296  0.92164113  1
  O  O320  1  0.80588574  0.00043208  0.41437996  1
  O  O321  1  0.83382937  0.00358758  0.91536973  1
  O  O322  1  0.83971992  0.49739805  0.43563504  1
  O  O323  1  0.84675396  0.49312440  0.93153750  1
  O  O324  1  0.33669039  0.25854129  0.41170981  1
  O  O325  1  0.32565881  0.24140892  0.91953246  1
  O  O326  1  0.33254513  0.74476100  0.41310795  1
  O  O327  1  0.32676921  0.74769680  0.91673423  1
  O  O328  1  0.65483989  0.25265383  0.41232066  1
  O  O329  1  0.66355597  0.24012704  0.91236689  1
  O  O330  1  0.65311129  0.74885484  0.41888886  1
  O  O331  1  0.66727981  0.76624605  0.92657137  1
  O  O332  1  1.02782802  0.24244966  0.42266837  1
  O  O333  1  1.02750857  0.25782654  0.91482321  1
  O  O334  1  1.00284028  0.76858022  0.42342622  1
  O  O335  1  0.99846774  0.75701187  0.91718352  1
  O  O336  1  0.21185804  0.08275580  0.19446933  1
  O  O337  1  0.21454246  0.08418975  0.69055308  1
  O  O338  1  0.21012565  0.58590677  0.19462638  1
  O  O339  1  0.21297245  0.58102189  0.69489488  1
  O  O340  1  0.54473114  0.08294442  0.19249042  1
  O  O341  1  0.54328153  0.08292298  0.69381320  1
  O  O342  1  0.54047325  0.58780439  0.19601537  1
  O  O343  1  0.54141084  0.58117623  0.69497663  1
  O  O344  1  0.87622319  0.08051333  0.19715831  1
  O  O345  1  0.87353660  0.07852069  0.68928278  1
  O  O346  1  0.87767694  0.58331116  0.19631408  1
  O  O347  1  0.87660172  0.58384805  0.69653637  1
  O  O348  1  0.04801716  0.33603858  0.19285487  1
  O  O349  1  0.04441025  0.33824034  0.69296333  1
  O  O350  1  0.04855758  0.83871618  0.19497674  1
  O  O351  1  0.03217929  0.83231591  0.69156208  1
  O  O352  1  0.37803211  0.33299948  0.19919571  1
  O  O353  1  0.37699200  0.33221016  0.69352495  1
  O  O354  1  0.37523027  0.83363874  0.19504307  1
  O  O355  1  0.37909542  0.83359175  0.69355425  1
  O  O356  1  0.70982514  0.33257992  0.19973671  1
  O  O357  1  0.70564506  0.33153476  0.69350610  1
  O  O358  1  0.70883747  0.83023053  0.19624494  1
  O  O359  1  0.69812725  0.83190712  0.69396138  1
  O  O360  1  0.21002675  0.42025879  0.19250055  1
  O  O361  1  0.21043278  0.42038590  0.69388430  1
  O  O362  1  0.21031990  0.91479613  0.19546282  1
  O  O363  1  0.21770271  0.91768013  0.69188405  1
  O  O364  1  0.54280735  0.41970248  0.19250742  1
  O  O365  1  0.54394444  0.41475384  0.69433237  1
  O  O366  1  0.53978590  0.91245242  0.19520604  1
  O  O367  1  0.54251833  0.91633557  0.69403991  1
  O  O368  1  0.87904675  0.41933770  0.19202905  1
  O  O369  1  0.87600057  0.41802285  0.69605425  1
  O  O370  1  0.87552100  0.91344633  0.19215583  1
  O  O371  1  0.87904702  0.92163029  0.69134598  1
  O  O372  1  0.04592396  0.16966079  0.19012130  1
  O  O373  1  0.04613770  0.16555341  0.69699041  1
  O  O374  1  0.04903608  0.65998859  0.19536006  1
  O  O375  1  0.04038812  0.66654673  0.69493992  1
  O  O376  1  0.37454903  0.16506491  0.19061572  1
  O  O377  1  0.37723753  0.16670414  0.69408695  1
  O  O378  1  0.37488845  0.66860043  0.19496745  1
  O  O379  1  0.38082547  0.66497355  0.69495920  1
  O  O380  1  0.70495442  0.16431428  0.18951075  1
  O  O381  1  0.70185022  0.16657835  0.69242913  1
  O  O382  1  0.70524127  0.66707485  0.19755549  1
  O  O383  1  0.70789388  0.66714581  0.69436558  1
  O  O384  1  0.12178048  0.08327572  0.29661792  1
  O  O385  1  0.12494073  0.08219639  0.80651157  1
  O  O386  1  0.12641884  0.58429258  0.30765012  1
  O  O387  1  0.12098874  0.58215030  0.80534734  1
  O  O388  1  0.45196974  0.08295124  0.29722598  1
  O  O389  1  0.45676669  0.08217426  0.80239030  1
  O  O390  1  0.45410324  0.58340374  0.30337256  1
  O  O391  1  0.45510840  0.58502034  0.80753046  1
  O  O392  1  0.78578335  0.08285817  0.30402198  1
  O  O393  1  0.78831404  0.08126435  0.80407751  1
  O  O394  1  0.78700967  0.58354424  0.30289152  1
  O  O395  1  0.78868613  0.58187755  0.80198007  1
  O  O396  1  0.28858700  0.33741379  0.30280822  1
  O  O397  1  0.28600583  0.33411328  0.79764954  1
  O  O398  1  0.29246078  0.83202957  0.30518263  1
  O  O399  1  0.30389556  0.83109831  0.80641080  1
  O  O400  1  0.61703096  0.33532887  0.30430349  1
  O  O401  1  0.62160669  0.32866790  0.80625483  1
  O  O402  1  0.62012696  0.82886513  0.30755619  1
  O  O403  1  0.62532336  0.83698984  0.80795462  1
  O  O404  1  0.95636275  0.33286506  0.29768332  1
  O  O405  1  0.95875523  0.33263761  0.80396437  1
  O  O406  1  0.95282153  0.84492755  0.30963918  1
  O  O407  1  0.96912398  0.83591123  0.80684535  1
  O  O408  1  0.12711004  0.41760633  0.30524227  1
  O  O409  1  0.12190211  0.42020912  0.80521198  1
  O  O410  1  0.12706367  0.91510760  0.30614452  1
  O  O411  1  0.12144727  0.91898824  0.80607645  1
  O  O412  1  0.45471468  0.42089676  0.30232538  1
  O  O413  1  0.45453709  0.41711849  0.79928222  1
  O  O414  1  0.45341138  0.91058775  0.31004759  1
  O  O415  1  0.45896496  0.91595387  0.80473573  1
  O  O416  1  0.78946443  0.41708925  0.30064502  1
  O  O417  1  0.78777365  0.41398691  0.79914146  1
  O  O418  1  0.79151452  0.91672511  0.30542940  1
  O  O419  1  0.78896163  0.92402432  0.80479755  1
  O  O420  1  0.29104141  0.16967959  0.30569883  1
  O  O421  1  0.29015040  0.16442896  0.80406116  1
  O  O422  1  0.29162261  0.66496343  0.30374604  1
  O  O423  1  0.29504221  0.66775578  0.80580799  1
  O  O424  1  0.62053284  0.16790136  0.30309864  1
  O  O425  1  0.62060884  0.16254146  0.80278999  1
  O  O426  1  0.61960314  0.66712826  0.30833224  1
  O  O427  1  0.62122144  0.66644900  0.80007094  1
  O  O428  1  0.95484184  0.16655655  0.29616933  1
  O  O429  1  0.95710476  0.16479334  0.79770006  1
  O  O430  1  0.95182767  0.65869596  0.30712433  1
  O  O431  1  0.95710060  0.66760931  0.80976856  1
  F  F432  1  0.04546188  -0.00345224  0.19941490  1
  F  F433  1  0.04196340  -0.00013951  0.69816145  1
  F  F434  1  0.04682125  0.50133014  0.20411474  1
  F  F435  1  0.04430888  0.50173986  0.70149598  1
  F  F436  1  0.36743511  -0.00374565  0.19624892  1
  F  F437  1  0.38197427  -0.00106633  0.69955394  1
  F  F438  1  0.37712545  0.50324654  0.19853095  1
  F  F439  1  0.37736291  0.50262309  0.70100035  1
  F  F440  1  0.71190727  0.00088504  0.19839001  1
  F  F441  1  0.70894072  -0.00082350  0.69903901  1
  F  F442  1  0.70902434  0.50306463  0.20129511  1
  F  F443  1  0.70691493  0.49957138  0.69993744  1
  F  F444  1  0.21329270  0.25065167  0.20110906  1
  F  F445  1  0.21175369  0.24849353  0.69824521  1
  F  F446  1  0.21322987  0.74944122  0.20040816  1
  F  F447  1  0.22206376  0.74156600  0.69146737  1
  F  F448  1  0.54262001  0.24865904  0.20018737  1
  F  F449  1  0.54343206  0.24975132  0.70171994  1
  F  F450  1  0.54270324  0.75007953  0.20296349  1
  F  F451  1  0.54370378  0.75159951  0.70123579  1
  F  F452  1  0.87546701  0.25033482  0.19643026  1
  F  F453  1  0.87903450  0.25810735  0.69594016  1
  F  F454  1  0.86493150  0.74965891  0.20214184  1
  F  F455  1  0.88281820  0.73809939  0.70133877  1
  F  F456  1  0.28789999  -0.00089999  0.29777863  1
  F  F457  1  0.30032321  -0.00097901  0.80078893  1
  F  F458  1  0.28937602  0.50109773  0.29505436  1
  F  F459  1  0.28693497  0.50147326  0.79826715  1
  F  F460  1  0.62378320  0.00212663  0.30127985  1
  F  F461  1  0.61996399  -0.00018042  0.79569799  1
  F  F462  1  0.61715102  0.50110586  0.29677327  1
  F  F463  1  0.61995919  0.49835410  0.79754599  1
  F  F464  1  0.95336975  -0.00125378  0.29503596  1
  F  F465  1  0.95454879  -0.00030564  0.79649841  1
  F  F466  1  0.95627017  0.49826548  0.29806029  1
  F  F467  1  0.95506109  0.50181982  0.79695878  1
  F  F468  1  0.12220870  0.25215317  0.29399610  1
  F  F469  1  0.12336060  0.25080039  0.79413891  1
  F  F470  1  0.13747958  0.74988397  0.30266622  1
  F  F471  1  0.11746209  0.74091574  0.80398139  1
  F  F472  1  0.45558432  0.24838383  0.29648663  1
  F  F473  1  0.45280518  0.24700105  0.79661973  1
  F  F474  1  0.45248097  0.74965112  0.29818880  1
  F  F475  1  0.45487041  0.75133771  0.79611041  1
  F  F476  1  0.78637472  0.24537091  0.29491743  1
  F  F477  1  0.78504593  0.25025811  0.79608385  1
  F  F478  1  0.78497883  0.75144574  0.30258974  1
  F  F479  1  0.78323031  0.74237273  0.80332387  1
