# generated using pymatgen
data_K24Na3Li5Mg64Fe17Si79(O5F)48
_symmetry_space_group_name_H-M   'P 1'
_cell_length_a   16.07784034
_cell_length_b   18.59564639
_cell_length_c   20.56076943
_cell_angle_alpha   90.00551126
_cell_angle_beta   100.02002614
_cell_angle_gamma   90.00607282
_symmetry_Int_Tables_number   1
_chemical_formula_structural   K24Na3Li5Mg64Fe17Si79(O5F)48
_chemical_formula_sum   'K24 Na3 Li5 Mg64 Fe17 Si79 O240 F48'
_cell_volume   6053.45076149
_cell_formula_units_Z   1
loop_
 _symmetry_equiv_pos_site_id
 _symmetry_equiv_pos_as_xyz
  1  'x, y, z'
loop_
 _atom_site_type_symbol
 _atom_site_label
 _atom_site_symmetry_multiplicity
 _atom_site_fract_x
 _atom_site_fract_y
 _atom_site_fract_z
 _atom_site_occupancy
  K  K0  1  -0.00239763  -0.00682008  -0.00672098  1
  K  K1  1  0.00619729  -0.00356800  0.50176648  1
  K  K2  1  -0.01449960  0.49399989  -0.00479469  1
  K  K3  1  0.00003969  0.50291791  0.50545247  1
  K  K4  1  0.33201889  0.00168313  -0.01143647  1
  K  K5  1  0.33467145  0.00843271  0.50016477  1
  K  K6  1  0.32578124  0.49920848  -0.01153385  1
  K  K7  1  0.32901599  0.49947877  0.51291904  1
  K  K8  1  0.66027897  -0.00104274  -0.00212872  1
  K  K9  1  0.67420819  0.00557735  0.50370879  1
  K  K10  1  0.67228623  0.49941572  0.00104077  1
  K  K11  1  0.67557593  0.50417610  0.50609649  1
  K  K12  1  0.16889331  0.25860515  -0.01454936  1
  K  K13  1  0.17168772  0.25267639  0.50923698  1
  K  K14  1  0.15425212  0.75309708  -0.00596022  1
  K  K15  1  0.16140346  0.74535190  0.50050041  1
  K  K16  1  0.49508228  0.25485399  -0.01356787  1
  K  K17  1  0.51144251  0.25545239  0.51641673  1
  K  K18  1  0.50368132  0.75572124  0.00079613  1
  K  K19  1  0.51674485  0.74487836  0.50159961  1
  K  K20  1  0.84134018  0.26131230  -0.00527264  1
  K  K21  1  0.82886987  0.24754707  0.50960262  1
  K  K22  1  0.83443510  0.74671486  -0.00050616  1
  K  K23  1  0.82954034  0.74519834  0.50131939  1
  Na  Na24  1  0.16758097  -0.00082950  0.75221109  1
  Na  Na25  1  0.49239397  0.33609147  0.74744309  1
  Na  Na26  1  0.67647454  0.57770942  0.24693123  1
  Li  Li27  1  0.83223262  0.49797145  0.75076889  1
  Li  Li28  1  0.84477965  0.50853775  0.24934737  1
  Li  Li29  1  0.83377806  0.65681040  0.25126896  1
  Li  Li30  1  -0.01498448  0.58240432  0.25159653  1
  Li  Li31  1  0.33247326  0.41112580  0.74952554  1
  Mg  Mg32  1  0.33028064  0.25214026  0.75074086  1
  Mg  Mg33  1  -0.00086865  0.25178880  0.75417103  1
  Mg  Mg34  1  0.50371393  0.49945781  0.24903376  1
  Mg  Mg35  1  0.49929928  -0.00148749  0.74685517  1
  Mg  Mg36  1  0.33271633  0.74835357  0.24816410  1
  Mg  Mg37  1  0.66876457  0.74645870  0.25026670  1
  Mg  Mg38  1  0.33290789  0.75340880  0.74662075  1
  Mg  Mg39  1  0.83385135  -0.00068319  0.75242122  1
  Mg  Mg40  1  0.16380831  0.50103788  0.24695193  1
  Mg  Mg41  1  0.16507235  -0.00316243  0.25277243  1
  Mg  Mg42  1  -0.00594272  0.74324820  0.25180075  1
  Mg  Mg43  1  0.83205785  -0.00322943  0.25184981  1
  Mg  Mg44  1  0.33398432  0.25077155  0.24875443  1
  Mg  Mg45  1  0.00147655  0.25200796  0.24640663  1
  Mg  Mg46  1  0.66351909  0.25434337  0.74746266  1
  Mg  Mg47  1  0.16962897  0.49931488  0.75503639  1
  Mg  Mg48  1  0.49650264  0.49893859  0.74904090  1
  Mg  Mg49  1  0.50016522  -0.00247370  0.24772889  1
  Mg  Mg50  1  0.66834385  0.75115093  0.74693311  1
  Mg  Mg51  1  -0.00068618  0.75149547  0.75243637  1
  Mg  Mg52  1  0.66958994  0.25050117  0.24889956  1
  Mg  Mg53  1  0.16231991  0.66397231  0.24930475  1
  Mg  Mg54  1  0.83607365  0.33901390  0.24727170  1
  Mg  Mg55  1  0.33323366  0.08299845  0.24875039  1
  Mg  Mg56  1  0.16423054  0.83217369  0.25312249  1
  Mg  Mg57  1  0.33431196  0.58303020  0.24873428  1
  Mg  Mg58  1  0.50250586  0.83320594  0.24765103  1
  Mg  Mg59  1  0.33347073  0.41617194  0.24793942  1
  Mg  Mg60  1  0.33268458  0.91316054  0.24959264  1
  Mg  Mg61  1  0.49788197  0.66733644  0.74707792  1
  Mg  Mg62  1  0.83091859  0.82920165  0.25200404  1
  Mg  Mg63  1  0.17046174  0.33646922  0.75575840  1
  Mg  Mg64  1  0.49608125  0.16723914  0.74885547  1
  Mg  Mg65  1  -0.00119964  0.41694842  0.75403452  1
  Mg  Mg66  1  0.50531254  0.66429311  0.24978443  1
  Mg  Mg67  1  0.16443353  0.66654051  0.74932432  1
  Mg  Mg68  1  -0.00072260  0.91122212  0.25534708  1
  Mg  Mg69  1  0.83562871  0.16643486  0.24987948  1
  Mg  Mg70  1  -0.00304663  0.58231131  0.75297292  1
  Mg  Mg71  1  0.16591642  0.83516480  0.75134707  1
  Mg  Mg72  1  0.66776309  0.08333837  0.24806187  1
  Mg  Mg73  1  0.83368574  0.83393851  0.75091609  1
  Mg  Mg74  1  0.16720228  0.16667785  0.75498050  1
  Mg  Mg75  1  0.50291426  0.33433978  0.24942085  1
  Mg  Mg76  1  0.00061509  0.08253572  0.25069200  1
  Mg  Mg77  1  0.66568612  0.91599289  0.74745283  1
  Mg  Mg78  1  0.66566359  0.58144059  0.74726529  1
  Mg  Mg79  1  -0.00069559  0.41979341  0.24367940  1
  Mg  Mg80  1  0.33144138  0.58288736  0.75018060  1
  Mg  Mg81  1  0.66658730  0.41751846  0.74962501  1
  Mg  Mg82  1  0.50073661  0.16551678  0.24756515  1
  Mg  Mg83  1  0.33016596  0.08440126  0.75137485  1
  Mg  Mg84  1  0.00059504  0.08334925  0.75662030  1
  Mg  Mg85  1  0.66284741  0.08577278  0.74818314  1
  Mg  Mg86  1  0.16582744  0.16491282  0.24802109  1
  Mg  Mg87  1  0.67219913  0.41807237  0.24838074  1
  Mg  Mg88  1  0.83182796  0.33748790  0.75107186  1
  Mg  Mg89  1  0.33254961  0.91628239  0.74681824  1
  Mg  Mg90  1  0.83224297  0.66299564  0.75138378  1
  Mg  Mg91  1  0.66547519  0.91195103  0.24887597  1
  Mg  Mg92  1  0.49929555  0.83498254  0.74454602  1
  Mg  Mg93  1  0.83150858  0.16776261  0.75250860  1
  Mg  Mg94  1  0.00158804  0.91377500  0.75257131  1
  Mg  Mg95  1  0.16492057  0.33501718  0.24624296  1
  Fe  Fe96  1  0.97105954  0.83406334  0.89453486  1
  Fe  Fe97  1  0.31507255  0.33856586  0.89511187  1
  Fe  Fe98  1  0.53168572  0.91687331  0.60569404  1
  Fe  Fe99  1  0.52567332  0.42067160  0.60747141  1
  Fe  Fe100  1  0.13641813  0.91346233  0.39272167  1
  Fe  Fe101  1  0.02539820  0.33079364  0.10690389  1
  Fe  Fe102  1  0.70556158  0.83457155  0.60957742  1
  Fe  Fe103  1  0.63537442  0.83213047  0.39013696  1
  Fe  Fe104  1  0.97508676  0.33423546  0.89219021  1
  Fe  Fe105  1  0.52384494  0.91915052  0.10583054  1
  Fe  Fe106  1  0.19800942  0.92123919  0.60738967  1
  Fe  Fe107  1  0.80463705  0.91854459  0.39026623  1
  Fe  Fe108  1  0.36281863  0.83368681  0.60538385  1
  Fe  Fe109  1  0.19371036  0.41398641  0.61453266  1
  Fe  Fe110  1  0.69549429  0.33685606  0.60769045  1
  Fe  Fe111  1  0.30991110  0.16572731  0.89423847  1
  Fe  Fe112  1  0.03341199  0.83314258  0.61128532  1
  Si  Si113  1  0.85786492  0.08273373  0.61922562  1
  Si  Si114  1  0.63956515  0.83321228  0.88438527  1
  Si  Si115  1  0.47872835  0.07798278  0.88625456  1
  Si  Si116  1  0.81413817  0.08945915  0.38652692  1
  Si  Si117  1  0.02315716  0.66752947  0.11412508  1
  Si  Si118  1  0.35510869  0.82847998  0.11072229  1
  Si  Si119  1  0.02050937  0.16942928  0.61992075  1
  Si  Si120  1  0.64286699  0.33200671  0.38381307  1
  Si  Si121  1  0.96617696  0.82477283  0.38968298  1
  Si  Si122  1  0.87159128  0.92019923  0.61594989  1
  Si  Si123  1  0.35140209  0.66733056  0.61350119  1
  Si  Si124  1  0.64325651  0.67027719  0.88400990  1
  Si  Si125  1  0.14752125  0.58317751  0.38464813  1
  Si  Si126  1  0.68977792  0.16506625  0.61359238  1
  Si  Si127  1  0.47588202  0.41481902  0.38335103  1
  Si  Si128  1  0.85996083  0.57918978  0.61796011  1
  Si  Si129  1  0.19400202  0.07986513  0.11466631  1
  Si  Si130  1  0.80156819  0.08796073  0.88690210  1
  Si  Si131  1  0.18595091  0.09094561  0.61412286  1
  Si  Si132  1  0.97128075  0.66229614  0.89006315  1
  Si  Si133  1  0.63672988  0.33546895  0.88583127  1
  Si  Si134  1  0.51937736  0.08526799  0.61219504  1
  Si  Si135  1  0.52814029  0.41450548  0.11349336  1
  Si  Si136  1  0.02071987  0.66587833  0.61555977  1
  Si  Si137  1  0.80931074  0.41399077  0.38514122  1
  Si  Si138  1  0.35718654  0.66205211  0.11247504  1
  Si  Si139  1  0.69562349  0.16919543  0.11338754  1
  Si  Si140  1  0.19234388  0.91385162  0.11522150  1
  Si  Si141  1  0.02771177  0.33163528  0.61753630  1
  Si  Si142  1  0.02535976  0.83273582  0.11643122  1
  Si  Si143  1  0.69355499  0.82975238  0.10858770  1
  Si  Si144  1  0.97761849  0.33760033  0.38312770  1
  Si  Si145  1  0.64194137  0.16592226  0.38354321  1
  Si  Si146  1  0.14282626  0.58941929  0.88642231  1
  Si  Si147  1  0.36131956  0.33601151  0.11466287  1
  Si  Si148  1  0.47912967  0.57978842  0.38447846  1
  Si  Si149  1  0.97351808  0.16143834  0.89123331  1
  Si  Si150  1  0.47634361  0.91385477  0.88364613  1
  Si  Si151  1  0.80044220  0.41571776  0.88873387  1
  Si  Si152  1  0.86701242  0.41522418  0.61473925  1
  Si  Si153  1  0.14146967  0.42439239  0.89360183  1
  Si  Si154  1  0.18874616  0.58342168  0.11279711  1
  Si  Si155  1  0.18724773  0.58280223  0.61502291  1
  Si  Si156  1  0.35594125  0.17082743  0.11424552  1
  Si  Si157  1  0.13773876  0.08166309  0.89186802  1
  Si  Si158  1  0.52374959  0.09161061  0.10997228  1
  Si  Si159  1  0.46300580  0.91595646  0.38484037  1
  Si  Si160  1  0.63727908  0.17024391  0.88498772  1
  Si  Si161  1  0.85675210  0.58658244  0.11409039  1
  Si  Si162  1  0.80279145  0.58095755  0.88506271  1
  Si  Si163  1  0.14451488  0.41878687  0.38334966  1
  Si  Si164  1  0.80045855  0.92250257  0.88997428  1
  Si  Si165  1  0.14359537  0.91323109  0.89251133  1
  Si  Si166  1  0.35574978  0.33017662  0.60891534  1
  Si  Si167  1  0.97856587  0.66057509  0.38591652  1
  Si  Si168  1  0.19681206  0.41785219  0.11170045  1
  Si  Si169  1  0.85676966  0.07722801  0.11553255  1
  Si  Si170  1  0.85805746  0.42168227  0.11058455  1
  Si  Si171  1  0.47459322  0.08267129  0.38294512  1
  Si  Si172  1  0.81486138  0.57768987  0.38471215  1
  Si  Si173  1  0.47771696  0.59019749  0.88563725  1
  Si  Si174  1  0.31433027  0.66463200  0.38418724  1
  Si  Si175  1  0.51867727  0.58752836  0.61252498  1
  Si  Si176  1  0.14359624  0.08683602  0.38703828  1
  Si  Si177  1  0.30401148  0.82849691  0.38467575  1
  Si  Si178  1  0.69172539  0.66247476  0.61315266  1
  Si  Si179  1  0.30996693  0.67035736  0.88517652  1
  Si  Si180  1  0.30967873  0.16917880  0.38336059  1
  Si  Si181  1  0.69559299  0.33512889  0.11344767  1
  Si  Si182  1  0.85948845  0.91216513  0.11608963  1
  Si  Si183  1  0.35404353  0.16779886  0.61341594  1
  Si  Si184  1  0.31056128  0.83459590  0.88700060  1
  Si  Si185  1  0.52381469  0.58111683  0.11242624  1
  Si  Si186  1  0.30883969  0.33434276  0.38337171  1
  Si  Si187  1  0.02322124  0.15795759  0.11186261  1
  Si  Si188  1  0.64744486  0.66205150  0.38699272  1
  Si  Si189  1  0.69034586  0.66672179  0.11196969  1
  Si  Si190  1  0.97805317  0.17342153  0.38369429  1
  Si  Si191  1  0.47724403  0.42796066  0.88953430  1
  O  O192  1  0.27214356  0.12117183  0.08743180  1
  O  O193  1  0.26921691  0.12025511  0.58254350  1
  O  O194  1  0.26880467  0.61890795  0.08325537  1
  O  O195  1  0.27424331  0.60869270  0.58816286  1
  O  O196  1  0.60412392  0.13247762  0.08385741  1
  O  O197  1  0.60482032  0.11614043  0.58589629  1
  O  O198  1  0.60101386  0.62085317  0.08280461  1
  O  O199  1  0.60509841  0.61532635  0.58567556  1
  O  O200  1  0.93949036  0.10604773  0.08661231  1
  O  O201  1  0.93921732  0.11691229  0.59016363  1
  O  O202  1  0.93411766  0.62725758  0.08186599  1
  O  O203  1  0.94228098  0.60914594  0.58800463  1
  O  O204  1  0.12328140  0.36490858  0.07772759  1
  O  O205  1  0.10657480  0.34750903  0.58090346  1
  O  O206  1  0.10184281  0.87445847  0.08731224  1
  O  O207  1  0.12268540  0.85174067  0.56898201  1
  O  O208  1  0.44428992  0.36485852  0.08586234  1
  O  O209  1  0.44094140  0.35159947  0.58047522  1
  O  O210  1  0.42540386  0.86443192  0.07399729  1
  O  O211  1  0.46217916  0.84188077  0.57237744  1
  O  O212  1  0.76710397  0.37903387  0.08251511  1
  O  O213  1  0.79485707  0.36289299  0.57579684  1
  O  O214  1  0.77983729  0.86159891  0.08363927  1
  O  O215  1  0.80685823  0.85919313  0.58142201  1
  O  O216  1  0.28583071  0.39257704  0.08752872  1
  O  O217  1  0.28002036  0.38166043  0.57055232  1
  O  O218  1  0.26323374  0.86854283  0.08408689  1
  O  O219  1  0.29462272  0.90922563  0.57119351  1
  O  O220  1  0.60473383  0.37419544  0.08410732  1
  O  O221  1  0.61100356  0.39377204  0.56177377  1
  O  O222  1  0.61510382  0.87812052  0.07177377  1
  O  O223  1  0.63071993  0.90426847  0.57386898  1
  O  O224  1  0.92903943  0.38522006  0.07396374  1
  O  O225  1  0.95479177  0.39142156  0.58828610  1
  O  O226  1  0.94088300  0.88016290  0.08639969  1
  O  O227  1  0.95994377  0.91127510  0.58942050  1
  O  O228  1  0.10344984  0.11779446  0.08540336  1
  O  O229  1  0.10429610  0.14706043  0.58851815  1
  O  O230  1  0.10228933  0.62893903  0.08393750  1
  O  O231  1  0.10717017  0.63822897  0.58878616  1
  O  O232  1  0.43914433  0.14285465  0.08571933  1
  O  O233  1  0.43872929  0.13995061  0.58488382  1
  O  O234  1  0.43397584  0.62314879  0.08119649  1
  O  O235  1  0.43930898  0.64377399  0.58698784  1
  O  O236  1  0.77173512  0.12508885  0.08578100  1
  O  O237  1  0.77269922  0.12858148  0.58755858  1
  O  O238  1  0.76708243  0.62763176  0.08045934  1
  O  O239  1  0.77214247  0.62218337  0.58653067  1
  O  O240  1  0.06263996  0.12633505  0.41317669  1
  O  O241  1  0.05016573  0.10468161  0.91993818  1
  O  O242  1  0.06830057  0.61645257  0.41549145  1
  O  O243  1  0.06411855  0.62385646  0.91789026  1
  O  O244  1  0.39659652  0.12370985  0.41120707  1
  O  O245  1  0.40512647  0.10511136  0.92415979  1
  O  O246  1  0.39877464  0.61604250  0.41251031  1
  O  O247  1  0.39655458  0.62458781  0.91566026  1
  O  O248  1  0.73074543  0.12521957  0.41337142  1
  O  O249  1  0.72884217  0.13361471  0.91658786  1
  O  O250  1  0.73309127  0.61278091  0.41321401  1
  O  O251  1  0.72877110  0.62520581  0.91647835  1
  O  O252  1  0.22902186  0.36954907  0.41212940  1
  O  O253  1  0.22464583  0.38140666  0.92894554  1
  O  O254  1  0.22113280  0.84381866  0.41603429  1
  O  O255  1  0.23586144  0.87223930  0.92038938  1
  O  O256  1  0.56160663  0.36822992  0.41035814  1
  O  O257  1  0.56299867  0.37824367  0.91638213  1
  O  O258  1  0.53366175  0.86072804  0.41786671  1
  O  O259  1  0.55660839  0.86127286  0.91407264  1
  O  O260  1  0.89764864  0.36942319  0.41429869  1
  O  O261  1  0.88498291  0.37632377  0.92580699  1
  O  O262  1  0.88041848  0.84317292  0.41761070  1
  O  O263  1  0.88457947  0.88382958  0.92896051  1
  O  O264  1  0.06327420  0.38461603  0.41170283  1
  O  O265  1  0.06196829  0.39776162  0.92646792  1
  O  O266  1  0.03857739  0.88239967  0.42075802  1
  O  O267  1  0.07562511  0.87698318  0.93294469  1
  O  O268  1  0.39585655  0.37864808  0.41184421  1
  O  O269  1  0.40711322  0.39928713  0.93076846  1
  O  O270  1  0.37400075  0.89200036  0.40868064  1
  O  O271  1  0.39703089  0.88083464  0.91557023  1
  O  O272  1  0.73074075  0.37371833  0.41479480  1
  O  O273  1  0.72400000  0.37602597  0.92078746  1
  O  O274  1  0.70779396  0.90490935  0.42421485  1
  O  O275  1  0.71799342  0.88584080  0.91617426  1
  O  O276  1  0.22854642  0.13771658  0.41238684  1
  O  O277  1  0.21618830  0.12823360  0.93002158  1
  O  O278  1  0.23450156  0.62988758  0.41465414  1
  O  O279  1  0.22926223  0.63679757  0.91533238  1
  O  O280  1  0.56330313  0.12594032  0.41120746  1
  O  O281  1  0.56627584  0.12411929  0.91583289  1
  O  O282  1  0.56773583  0.61942626  0.41496505  1
  O  O283  1  0.56099913  0.64083029  0.91445913  1
  O  O284  1  0.89344149  0.14646788  0.41122204  1
  O  O285  1  0.89086896  0.12632637  0.91880405  1
  O  O286  1  0.90353638  0.62001641  0.41912020  1
  O  O287  1  0.89666298  0.61395945  0.91652239  1
  O  O288  1  0.19009550  -0.00316063  0.08633446  1
  O  O289  1  0.15667099  0.01507348  0.58046063  1
  O  O290  1  0.17884643  0.50110256  0.08426940  1
  O  O291  1  0.16059417  0.50668683  0.57948894  1
  O  O292  1  0.50871407  0.01519717  0.07330551  1
  O  O293  1  0.49307305  0.01022595  0.57575841  1
  O  O294  1  0.51586330  0.49700567  0.08372730  1
  O  O295  1  0.48932450  0.51327743  0.57503046  1
  O  O296  1  0.83921236  -0.00510662  0.08709269  1
  O  O297  1  0.83756434  0.00216580  0.59002091  1
  O  O298  1  0.84547219  0.50472055  0.08134923  1
  O  O299  1  0.84593356  0.49798933  0.58674997  1
  O  O300  1  0.00422501  0.23481574  0.07751750  1
  O  O301  1  -0.00923915  0.25022600  0.59240204  1
  O  O302  1  0.01697777  0.75126189  0.08428493  1
  O  O303  1  -0.00891442  0.74132525  0.58102315  1
  O  O304  1  0.33625929  0.25385699  0.08856988  1
  O  O305  1  0.33243214  0.24670517  0.57961793  1
  O  O306  1  0.34309728  0.74417423  0.08396992  1
  O  O307  1  0.31731946  0.74159825  0.57893478  1
  O  O308  1  0.69349472  0.25175473  0.08434478  1
  O  O309  1  0.67506947  0.24085234  0.57552840  1
  O  O310  1  0.67889518  0.74747642  0.07683999  1
  O  O311  1  0.67840951  0.73986913  0.57843169  1
  O  O312  1  0.16197804  0.00982084  0.42111516  1
  O  O313  1  0.15680619  -0.00248242  0.91764277  1
  O  O314  1  0.16302934  0.49996649  0.41398262  1
  O  O315  1  0.16031537  0.50974173  0.91826279  1
  O  O316  1  0.48074913  0.00074431  0.41104144  1
  O  O317  1  0.50139011  -0.00573983  0.91342267  1
  O  O318  1  0.48746049  0.49653611  0.41217525  1
  O  O319  1  0.50130855  0.51144725  0.91925173  1
  O  O320  1  0.84090202  0.01397517  0.42071608  1
  O  O321  1  0.80076843  0.00653618  0.91774799  1
  O  O322  1  0.82177806  0.49459805  0.41760110  1
  O  O323  1  0.80085368  0.50001587  0.91637388  1
  O  O324  1  0.32388727  0.25175881  0.41127893  1
  O  O325  1  0.33495770  0.25117738  0.93938295  1
  O  O326  1  0.33750473  0.74677749  0.40996440  1
  O  O327  1  0.32538256  0.75194686  0.91735150  1
  O  O328  1  0.64946353  0.24869572  0.41219489  1
  O  O329  1  0.63832642  0.25205570  0.91596841  1
  O  O330  1  0.66151324  0.73818669  0.42467073  1
  O  O331  1  0.66088795  0.75200227  0.91463576  1
  O  O332  1  0.99715557  0.25542778  0.41214865  1
  O  O333  1  0.99364541  0.23907701  0.92557351  1
  O  O334  1  0.99439173  0.74219509  0.41669960  1
  O  O335  1  0.97343827  0.73877017  0.92793086  1
  O  O336  1  0.21059863  0.08166190  0.19542983  1
  O  O337  1  0.20982889  0.09229698  0.69365469  1
  O  O338  1  0.21034198  0.58394547  0.19322284  1
  O  O339  1  0.20679114  0.58432474  0.69604887  1
  O  O340  1  0.54274817  0.08716797  0.19117200  1
  O  O341  1  0.54029564  0.08362124  0.69336621  1
  O  O342  1  0.53415119  0.58081299  0.19168044  1
  O  O343  1  0.54024273  0.58653350  0.69365022  1
  O  O344  1  0.87540930  0.08190789  0.19602790  1
  O  O345  1  0.87503942  0.08499951  0.69974283  1
  O  O346  1  0.87640112  0.58561690  0.19187012  1
  O  O347  1  0.87798253  0.58449541  0.69748038  1
  O  O348  1  0.04624361  0.33222566  0.19903720  1
  O  O349  1  0.04549365  0.33353474  0.69822646  1
  O  O350  1  0.04285268  0.83137357  0.19628338  1
  O  O351  1  0.04630129  0.83091267  0.70339363  1
  O  O352  1  0.37949361  0.33347935  0.19554076  1
  O  O353  1  0.36240805  0.32864738  0.68788867  1
  O  O354  1  0.37444841  0.83119141  0.19177670  1
  O  O355  1  0.37935114  0.83319126  0.69883327  1
  O  O356  1  0.71146208  0.33072914  0.19369823  1
  O  O357  1  0.71186745  0.33455953  0.69970487  1
  O  O358  1  0.70796614  0.83209077  0.18873101  1
  O  O359  1  0.71458042  0.83402056  0.70227384  1
  O  O360  1  0.21333262  0.41670445  0.19297430  1
  O  O361  1  0.20758080  0.41933760  0.70449090  1
  O  O362  1  0.21129180  0.91525899  0.19548219  1
  O  O363  1  0.21531719  0.90855981  0.69803192  1
  O  O364  1  0.54338564  0.41404125  0.19379507  1
  O  O365  1  0.54993297  0.42675939  0.69749355  1
  O  O366  1  0.54222111  0.91850126  0.19739315  1
  O  O367  1  0.54621349  0.91785791  0.69912273  1
  O  O368  1  0.87899023  0.41388395  0.19021720  1
  O  O369  1  0.87956993  0.41403015  0.69456805  1
  O  O370  1  0.87913468  0.91582197  0.19605448  1
  O  O371  1  0.87718971  0.91895880  0.69726337  1
  O  O372  1  0.04335256  0.16232632  0.19321740  1
  O  O373  1  0.03973141  0.16677121  0.70025219  1
  O  O374  1  0.04481818  0.66874984  0.19329967  1
  O  O375  1  0.03982494  0.66549462  0.69683529  1
  O  O376  1  0.37588493  0.16772897  0.19508620  1
  O  O377  1  0.37441708  0.16582252  0.69355022  1
  O  O378  1  0.37571092  0.66287750  0.19291850  1
  O  O379  1  0.37289599  0.66743118  0.69479924  1
  O  O380  1  0.71207837  0.16767932  0.19408377  1
  O  O381  1  0.70872430  0.16645861  0.69454708  1
  O  O382  1  0.70695249  0.67276345  0.18998859  1
  O  O383  1  0.70970495  0.66475980  0.69417457  1
  O  O384  1  0.12472258  0.08526857  0.30555956  1
  O  O385  1  0.11876863  0.09041715  0.81240753  1
  O  O386  1  0.13375582  0.58190900  0.30522902  1
  O  O387  1  0.12212585  0.58784025  0.80651603  1
  O  O388  1  0.45663668  0.08473093  0.30207309  1
  O  O389  1  0.46040418  0.08143368  0.80577750  1
  O  O390  1  0.45827876  0.58097193  0.30374308  1
  O  O391  1  0.45732974  0.58928379  0.80576236  1
  O  O392  1  0.79164476  0.08714334  0.30515920  1
  O  O393  1  0.78596244  0.08597068  0.80674300  1
  O  O394  1  0.80268536  0.57638666  0.30708593  1
  O  O395  1  0.78472088  0.58617071  0.80601051  1
  O  O396  1  0.29077247  0.33347573  0.30259010  1
  O  O397  1  0.28974191  0.33023025  0.80541469  1
  O  O398  1  0.28865733  0.82951838  0.30290460  1
  O  O399  1  0.29099693  0.83209371  0.80756454  1
  O  O400  1  0.62505775  0.33082160  0.30319879  1
  O  O401  1  0.62792028  0.33321817  0.80725933  1
  O  O402  1  0.62054555  0.83051170  0.29739531  1
  O  O403  1  0.62288750  0.83231108  0.80477190  1
  O  O404  1  0.95747367  0.33410560  0.30302091  1
  O  O405  1  0.95328084  0.33324676  0.80107826  1
  O  O406  1  0.95487376  0.82864238  0.30786276  1
  O  O407  1  0.95153888  0.83277639  0.80371386  1
  O  O408  1  0.12898258  0.41709767  0.30332299  1
  O  O409  1  0.12245605  0.41991130  0.81264643  1
  O  O410  1  0.12094675  0.91587088  0.29994008  1
  O  O411  1  0.11948451  0.90730135  0.81355346  1
  O  O412  1  0.45605225  0.41444525  0.30273797  1
  O  O413  1  0.45367638  0.42926396  0.81092343  1
  O  O414  1  0.45114529  0.91747851  0.30338241  1
  O  O415  1  0.45817638  0.91502351  0.80419082  1
  O  O416  1  0.78882315  0.40970898  0.30573789  1
  O  O417  1  0.78610075  0.41464332  0.80920054  1
  O  O418  1  0.78578620  0.91698233  0.29695821  1
  O  O419  1  0.78858337  0.92008621  0.80965419  1
  O  O420  1  0.29143594  0.16711384  0.30266150  1
  O  O421  1  0.28825883  0.16572408  0.80255811  1
  O  O422  1  0.29253075  0.66368029  0.30333134  1
  O  O423  1  0.29126481  0.67011360  0.80535858  1
  O  O424  1  0.62402435  0.16656263  0.30274944  1
  O  O425  1  0.62198427  0.16774744  0.80500394  1
  O  O426  1  0.62077390  0.66795549  0.30737061  1
  O  O427  1  0.62406592  0.66815061  0.80405663  1
  O  O428  1  0.95965959  0.16901602  0.30283460  1
  O  O429  1  0.95382377  0.16512426  0.81040358  1
  O  O430  1  0.96112737  0.66378886  0.30711322  1
  O  O431  1  0.95508617  0.66531031  0.80953990  1
  F  F432  1  0.04429649  0.00081437  0.20169306  1
  F  F433  1  0.03239923  0.00156765  0.70741876  1
  F  F434  1  0.05217509  0.49403855  0.19365958  1
  F  F435  1  0.04618904  0.50077450  0.70715053  1
  F  F436  1  0.37641388  0.00046044  0.20016964  1
  F  F437  1  0.37863959  0.00273946  0.70195063  1
  F  F438  1  0.37976456  0.49875943  0.20088332  1
  F  F439  1  0.37765606  0.50663188  0.70190498  1
  F  F440  1  0.71158013  0.00449591  0.19861807  1
  F  F441  1  0.71333995  0.00274449  0.70449236  1
  F  F442  1  0.70421919  0.48424665  0.18673800  1
  F  F443  1  0.71090045  0.50082970  0.70211847  1
  F  F444  1  0.21340841  0.24851663  0.20075987  1
  F  F445  1  0.20477124  0.25049854  0.70434476  1
  F  F446  1  0.21076762  0.74816081  0.20127108  1
  F  F447  1  0.21009421  0.74850871  0.70480898  1
  F  F448  1  0.54649956  0.24982497  0.20088084  1
  F  F449  1  0.54801371  0.24035307  0.69796794  1
  F  F450  1  0.54108625  0.74610797  0.19742757  1
  F  F451  1  0.54683470  0.74890388  0.70177124  1
  F  F452  1  0.87849618  0.24901852  0.20050807  1
  F  F453  1  0.87709962  0.24699160  0.70395039  1
  F  F454  1  0.88177310  0.75714312  0.19794282  1
  F  F455  1  0.87689391  0.74632415  0.70495719  1
  F  F456  1  0.28861216  0.00075613  0.29686748  1
  F  F457  1  0.30333821  -0.00125107  0.80352378  1
  F  F458  1  0.28950126  0.49902435  0.29569345  1
  F  F459  1  0.28413192  0.51507457  0.80789296  1
  F  F460  1  0.61975637  0.00575518  0.29599115  1
  F  F461  1  0.62226196  0.00284449  0.79860268  1
  F  F462  1  0.61665995  0.48731635  0.30117619  1
  F  F463  1  0.62073383  0.50551237  0.80097072  1
  F  F464  1  0.95498301  0.00123644  0.29819746  1
  F  F465  1  0.95091617  0.00056344  0.80549192  1
  F  F466  1  0.96485882  0.49360512  0.29860014  1
  F  F467  1  0.95732269  0.50072585  0.80246366  1
  F  F468  1  0.12469140  0.24783666  0.29728252  1
  F  F469  1  0.11936154  0.25149704  0.80286118  1
  F  F470  1  0.12108111  0.74697786  0.29755920  1
  F  F471  1  0.12259842  0.74578083  0.80284835  1
  F  F472  1  0.45631013  0.24939537  0.29716657  1
  F  F473  1  0.45033196  0.24057403  0.80160961  1
  F  F474  1  0.45266137  0.74750262  0.29354893  1
  F  F475  1  0.45671631  0.74940929  0.79805940  1
  F  F476  1  0.79012580  0.25003380  0.29672201  1
  F  F477  1  0.78598783  0.24811327  0.80035174  1
  F  F478  1  0.78529267  0.75073895  0.29800379  1
  F  F479  1  0.78766910  0.74687864  0.80091462  1
