# generated using pymatgen
data_K24Na3Li5Mg64Fe17Si79(O5F)48
_symmetry_space_group_name_H-M   'P 1'
_cell_length_a   16.10915356
_cell_length_b   18.61562952
_cell_length_c   20.57367749
_cell_angle_alpha   90.00783791
_cell_angle_beta   100.03178315
_cell_angle_gamma   90.00446290
_symmetry_Int_Tables_number   1
_chemical_formula_structural   K24Na3Li5Mg64Fe17Si79(O5F)48
_chemical_formula_sum   'K24 Na3 Li5 Mg64 Fe17 Si79 O240 F48'
_cell_volume   6075.34969316
_cell_formula_units_Z   1
loop_
 _symmetry_equiv_pos_site_id
 _symmetry_equiv_pos_as_xyz
  1  'x, y, z'
loop_
 _atom_site_type_symbol
 _atom_site_label
 _atom_site_symmetry_multiplicity
 _atom_site_fract_x
 _atom_site_fract_y
 _atom_site_fract_z
 _atom_site_occupancy
  K  K0  1  -0.00318306  0.00327350  -0.02123589  1
  K  K1  1  -0.00358239  0.00581194  0.51438273  1
  K  K2  1  -0.01255658  0.50132133  -0.00321307  1
  K  K3  1  0.01302719  0.49044557  0.50279167  1
  K  K4  1  0.32571888  0.00945525  -0.01589351  1
  K  K5  1  0.33646446  -0.00330809  0.51027522  1
  K  K6  1  0.34037584  0.50760125  -0.00634893  1
  K  K7  1  0.31829098  0.50655130  0.50638260  1
  K  K8  1  0.67565549  0.00343078  -0.01447777  1
  K  K9  1  0.67294990  -0.00081498  0.51044609  1
  K  K10  1  0.65843878  0.49035905  -0.00609231  1
  K  K11  1  0.67340403  0.49886996  0.50610025  1
  K  K12  1  0.16572248  0.24521354  -0.01262532  1
  K  K13  1  0.17670869  0.25425760  0.51572334  1
  K  K14  1  0.16202101  0.74041061  -0.00491122  1
  K  K15  1  0.16885774  0.74419223  0.50496369  1
  K  K16  1  0.49867473  0.25287284  -0.01383139  1
  K  K17  1  0.50249790  0.25159765  0.51244236  1
  K  K18  1  0.50491517  0.74413510  -0.00182414  1
  K  K19  1  0.49207366  0.74718190  0.50967999  1
  K  K20  1  0.82336933  0.25995834  -0.01921895  1
  K  K21  1  0.82619238  0.24283869  0.51595188  1
  K  K22  1  0.83434918  0.75265973  -0.01388423  1
  K  K23  1  0.84523601  0.74684152  0.50591341  1
  Na  Na24  1  0.16732067  0.49940744  0.25703188  1
  Na  Na25  1  0.16545546  0.16940660  0.74905583  1
  Na  Na26  1  0.33385685  0.41759917  0.75427085  1
  Li  Li27  1  0.49789185  -0.00108227  0.24926494  1
  Li  Li28  1  0.66721132  0.75222466  0.74798776  1
  Li  Li29  1  0.16819367  0.16716732  0.24920754  1
  Li  Li30  1  -0.00175386  0.08865724  0.74622893  1
  Li  Li31  1  0.84198462  0.16290644  0.74519472  1
  Mg  Mg32  1  0.66699018  0.24741951  0.24646340  1
  Mg  Mg33  1  0.83799372  0.00122479  0.75043906  1
  Mg  Mg34  1  0.16783430  0.00352902  0.25079799  1
  Mg  Mg35  1  0.83128286  0.50109106  0.75076661  1
  Mg  Mg36  1  0.33402093  0.75337700  0.74948744  1
  Mg  Mg37  1  -0.00389638  0.24929453  0.74562570  1
  Mg  Mg38  1  0.83436309  0.49933177  0.24667670  1
  Mg  Mg39  1  0.33180679  0.74870684  0.25209851  1
  Mg  Mg40  1  0.16721736  0.50095582  0.75252125  1
  Mg  Mg41  1  0.66435254  0.74923147  0.24734786  1
  Mg  Mg42  1  -0.00189127  0.75174773  0.75335668  1
  Mg  Mg43  1  0.49980901  0.49970313  0.24646800  1
  Mg  Mg44  1  0.67061802  0.25107730  0.75249792  1
  Mg  Mg45  1  0.33165021  0.24689446  0.24835828  1
  Mg  Mg46  1  0.49901282  0.50009761  0.75120631  1
  Mg  Mg47  1  0.00330592  0.24953321  0.24713024  1
  Mg  Mg48  1  0.00099410  0.74794590  0.25511826  1
  Mg  Mg49  1  0.16362293  0.00523699  0.74840468  1
  Mg  Mg50  1  0.83343175  -0.00024819  0.24934667  1
  Mg  Mg51  1  0.33302816  0.25177632  0.75034711  1
  Mg  Mg52  1  0.50385539  -0.00154030  0.75109973  1
  Mg  Mg53  1  -0.00119092  0.41675176  0.74648454  1
  Mg  Mg54  1  0.50088681  0.66883362  0.74963454  1
  Mg  Mg55  1  0.33269639  0.91741017  0.74827475  1
  Mg  Mg56  1  0.83123753  0.83458630  0.75303203  1
  Mg  Mg57  1  0.16497491  0.83692823  0.74872462  1
  Mg  Mg58  1  0.33418664  0.08248091  0.24962781  1
  Mg  Mg59  1  0.33267647  0.58569944  0.75084265  1
  Mg  Mg60  1  0.66409188  0.58335261  0.24606021  1
  Mg  Mg61  1  0.83423706  0.83398738  0.25208250  1
  Mg  Mg62  1  0.16752811  0.33009925  0.24817817  1
  Mg  Mg63  1  0.83414243  0.16463221  0.24803683  1
  Mg  Mg64  1  0.66651888  0.41393014  0.24416040  1
  Mg  Mg65  1  0.67041520  0.91392291  0.74906526  1
  Mg  Mg66  1  0.33376270  0.41499242  0.24935103  1
  Mg  Mg67  1  0.50154246  0.16592729  0.75334828  1
  Mg  Mg68  1  0.00103148  0.58445516  0.25362140  1
  Mg  Mg69  1  0.67361135  0.08511244  0.75274236  1
  Mg  Mg70  1  0.49935654  0.16196406  0.24836303  1
  Mg  Mg71  1  0.66494998  0.41497543  0.75086263  1
  Mg  Mg72  1  0.00038018  0.41621365  0.24844226  1
  Mg  Mg73  1  0.83066798  0.33277354  0.75048686  1
  Mg  Mg74  1  0.49733864  0.66375397  0.24658638  1
  Mg  Mg75  1  0.66369329  0.08050291  0.24887208  1
  Mg  Mg76  1  0.83462906  0.33351716  0.24596424  1
  Mg  Mg77  1  0.50266617  0.83347922  0.74853279  1
  Mg  Mg78  1  0.33165356  0.58357917  0.25270430  1
  Mg  Mg79  1  0.00188536  0.91632991  0.25245835  1
  Mg  Mg80  1  -0.00221506  0.58590829  0.75235926  1
  Mg  Mg81  1  -0.00201422  0.91965757  0.75266280  1
  Mg  Mg82  1  0.33614485  0.91797920  0.25121966  1
  Mg  Mg83  1  0.16615344  0.33371798  0.74972630  1
  Mg  Mg84  1  0.00377357  0.08567203  0.24938471  1
  Mg  Mg85  1  0.49963455  0.33156414  0.24643584  1
  Mg  Mg86  1  0.83038709  0.66968582  0.75134479  1
  Mg  Mg87  1  0.16876727  0.83546898  0.25369126  1
  Mg  Mg88  1  0.33339376  0.08418345  0.75008008  1
  Mg  Mg89  1  0.66323292  0.91650992  0.25009582  1
  Mg  Mg90  1  0.83392841  0.66555351  0.24993794  1
  Mg  Mg91  1  0.66586797  0.58649831  0.75010070  1
  Mg  Mg92  1  0.16502350  0.66731215  0.75168343  1
  Mg  Mg93  1  0.50127311  0.33475965  0.75055932  1
  Mg  Mg94  1  0.16856064  0.66419147  0.25546332  1
  Mg  Mg95  1  0.49858517  0.83515561  0.24925471  1
  Fe  Fe96  1  0.63492362  0.33384854  0.89172807  1
  Fe  Fe97  1  0.30804069  0.66827416  0.39431456  1
  Fe  Fe98  1  0.19045950  0.08329732  0.60648132  1
  Fe  Fe99  1  0.19209811  0.41407458  0.61265660  1
  Fe  Fe100  1  0.96886703  0.66685450  0.39328967  1
  Fe  Fe101  1  0.13697620  0.57829759  0.39707155  1
  Fe  Fe102  1  0.86066389  0.91154619  0.61010099  1
  Fe  Fe103  1  0.01611991  0.17074585  0.60502563  1
  Fe  Fe104  1  0.97660911  0.66308739  0.89186998  1
  Fe  Fe105  1  0.85921696  0.41781762  0.10704107  1
  Fe  Fe106  1  0.69200298  0.82762472  0.60927457  1
  Fe  Fe107  1  0.81128004  0.91980818  0.89238068  1
  Fe  Fe108  1  0.36126551  0.83523856  0.61114885  1
  Fe  Fe109  1  0.69213511  0.33497893  0.60908542  1
  Fe  Fe110  1  0.31559791  0.16693235  0.89220218  1
  Fe  Fe111  1  0.46905756  0.42433247  0.89294455  1
  Fe  Fe112  1  0.52575547  0.58205965  0.10620104  1
  Si  Si113  1  0.97177169  0.32912379  0.38382505  1
  Si  Si114  1  0.19103434  0.91784053  0.11606520  1
  Si  Si115  1  0.47763360  0.91894817  0.38393615  1
  Si  Si116  1  0.80284386  0.58427255  0.88779571  1
  Si  Si117  1  0.19843769  0.41467293  0.11481367  1
  Si  Si118  1  0.63987902  0.66858229  0.88300502  1
  Si  Si119  1  0.03179767  0.33203926  0.10957749  1
  Si  Si120  1  0.14242853  0.40289434  0.38633849  1
  Si  Si121  1  0.03118363  0.83185882  0.61613249  1
  Si  Si122  1  0.52286186  0.08042812  0.11417647  1
  Si  Si123  1  0.02684384  0.83260964  0.11720304  1
  Si  Si124  1  0.30148820  0.33351889  0.89143368  1
  Si  Si125  1  0.18904057  0.58497062  0.61579793  1
  Si  Si126  1  0.80798486  0.41864045  0.88677431  1
  Si  Si127  1  0.52266059  0.91550502  0.11472838  1
  Si  Si128  1  0.31437250  0.16440707  0.38436105  1
  Si  Si129  1  0.14399849  0.08802123  0.38357509  1
  Si  Si130  1  0.68943001  0.16505253  0.61552114  1
  Si  Si131  1  0.85224563  0.07984389  0.61082238  1
  Si  Si132  1  0.64082156  0.83313814  0.88726629  1
  Si  Si133  1  0.13840589  0.41535071  0.88522950  1
  Si  Si134  1  0.36601551  0.16488894  0.61286691  1
  Si  Si135  1  0.86068179  0.08256935  0.11318984  1
  Si  Si136  1  0.35540399  0.83427236  0.11509260  1
  Si  Si137  1  0.47276165  0.57870700  0.38571530  1
  Si  Si138  1  0.14317522  0.92334799  0.38628888  1
  Si  Si139  1  0.31254114  0.32830429  0.38429954  1
  Si  Si140  1  0.81531557  0.08864882  0.88747558  1
  Si  Si141  1  0.52383543  0.40870395  0.11072151  1
  Si  Si142  1  0.47677934  0.41387359  0.38226797  1
  Si  Si143  1  0.47330878  0.59491502  0.88773576  1
  Si  Si144  1  0.02574767  0.16591321  0.11307702  1
  Si  Si145  1  0.18959789  0.91548360  0.61266767  1
  Si  Si146  1  0.19148086  0.08143853  0.11528964  1
  Si  Si147  1  0.52438555  0.41843024  0.61147702  1
  Si  Si148  1  0.85605980  0.58669966  0.61532752  1
  Si  Si149  1  0.64192371  0.33132471  0.38171263  1
  Si  Si150  1  0.80505135  0.91668258  0.38447915  1
  Si  Si151  1  0.86004322  0.58979390  0.11235040  1
  Si  Si152  1  0.64271228  0.16649749  0.38343364  1
  Si  Si153  1  0.35754676  0.66587554  0.61538480  1
  Si  Si154  1  0.52144764  0.57961553  0.61646488  1
  Si  Si155  1  0.64007669  0.83052112  0.38420255  1
  Si  Si156  1  0.35859108  0.32868924  0.11326982  1
  Si  Si157  1  0.35478147  0.66879985  0.11097769  1
  Si  Si158  1  0.31191995  0.84099408  0.38805486  1
  Si  Si159  1  0.86066683  0.42275925  0.61265562  1
  Si  Si160  1  0.98276024  0.83234022  0.89290865  1
  Si  Si161  1  0.14610508  0.57864475  0.88909409  1
  Si  Si162  1  0.52994183  0.92014873  0.61207285  1
  Si  Si163  1  0.80649491  0.41573049  0.38214036  1
  Si  Si164  1  0.97734981  0.83995696  0.38925091  1
  Si  Si165  1  0.48209158  0.07471955  0.88940913  1
  Si  Si166  1  0.14162076  0.92157991  0.88659722  1
  Si  Si167  1  0.86059441  0.91627164  0.11587865  1
  Si  Si168  1  0.68572142  0.66063216  0.61290161  1
  Si  Si169  1  0.97378795  0.33798146  0.88332712  1
  Si  Si170  1  0.30406189  0.67236297  0.88508104  1
  Si  Si171  1  0.47818239  0.08292228  0.38421099  1
  Si  Si172  1  0.36529284  0.32960516  0.61350957  1
  Si  Si173  1  0.97581287  0.17339357  0.88232053  1
  Si  Si174  1  0.69692798  0.67200310  0.11120681  1
  Si  Si175  1  0.69133238  0.32519664  0.11100111  1
  Si  Si176  1  0.64456229  0.16253460  0.88888852  1
  Si  Si177  1  0.47524715  0.90951984  0.88617527  1
  Si  Si178  1  0.97356115  0.16449546  0.38361068  1
  Si  Si179  1  0.52882706  0.08335144  0.61848197  1
  Si  Si180  1  0.35675146  0.16351164  0.11362540  1
  Si  Si181  1  0.63374423  0.66496277  0.38241645  1
  Si  Si182  1  0.68982119  0.15914796  0.11315330  1
  Si  Si183  1  0.30369971  0.83703978  0.88587963  1
  Si  Si184  1  0.69070828  0.83792077  0.11453438  1
  Si  Si185  1  0.19403898  0.58277514  0.11562751  1
  Si  Si186  1  0.80708378  0.08184499  0.38343633  1
  Si  Si187  1  0.03016203  0.66731616  0.11663974  1
  Si  Si188  1  0.02433560  0.66785336  0.61763102  1
  Si  Si189  1  0.79699482  0.58211162  0.38412615  1
  Si  Si190  1  0.13857217  0.08490120  0.88755699  1
  Si  Si191  1  0.01908209  0.33741195  0.61018574  1
  O  O192  1  0.27060851  0.11766994  0.08524549  1
  O  O193  1  0.29133763  0.11371295  0.57597826  1
  O  O194  1  0.26758761  0.62316300  0.08187289  1
  O  O195  1  0.27404728  0.61552630  0.59031092  1
  O  O196  1  0.60412114  0.11280046  0.08421676  1
  O  O197  1  0.61134808  0.10804420  0.58754513  1
  O  O198  1  0.61879467  0.62416652  0.07517810  1
  O  O199  1  0.60700078  0.60247589  0.58737748  1
  O  O200  1  0.93616991  0.12337313  0.08320166  1
  O  O201  1  0.92403676  0.11159016  0.57139797  1
  O  O202  1  0.94356712  0.62444282  0.08676034  1
  O  O203  1  0.93854035  0.62116579  0.58839843  1
  O  O204  1  0.11570369  0.36608752  0.08384492  1
  O  O205  1  0.09888437  0.35826647  0.57502303  1
  O  O206  1  0.10336152  0.87375371  0.08806489  1
  O  O207  1  0.12144853  0.84844580  0.59185855  1
  O  O208  1  0.44176116  0.35618309  0.08514831  1
  O  O209  1  0.44788537  0.36161191  0.58400157  1
  O  O210  1  0.43620141  0.86921326  0.08608235  1
  O  O211  1  0.45387749  0.86880920  0.57612817  1
  O  O212  1  0.76632179  0.35656866  0.07738564  1
  O  O213  1  0.78530344  0.37243165  0.57481304  1
  O  O214  1  0.76958585  0.87781347  0.08733004  1
  O  O215  1  0.78218114  0.84638169  0.56772880  1
  O  O216  1  0.27820764  0.38034154  0.08370508  1
  O  O217  1  0.28598038  0.37770517  0.57912738  1
  O  O218  1  0.27016506  0.88151414  0.08681398  1
  O  O219  1  0.27112957  0.89570081  0.57901815  1
  O  O220  1  0.60342112  0.36879958  0.08585234  1
  O  O221  1  0.60207640  0.39749898  0.57439429  1
  O  O222  1  0.60277429  0.88108159  0.08451329  1
  O  O223  1  0.61297081  0.90171758  0.58087100  1
  O  O224  1  0.95147213  0.37750506  0.07384648  1
  O  O225  1  0.94897792  0.40296389  0.58760446  1
  O  O226  1  0.93669636  0.87343348  0.08843088  1
  O  O227  1  0.96130137  0.88598399  0.57848335  1
  O  O228  1  0.10337623  0.12400372  0.08568784  1
  O  O229  1  0.10739759  0.14535491  0.56556131  1
  O  O230  1  0.10593458  0.62662397  0.08638855  1
  O  O231  1  0.10701985  0.63821028  0.58928131  1
  O  O232  1  0.43680805  0.12684454  0.08533093  1
  O  O233  1  0.45364272  0.13897728  0.58692230  1
  O  O234  1  0.42921863  0.63894162  0.07488452  1
  O  O235  1  0.44048870  0.63152384  0.58817607  1
  O  O236  1  0.76919633  0.12106768  0.08491997  1
  O  O237  1  0.76916974  0.13324647  0.58492878  1
  O  O238  1  0.78476066  0.64888869  0.08652296  1
  O  O239  1  0.77038624  0.63141388  0.58321286  1
  O  O240  1  0.06466309  0.12643231  0.41117016  1
  O  O241  1  0.05942683  0.12567525  0.91608728  1
  O  O242  1  0.04492250  0.60242466  0.43573929  1
  O  O243  1  0.07226519  0.60625487  0.92713227  1
  O  O244  1  0.39835710  0.11574026  0.41561360  1
  O  O245  1  0.41385367  0.11184443  0.92771115  1
  O  O246  1  0.39775866  0.60254806  0.42278727  1
  O  O247  1  0.39631721  0.63899724  0.91530575  1
  O  O248  1  0.73141324  0.12447620  0.41209165  1
  O  O249  1  0.73666555  0.12580343  0.91771680  1
  O  O250  1  0.70918372  0.60794286  0.40934048  1
  O  O251  1  0.71679573  0.61336430  0.91381843  1
  O  O252  1  0.22835528  0.35300453  0.41254377  1
  O  O253  1  0.21106447  0.35792348  0.91559152  1
  O  O254  1  0.22972460  0.87862019  0.41394202  1
  O  O255  1  0.23298016  0.88257511  0.91742432  1
  O  O256  1  0.56112450  0.36473620  0.41022772  1
  O  O257  1  0.55812332  0.37208122  0.93909100  1
  O  O258  1  0.56108338  0.86869369  0.41243864  1
  O  O259  1  0.55437952  0.85713101  0.91731571  1
  O  O260  1  0.89502697  0.37326383  0.41065629  1
  O  O261  1  0.89597755  0.37363116  0.91445443  1
  O  O262  1  0.89565105  0.87998379  0.41373191  1
  O  O263  1  0.90861694  0.86676511  0.92774776  1
  O  O264  1  0.06258981  0.36449260  0.41564377  1
  O  O265  1  0.05453039  0.38929365  0.91499808  1
  O  O266  1  0.06100405  0.89157938  0.41375659  1
  O  O267  1  0.06952706  0.88046239  0.91931041  1
  O  O268  1  0.39648796  0.37870517  0.41150624  1
  O  O269  1  0.36752720  0.39685553  0.91961847  1
  O  O270  1  0.39378373  0.89465738  0.41355314  1
  O  O271  1  0.39447136  0.87520881  0.91580709  1
  O  O272  1  0.72801926  0.37626074  0.41083405  1
  O  O273  1  0.73724905  0.38334296  0.92305838  1
  O  O274  1  0.72765325  0.87501515  0.41127193  1
  O  O275  1  0.71723095  0.88161797  0.92621399  1
  O  O276  1  0.23133057  0.13264201  0.41167221  1
  O  O277  1  0.22355759  0.12456012  0.92523024  1
  O  O278  1  0.22425265  0.63762352  0.43720354  1
  O  O279  1  0.23253122  0.62702671  0.91607900  1
  O  O280  1  0.56406075  0.13035719  0.41292463  1
  O  O281  1  0.57597484  0.10948916  0.91699643  1
  O  O282  1  0.55319934  0.63334330  0.41170474  1
  O  O283  1  0.55676966  0.64530395  0.91445380  1
  O  O284  1  0.89852735  0.11916008  0.41110113  1
  O  O285  1  0.89744963  0.14083360  0.91546278  1
  O  O286  1  0.86753950  0.63602563  0.42023842  1
  O  O287  1  0.88032941  0.63255974  0.92516791  1
  O  O288  1  0.17946821  -0.00080851  0.08505481  1
  O  O289  1  0.15143334  -0.01038390  0.57847554  1
  O  O290  1  0.18497483  0.49874912  0.08849582  1
  O  O291  1  0.16874239  0.50882419  0.57982087  1
  O  O292  1  0.50733704  -0.00214825  0.08586328  1
  O  O293  1  0.50080058  0.00376424  0.58858997  1
  O  O294  1  0.50656478  0.48645331  0.07703144  1
  O  O295  1  0.49272865  0.50020831  0.58593330  1
  O  O296  1  0.85532579  -0.00119998  0.08669077  1
  O  O297  1  0.82572215  0.00216657  0.57559311  1
  O  O298  1  0.83833198  0.51337320  0.07608369  1
  O  O299  1  0.84006432  0.50581879  0.58449617  1
  O  O300  1  0.02286369  0.24735825  0.08273231  1
  O  O301  1  -0.02236074  0.26399807  0.57722281  1
  O  O302  1  0.02231562  0.75065423  0.08744001  1
  O  O303  1  0.00565881  0.74909715  0.58891638  1
  O  O304  1  0.34030152  0.24579624  0.08595104  1
  O  O305  1  0.35172527  0.24718899  0.58225666  1
  O  O306  1  0.33632899  0.75334878  0.08521562  1
  O  O307  1  0.33818652  0.74166485  0.57821145  1
  O  O308  1  0.67447054  0.24084348  0.08569892  1
  O  O309  1  0.66470135  0.24107082  0.57711101  1
  O  O310  1  0.68021253  0.75645705  0.08508914  1
  O  O311  1  0.65399943  0.73486344  0.57673628  1
  O  O312  1  0.15724625  0.00612371  0.41401169  1
  O  O313  1  0.14567845  0.00170504  0.92036889  1
  O  O314  1  0.16239952  0.47987174  0.42012507  1
  O  O315  1  0.16861409  0.49553666  0.91490730  1
  O  O316  1  0.49924494  0.00107120  0.41219400  1
  O  O317  1  0.49249830  -0.00976308  0.91767044  1
  O  O318  1  0.49995771  0.49503406  0.41008777  1
  O  O319  1  0.48576165  0.52002296  0.92645865  1
  O  O320  1  0.80747875  -0.00024137  0.41187669  1
  O  O321  1  0.83245925  0.01322811  0.92787638  1
  O  O322  1  0.81235044  0.49789793  0.41090444  1
  O  O323  1  0.82260231  0.50168801  0.91513644  1
  O  O324  1  0.33512337  0.24644153  0.41321927  1
  O  O325  1  0.32933708  0.25898464  0.93135644  1
  O  O326  1  0.33501365  0.76474554  0.42221168  1
  O  O327  1  0.30340860  0.75465824  0.91571277  1
  O  O328  1  0.65498733  0.24911427  0.41103858  1
  O  O329  1  0.64504717  0.23880996  0.92595984  1
  O  O330  1  0.65239751  0.74743294  0.41137396  1
  O  O331  1  0.66263826  0.74944871  0.91328613  1
  O  O332  1  0.97119989  0.24631176  0.41206229  1
  O  O333  1  0.99134284  0.25636885  0.91402216  1
  O  O334  1  0.99258865  0.76336175  0.42449184  1
  O  O335  1  1.00586750  0.75407146  0.92692587  1
  O  O336  1  0.21213126  0.08031287  0.19482334  1
  O  O337  1  0.21809400  0.07594033  0.69617595  1
  O  O338  1  0.21514266  0.58823917  0.19452472  1
  O  O339  1  0.20702604  0.58650016  0.69674344  1
  O  O340  1  0.54434162  0.08376097  0.19390855  1
  O  O341  1  0.54588386  0.08336710  0.69885728  1
  O  O342  1  0.54390977  0.58255690  0.19837779  1
  O  O343  1  0.54199013  0.58347275  0.69664433  1
  O  O344  1  0.87731029  0.08262747  0.19383541  1
  O  O345  1  0.87294069  0.07791112  0.69042924  1
  O  O346  1  0.87429008  0.58488672  0.19327620  1
  O  O347  1  0.87334441  0.58503903  0.69553086  1
  O  O348  1  0.04430233  0.33172044  0.19055724  1
  O  O349  1  0.03955429  0.33674233  0.69139821  1
  O  O350  1  0.04392102  0.83488860  0.19764117  1
  O  O351  1  0.04362986  0.83229071  0.69720351  1
  O  O352  1  0.37735634  0.32961142  0.19394984  1
  O  O353  1  0.38427903  0.32627554  0.69308687  1
  O  O354  1  0.37498048  0.83451735  0.19549435  1
  O  O355  1  0.37892472  0.83453895  0.70273329  1
  O  O356  1  0.71019590  0.32802340  0.19254882  1
  O  O357  1  0.71147706  0.33593932  0.69971334  1
  O  O358  1  0.70905349  0.83644669  0.19510526  1
  O  O359  1  0.71204965  0.83165967  0.69960747  1
  O  O360  1  0.21671081  0.40867441  0.19420558  1
  O  O361  1  0.20106463  0.41988275  0.70198705  1
  O  O362  1  0.20976604  0.91796422  0.19650674  1
  O  O363  1  0.21042366  0.91627311  0.69438109  1
  O  O364  1  0.54258586  0.41223307  0.19221032  1
  O  O365  1  0.54478162  0.41912946  0.69182035  1
  O  O366  1  0.54409630  0.91333315  0.19434581  1
  O  O367  1  0.54424370  0.91715607  0.69357214  1
  O  O368  1  0.87763029  0.41519972  0.19901915  1
  O  O369  1  0.87382439  0.42107887  0.69349726  1
  O  O370  1  0.87770580  0.91708549  0.19647625  1
  O  O371  1  0.88007276  0.91310235  0.70182301  1
  O  O372  1  0.03819484  0.16531420  0.19261505  1
  O  O373  1  0.03376558  0.16962562  0.69272624  1
  O  O374  1  0.04661899  0.67019344  0.19641076  1
  O  O375  1  0.04334867  0.66704231  0.69794594  1
  O  O376  1  0.37705262  0.16373415  0.19389967  1
  O  O377  1  0.38205947  0.16415232  0.69344770  1
  O  O378  1  0.37609209  0.66752728  0.19175528  1
  O  O379  1  0.37579083  0.66925529  0.69626230  1
  O  O380  1  0.70975730  0.16072492  0.19394896  1
  O  O381  1  0.70456714  0.16817159  0.69537000  1
  O  O382  1  0.70954179  0.66923752  0.19255538  1
  O  O383  1  0.71029039  0.66150531  0.69287088  1
  O  O384  1  0.12302870  0.08306323  0.30378195  1
  O  O385  1  0.12379246  0.07746229  0.80946826  1
  O  O386  1  0.11611747  0.59219793  0.30619114  1
  O  O387  1  0.12283927  0.58507877  0.80868898  1
  O  O388  1  0.45716231  0.08534165  0.30454525  1
  O  O389  1  0.46148261  0.07883802  0.80884010  1
  O  O390  1  0.45611883  0.58157036  0.30452842  1
  O  O391  1  0.45540577  0.58942259  0.80737356  1
  O  O392  1  0.78920948  0.08254162  0.30270990  1
  O  O393  1  0.79261624  0.08183207  0.80818321  1
  O  O394  1  0.78458465  0.58227865  0.30280834  1
  O  O395  1  0.78879951  0.58512165  0.80700855  1
  O  O396  1  0.29444773  0.32961950  0.30390221  1
  O  O397  1  0.28482198  0.32478940  0.81180730  1
  O  O398  1  0.29188695  0.83798805  0.30659131  1
  O  O399  1  0.28684408  0.83545904  0.80612315  1
  O  O400  1  0.62405800  0.33037818  0.30110088  1
  O  O401  1  0.62121663  0.33365817  0.80065486  1
  O  O402  1  0.62236278  0.83234197  0.30348303  1
  O  O403  1  0.62010736  0.83828291  0.80776207  1
  O  O404  1  0.95515771  0.32883473  0.30323155  1
  O  O405  1  0.95438197  0.33883491  0.80346750  1
  O  O406  1  0.95751202  0.83721834  0.30757436  1
  O  O407  1  0.96227588  0.83190655  0.81201724  1
  O  O408  1  0.11881090  0.40208321  0.30625383  1
  O  O409  1  0.11808556  0.41952156  0.80550901  1
  O  O410  1  0.12450571  0.92057519  0.30524595  1
  O  O411  1  0.12539682  0.91728004  0.80682009  1
  O  O412  1  0.45912545  0.41264717  0.30164628  1
  O  O413  1  0.46881900  0.41868851  0.80365894  1
  O  O414  1  0.45742629  0.91493321  0.30411474  1
  O  O415  1  0.45818234  0.91462064  0.80647699  1
  O  O416  1  0.78677033  0.41390341  0.30172349  1
  O  O417  1  0.79029842  0.41997471  0.80631314  1
  O  O418  1  0.78870833  0.91703280  0.30360436  1
  O  O419  1  0.78886646  0.91816204  0.80234777  1
  O  O420  1  0.29845680  0.16449127  0.30469063  1
  O  O421  1  0.30416661  0.16687879  0.80281581  1
  O  O422  1  0.29050403  0.66789458  0.30106426  1
  O  O423  1  0.28749503  0.67199448  0.80509346  1
  O  O424  1  0.62434240  0.16502365  0.30292057  1
  O  O425  1  0.62536763  0.16501582  0.80837945  1
  O  O426  1  0.62026442  0.66796952  0.30184404  1
  O  O427  1  0.62094659  0.66556651  0.80361800  1
  O  O428  1  0.95533500  0.16467479  0.30291609  1
  O  O429  1  0.95737620  0.17321345  0.80405522  1
  O  O430  1  0.95116039  0.66809167  0.30010496  1
  O  O431  1  0.95455741  0.66647730  0.80079133  1
  F  F432  1  0.04481429  -0.00045929  0.20152850  1
  F  F433  1  0.04678310  -0.00588212  0.70225332  1
  F  F434  1  0.03293077  0.50043714  0.20005117  1
  F  F435  1  0.04313351  0.50517498  0.70423817  1
  F  F436  1  0.37420809  -0.00045626  0.20063899  1
  F  F437  1  0.38347661  -0.00052254  0.70478342  1
  F  F438  1  0.37902388  0.49828378  0.20001029  1
  F  F439  1  0.38210468  0.51252341  0.70063641  1
  F  F440  1  0.71253536  -0.00125877  0.19974248  1
  F  F441  1  0.71110576  0.00220216  0.70330611  1
  F  F442  1  0.71105842  0.49882096  0.19904416  1
  F  F443  1  0.71132512  0.50160237  0.70346695  1
  F  F444  1  0.21493542  0.24919310  0.19966402  1
  F  F445  1  0.21815590  0.26239586  0.69656046  1
  F  F446  1  0.21083531  0.75513556  0.20295696  1
  F  F447  1  0.21101341  0.75077871  0.70392646  1
  F  F448  1  0.54551912  0.24597264  0.19993677  1
  F  F449  1  0.54676351  0.24691987  0.70384633  1
  F  F450  1  0.54355094  0.75158555  0.19922511  1
  F  F451  1  0.53880599  0.75015246  0.70055092  1
  F  F452  1  0.87860034  0.24665185  0.20003151  1
  F  F453  1  0.87551971  0.25689934  0.70028304  1
  F  F454  1  0.87843207  0.75527155  0.20209308  1
  F  F455  1  0.87870752  0.75110706  0.70308517  1
  F  F456  1  0.28898035  0.00055862  0.29950504  1
  F  F457  1  0.29135675  -0.00314968  0.80091210  1
  F  F458  1  0.30407481  0.49627151  0.30192195  1
  F  F459  1  0.28344705  0.51582480  0.80506601  1
  F  F460  1  0.62757932  -0.00059354  0.29906413  1
  F  F461  1  0.62331625  -0.00048672  0.79920177  1
  F  F462  1  0.62216174  0.49499141  0.29493303  1
  F  F463  1  0.62250685  0.50241614  0.79765202  1
  F  F464  1  0.95431947  0.00179247  0.29713251  1
  F  F465  1  0.95441148  -0.00403722  0.80557173  1
  F  F466  1  0.95170761  0.49888483  0.29987735  1
  F  F467  1  0.95269817  0.50105476  0.79780508  1
  F  F468  1  0.12004523  0.24847334  0.29561982  1
  F  F469  1  0.11172755  0.26246603  0.79967450  1
  F  F470  1  0.12238104  0.75537994  0.30032218  1
  F  F471  1  0.12276583  0.75146587  0.79985225  1
  F  F472  1  0.45697916  0.24780333  0.29544998  1
  F  F473  1  0.45774572  0.24940402  0.79976028  1
  F  F474  1  0.45559058  0.74991189  0.29508567  1
  F  F475  1  0.45476724  0.74958033  0.80115363  1
  F  F476  1  0.78744463  0.24720515  0.29530044  1
  F  F477  1  0.78700962  0.25715746  0.80529841  1
  F  F478  1  0.78469935  0.75153211  0.29617009  1
  F  F479  1  0.79430941  0.74915567  0.80290207  1
