# generated using pymatgen
data_K24Na3Li5Mg64Fe17Si79(O5F)48
_symmetry_space_group_name_H-M   'P 1'
_cell_length_a   16.10164954
_cell_length_b   18.60724526
_cell_length_c   20.56389081
_cell_angle_alpha   89.99735724
_cell_angle_beta   100.04602116
_cell_angle_gamma   90.01407262
_symmetry_Int_Tables_number   1
_chemical_formula_structural   K24Na3Li5Mg64Fe17Si79(O5F)48
_chemical_formula_sum   'K24 Na3 Li5 Mg64 Fe17 Si79 O240 F48'
_cell_volume   6066.63035338
_cell_formula_units_Z   1
loop_
 _symmetry_equiv_pos_site_id
 _symmetry_equiv_pos_as_xyz
  1  'x, y, z'
loop_
 _atom_site_type_symbol
 _atom_site_label
 _atom_site_symmetry_multiplicity
 _atom_site_fract_x
 _atom_site_fract_y
 _atom_site_fract_z
 _atom_site_occupancy
  K  K0  1  0.00009511  -0.00745426  -0.00561422  1
  K  K1  1  0.00597511  -0.01352559  0.50476691  1
  K  K2  1  0.00234751  0.51627714  -0.00836924  1
  K  K3  1  -0.00353131  0.50099839  0.50286847  1
  K  K4  1  0.33659390  -0.00590462  -0.00717492  1
  K  K5  1  0.32654888  0.00335666  0.50829020  1
  K  K6  1  0.34335213  0.51037571  -0.00894265  1
  K  K7  1  0.34384910  0.50388759  0.51040860  1
  K  K8  1  0.65699199  -0.00561833  -0.01064653  1
  K  K9  1  0.66485881  -0.00136542  0.50288467  1
  K  K10  1  0.66807908  0.50220864  -0.00733888  1
  K  K11  1  0.67070483  0.50844041  0.50675708  1
  K  K12  1  0.17169560  0.25175203  -0.01414721  1
  K  K13  1  0.17613729  0.25085651  0.51140035  1
  K  K14  1  0.16612796  0.74714485  0.00213914  1
  K  K15  1  0.16286228  0.75858754  0.50116100  1
  K  K16  1  0.49582138  0.24794975  -0.01941040  1
  K  K17  1  0.50338764  0.25708509  0.51526417  1
  K  K18  1  0.49733923  0.74811421  0.00155779  1
  K  K19  1  0.50515066  0.74295848  0.50086280  1
  K  K20  1  0.82557185  0.25270482  -0.01800032  1
  K  K21  1  0.82748996  0.24742121  0.50826761  1
  K  K22  1  0.83039430  0.74632876  -0.00287020  1
  K  K23  1  0.83736183  0.74581781  0.49855636  1
  Na  Na24  1  0.66675249  0.25014239  0.75146745  1
  Na  Na25  1  0.17025148  0.16746166  0.75242733  1
  Na  Na26  1  0.16564275  0.66823703  0.24095888  1
  Li  Li27  1  0.49822782  0.50334487  0.74759374  1
  Li  Li28  1  -0.00036514  0.74984258  0.74601080  1
  Li  Li29  1  0.49849431  0.66890912  0.24790107  1
  Li  Li30  1  0.33051088  0.08604101  0.75423012  1
  Li  Li31  1  0.34026176  0.58221035  0.74695892  1
  Mg  Mg32  1  0.66730053  0.74959816  0.75123088  1
  Mg  Mg33  1  0.33094608  0.24943774  0.25480203  1
  Mg  Mg34  1  0.33530221  0.25220258  0.75325001  1
  Mg  Mg35  1  0.00285476  0.25002996  0.75257528  1
  Mg  Mg36  1  -0.00024719  0.74997347  0.24911410  1
  Mg  Mg37  1  0.83059324  0.49759633  0.25380980  1
  Mg  Mg38  1  0.33715434  0.74826020  0.24468820  1
  Mg  Mg39  1  0.33367245  0.74833741  0.74574640  1
  Mg  Mg40  1  0.16413500  0.50159899  0.24616467  1
  Mg  Mg41  1  0.49644252  0.00216032  0.75559418  1
  Mg  Mg42  1  -0.00147383  0.24870159  0.25265361  1
  Mg  Mg43  1  0.83283323  -0.00230717  0.25029107  1
  Mg  Mg44  1  0.83467252  0.50264230  0.74703040  1
  Mg  Mg45  1  0.49783363  0.50451120  0.25040887  1
  Mg  Mg46  1  0.17164576  0.50474939  0.75010699  1
  Mg  Mg47  1  0.17063573  0.00180056  0.74940874  1
  Mg  Mg48  1  0.66397734  0.24985106  0.25440910  1
  Mg  Mg49  1  0.16691985  -0.00025981  0.25039692  1
  Mg  Mg50  1  0.49853814  -0.00271757  0.24976070  1
  Mg  Mg51  1  0.66419692  0.74817313  0.24723310  1
  Mg  Mg52  1  0.83406996  0.00135238  0.75158838  1
  Mg  Mg53  1  0.00169046  0.91505777  0.74637977  1
  Mg  Mg54  1  0.66325880  0.58469548  0.24962412  1
  Mg  Mg55  1  0.16766702  0.66801695  0.74554386  1
  Mg  Mg56  1  0.83276808  0.66387539  0.25007751  1
  Mg  Mg57  1  0.83530240  0.83328885  0.74808290  1
  Mg  Mg58  1  0.50387857  0.33699750  0.75217007  1
  Mg  Mg59  1  -0.00058291  0.58834315  0.74705828  1
  Mg  Mg60  1  0.49751944  0.33482671  0.25354606  1
  Mg  Mg61  1  0.66803588  0.58495582  0.74897986  1
  Mg  Mg62  1  0.66664483  0.91577635  0.75186078  1
  Mg  Mg63  1  0.66691719  0.41882991  0.75104238  1
  Mg  Mg64  1  -0.00133592  0.58455112  0.24774918  1
  Mg  Mg65  1  0.00192100  0.41835198  0.74898239  1
  Mg  Mg66  1  0.00358304  0.08478733  0.75082826  1
  Mg  Mg67  1  0.83466701  0.66694217  0.74724659  1
  Mg  Mg68  1  0.49722395  0.16462367  0.25433824  1
  Mg  Mg69  1  0.66587742  0.08490225  0.75331292  1
  Mg  Mg70  1  0.50092768  0.83348330  0.75022088  1
  Mg  Mg71  1  0.16719887  0.83331955  0.24619073  1
  Mg  Mg72  1  0.33074573  0.41730882  0.25124546  1
  Mg  Mg73  1  0.83170733  0.33273430  0.25462383  1
  Mg  Mg74  1  0.33302631  0.58632457  0.24591859  1
  Mg  Mg75  1  -0.00220392  0.41474349  0.25286941  1
  Mg  Mg76  1  0.49668374  0.16722843  0.75557727  1
  Mg  Mg77  1  0.83177288  0.16467208  0.25125160  1
  Mg  Mg78  1  0.83463930  0.33513664  0.75108214  1
  Mg  Mg79  1  0.16800934  0.16600595  0.25420479  1
  Mg  Mg80  1  0.33228440  0.08438011  0.25463997  1
  Mg  Mg81  1  0.83251539  0.83201341  0.24982342  1
  Mg  Mg82  1  0.17134975  0.33617684  0.75341823  1
  Mg  Mg83  1  0.50064114  0.66320473  0.74920692  1
  Mg  Mg84  1  -0.00002122  0.08252488  0.25156041  1
  Mg  Mg85  1  0.83505662  0.16751927  0.75145959  1
  Mg  Mg86  1  0.33128810  0.91861174  0.74769430  1
  Mg  Mg87  1  0.16460215  0.83337238  0.74443626  1
  Mg  Mg88  1  0.66564774  0.91357905  0.24796778  1
  Mg  Mg89  1  -0.00000765  0.91334339  0.24889257  1
  Mg  Mg90  1  0.16507919  0.33386131  0.25281234  1
  Mg  Mg91  1  0.33892319  0.42340767  0.75289515  1
  Mg  Mg92  1  0.66454079  0.08317756  0.25154876  1
  Mg  Mg93  1  0.33306445  0.91312265  0.24651347  1
  Mg  Mg94  1  0.49873478  0.83071634  0.24559928  1
  Mg  Mg95  1  0.66604111  0.41544041  0.25460559  1
  Fe  Fe96  1  0.80973614  0.40969166  0.39446922  1
  Fe  Fe97  1  0.69374825  0.83085843  0.10974482  1
  Fe  Fe98  1  0.68935805  0.67551455  0.60772751  1
  Fe  Fe99  1  0.86069770  0.58431101  0.60570119  1
  Fe  Fe100  1  0.97786424  0.16537291  0.89055711  1
  Fe  Fe101  1  0.31054600  0.16865370  0.39515946  1
  Fe  Fe102  1  0.35958211  0.65976852  0.10485029  1
  Fe  Fe103  1  0.30535531  0.16858622  0.89241296  1
  Fe  Fe104  1  0.63883649  0.16394246  0.89317501  1
  Fe  Fe105  1  0.64155594  0.66713370  0.38667915  1
  Fe  Fe106  1  0.02266617  0.66700214  0.10642301  1
  Fe  Fe107  1  0.35624683  0.83416897  0.10459050  1
  Fe  Fe108  1  0.97362876  0.83472583  0.38907243  1
  Fe  Fe109  1  0.64336122  0.83306115  0.89002886  1
  Fe  Fe110  1  0.81226522  0.58326952  0.88951169  1
  Fe  Fe111  1  0.19141529  0.92014973  0.60624482  1
  Fe  Fe112  1  0.69295550  0.32918139  0.61140855  1
  Si  Si113  1  0.46959277  0.42134014  0.38611992  1
  Si  Si114  1  0.46870076  0.91234725  0.88676376  1
  Si  Si115  1  0.01974338  0.33091037  0.11656216  1
  Si  Si116  1  0.13823149  0.07471914  0.88997951  1
  Si  Si117  1  0.81470399  0.91836374  0.88615735  1
  Si  Si118  1  0.63067472  0.33202236  0.39040330  1
  Si  Si119  1  0.19026515  0.08750558  0.61101339  1
  Si  Si120  1  0.52216006  0.92094321  0.61669091  1
  Si  Si121  1  0.35645220  0.16705008  0.11784304  1
  Si  Si122  1  0.52181288  0.08606297  0.11701722  1
  Si  Si123  1  0.30390102  0.83051011  0.88079089  1
  Si  Si124  1  0.97552111  0.66469318  0.38668534  1
  Si  Si125  1  0.02175599  0.16722250  0.11703069  1
  Si  Si126  1  0.02697134  0.83940396  0.11025022  1
  Si  Si127  1  0.47256244  0.58721532  0.88185092  1
  Si  Si128  1  0.81213921  0.57990405  0.38758969  1
  Si  Si129  1  0.03298200  0.66386023  0.60966528  1
  Si  Si130  1  0.30806225  0.66825715  0.88026138  1
  Si  Si131  1  0.52864875  0.92146627  0.11085578  1
  Si  Si132  1  0.86151641  0.08206192  0.61282403  1
  Si  Si133  1  0.80747449  0.08832946  0.38674832  1
  Si  Si134  1  0.53114660  0.57463466  0.11106904  1
  Si  Si135  1  0.63819363  0.16523306  0.38799194  1
  Si  Si136  1  0.31128955  0.34154469  0.89049839  1
  Si  Si137  1  0.19419622  0.57250247  0.10728684  1
  Si  Si138  1  0.80949205  0.08200316  0.88955647  1
  Si  Si139  1  0.14273028  0.58941994  0.88282703  1
  Si  Si140  1  0.85428528  0.41243554  0.11707489  1
  Si  Si141  1  0.47684009  0.07581130  0.39034234  1
  Si  Si142  1  0.52539598  0.41718088  0.61379761  1
  Si  Si143  1  0.03129079  0.33610557  0.61586599  1
  Si  Si144  1  0.47372312  0.91062142  0.38451985  1
  Si  Si145  1  0.47748436  0.42286855  0.88669316  1
  Si  Si146  1  0.13687621  0.57905583  0.38328145  1
  Si  Si147  1  0.68806059  0.84534600  0.61201099  1
  Si  Si148  1  0.85747558  0.57692741  0.11354389  1
  Si  Si149  1  0.14248352  0.91369043  0.88255471  1
  Si  Si150  1  0.52612717  0.58291763  0.61251879  1
  Si  Si151  1  0.18786273  0.08781559  0.11643521  1
  Si  Si152  1  0.30728818  0.82928855  0.38321168  1
  Si  Si153  1  0.14644368  0.91816494  0.38470275  1
  Si  Si154  1  0.30809881  0.33855206  0.38942375  1
  Si  Si155  1  0.35888517  0.17148387  0.61845768  1
  Si  Si156  1  0.97918776  0.32465597  0.39000035  1
  Si  Si157  1  0.64215354  0.83668688  0.38554816  1
  Si  Si158  1  0.85977721  0.91715770  0.61285189  1
  Si  Si159  1  0.36065211  0.33627171  0.61856857  1
  Si  Si160  1  0.02352612  0.17078613  0.61380306  1
  Si  Si161  1  0.97697224  0.83616679  0.88158519  1
  Si  Si162  1  0.30304412  0.66358120  0.38263409  1
  Si  Si163  1  0.14026869  0.08233489  0.38755191  1
  Si  Si164  1  0.80299969  0.92283256  0.38802543  1
  Si  Si165  1  0.85665630  0.08270768  0.11585266  1
  Si  Si166  1  0.19605973  0.41906397  0.61674350  1
  Si  Si167  1  0.14302522  0.42479033  0.88505475  1
  Si  Si168  1  0.69263621  0.65916960  0.11234884  1
  Si  Si169  1  0.35501117  0.33184902  0.11756866  1
  Si  Si170  1  0.51874552  0.08240404  0.61723592  1
  Si  Si171  1  0.64276662  0.34026470  0.89012495  1
  Si  Si172  1  0.36268239  0.66615654  0.61338241  1
  Si  Si173  1  0.18583850  0.41036950  0.11470807  1
  Si  Si174  1  0.97848535  0.67274606  0.88424667  1
  Si  Si175  1  0.36301538  0.83106409  0.61048551  1
  Si  Si176  1  0.19117409  0.92434650  0.11138673  1
  Si  Si177  1  0.46830584  0.58453971  0.38647984  1
  Si  Si178  1  0.86244924  0.91843328  0.11234151  1
  Si  Si179  1  0.69045170  0.16472367  0.11717956  1
  Si  Si180  1  0.19774136  0.58459166  0.61392741  1
  Si  Si181  1  0.81573645  0.41583344  0.88854576  1
  Si  Si182  1  0.68923592  0.32851440  0.11734263  1
  Si  Si183  1  0.02255697  0.83069097  0.61018900  1
  Si  Si184  1  0.13919249  0.41563012  0.38681976  1
  Si  Si185  1  0.64024652  0.66312748  0.88903830  1
  Si  Si186  1  0.47084337  0.07904529  0.89316009  1
  Si  Si187  1  0.69067177  0.15504534  0.61293053  1
  Si  Si188  1  0.97696808  0.16130334  0.38606683  1
  Si  Si189  1  0.86238179  0.41259428  0.61156795  1
  Si  Si190  1  0.52338993  0.41089102  0.11634735  1
  Si  Si191  1  0.98241002  0.33548288  0.88687596  1
  O  O192  1  0.27065406  0.12087771  0.08923446  1
  O  O193  1  0.26945072  0.13233444  0.58568992  1
  O  O194  1  0.27672277  0.58822469  0.07456698  1
  O  O195  1  0.27825185  0.61768207  0.58395625  1
  O  O196  1  0.60394228  0.11997760  0.08970100  1
  O  O197  1  0.60298451  0.10684753  0.58684602  1
  O  O198  1  0.61986072  0.59793865  0.08663673  1
  O  O199  1  0.59776121  0.61399630  0.57409719  1
  O  O200  1  0.93848767  0.11788071  0.08888438  1
  O  O201  1  0.93386846  0.12864126  0.58203401  1
  O  O202  1  0.93407311  0.60085196  0.07740242  1
  O  O203  1  0.95854379  0.61295644  0.57273465  1
  O  O204  1  0.10302113  0.35882020  0.08783635  1
  O  O205  1  0.11212190  0.37068444  0.58646882  1
  O  O206  1  0.10890695  0.87397190  0.08258195  1
  O  O207  1  0.09077900  0.86974041  0.57230777  1
  O  O208  1  0.43561635  0.36566790  0.08884870  1
  O  O209  1  0.43538742  0.37324864  0.58531614  1
  O  O210  1  0.45302208  0.87097179  0.07490004  1
  O  O211  1  0.44866851  0.86329381  0.58514650  1
  O  O212  1  0.77007773  0.36304692  0.08923549  1
  O  O213  1  0.79274621  0.35322876  0.58060777  1
  O  O214  1  0.79144108  0.86319425  0.07821806  1
  O  O215  1  0.76644498  0.88472131  0.58210559  1
  O  O216  1  0.26801043  0.37548858  0.08757537  1
  O  O217  1  0.27365149  0.38082425  0.58686064  1
  O  O218  1  0.26938219  0.90342740  0.07655296  1
  O  O219  1  0.28287128  0.87653414  0.57348729  1
  O  O220  1  0.60146744  0.37084675  0.08784251  1
  O  O221  1  0.59556514  0.38356722  0.57444897  1
  O  O222  1  0.61511671  0.90458208  0.08334586  1
  O  O223  1  0.60870401  0.90234441  0.58818730  1
  O  O224  1  0.93534700  0.37861229  0.08760568  1
  O  O225  1  0.95165318  0.38702988  0.58606473  1
  O  O226  1  0.95171492  0.89968714  0.08730257  1
  O  O227  1  0.92935245  0.86919148  0.58280590  1
  O  O228  1  0.10558701  0.13942903  0.08895620  1
  O  O229  1  0.10291507  0.13641078  0.58353752  1
  O  O230  1  0.11751913  0.62637684  0.07673397  1
  O  O231  1  0.11851791  0.63571548  0.58085133  1
  O  O232  1  0.43833813  0.13582200  0.08936453  1
  O  O233  1  0.43701507  0.13363137  0.58703076  1
  O  O234  1  0.45610690  0.62365991  0.07260287  1
  O  O235  1  0.43817764  0.62789377  0.58196200  1
  O  O236  1  0.77132814  0.13050180  0.08915967  1
  O  O237  1  0.76773123  0.11440929  0.58054210  1
  O  O238  1  0.77613022  0.62804316  0.08468852  1
  O  O239  1  0.77738895  0.64671417  0.56780848  1
  O  O240  1  0.04931462  0.10117434  0.41210207  1
  O  O241  1  0.05499233  0.09236180  0.92264900  1
  O  O242  1  0.05570144  0.60932350  0.41339470  1
  O  O243  1  0.06621144  0.62666884  0.91350001  1
  O  O244  1  0.40399084  0.10896586  0.42606381  1
  O  O245  1  0.39229530  0.10538068  0.92772507  1
  O  O246  1  0.38264451  0.61185387  0.41578059  1
  O  O247  1  0.39045269  0.61954770  0.91120755  1
  O  O248  1  0.73059868  0.12850084  0.41594676  1
  O  O249  1  0.72688384  0.09791338  0.92269680  1
  O  O250  1  0.73002350  0.60259109  0.41813223  1
  O  O251  1  0.71237881  0.60572533  0.92032686  1
  O  O252  1  0.22369222  0.36874641  0.41635732  1
  O  O253  1  0.23082775  0.38282179  0.91698778  1
  O  O254  1  0.23044025  0.86863488  0.41287257  1
  O  O255  1  0.21995380  0.85743797  0.90969185  1
  O  O256  1  0.54473862  0.36369483  0.41419604  1
  O  O257  1  0.56571459  0.38209533  0.92123020  1
  O  O258  1  0.55727373  0.86365556  0.41474773  1
  O  O259  1  0.54518971  0.86173702  0.92163669  1
  O  O260  1  0.90020322  0.34452285  0.42450841  1
  O  O261  1  0.89714856  0.36168360  0.91509806  1
  O  O262  1  0.88130052  0.87495258  0.42364952  1
  O  O263  1  0.89740358  0.86668578  0.91427408  1
  O  O264  1  0.06099147  0.37765508  0.41624099  1
  O  O265  1  0.06216113  0.39171547  0.91439133  1
  O  O266  1  0.06909717  0.89269564  0.41924676  1
  O  O267  1  0.05935251  0.88628440  0.91249914  1
  O  O268  1  0.38354359  0.39746740  0.41356906  1
  O  O269  1  0.39815255  0.38870689  0.91885874  1
  O  O270  1  0.39444473  0.87379053  0.41329891  1
  O  O271  1  0.38147282  0.88408655  0.91165797  1
  O  O272  1  0.71145477  0.37687578  0.42507843  1
  O  O273  1  0.73310114  0.38311904  0.91767137  1
  O  O274  1  0.71406537  0.89949665  0.41163184  1
  O  O275  1  0.73643618  0.89401901  0.92063716  1
  O  O276  1  0.20924539  0.13954591  0.42256531  1
  O  O277  1  0.21048602  0.13114187  0.92322649  1
  O  O278  1  0.21994869  0.62982191  0.41007381  1
  O  O279  1  0.22914231  0.63410302  0.91200900  1
  O  O280  1  0.56814534  0.11698384  0.41705512  1
  O  O281  1  0.55148985  0.12474605  0.93174050  1
  O  O282  1  0.54361491  0.63703183  0.41885791  1
  O  O283  1  0.55249598  0.63728730  0.91558354  1
  O  O284  1  0.89176415  0.13701559  0.41465315  1
  O  O285  1  0.88069050  0.13918504  0.92336016  1
  O  O286  1  0.89101192  0.63640887  0.41336641  1
  O  O287  1  0.90514784  0.64398311  0.92239095  1
  O  O288  1  0.16346243  0.00809450  0.08677944  1
  O  O289  1  0.17838323  0.01349573  0.56799821  1
  O  O290  1  0.16272075  0.48850748  0.08194323  1
  O  O291  1  0.18348158  0.50084453  0.58475771  1
  O  O292  1  0.50226828  0.00631619  0.08720817  1
  O  O293  1  0.49317164  0.00138170  0.58682018  1
  O  O294  1  0.51284179  0.49014517  0.08289512  1
  O  O295  1  0.50412958  0.49979625  0.58639861  1
  O  O296  1  0.84022088  0.00225316  0.08561159  1
  O  O297  1  0.86420968  -0.00036745  0.58298433  1
  O  O298  1  0.83212727  0.49284712  0.08858420  1
  O  O299  1  0.83629081  0.48912273  0.57652447  1
  O  O300  1  -0.00008459  0.24873530  0.08875460  1
  O  O301  1  0.01465423  0.25432388  0.58458383  1
  O  O302  1  0.00285876  0.76324366  0.07425518  1
  O  O303  1  0.01464854  0.74722303  0.58290659  1
  O  O304  1  0.34047711  0.24929405  0.08952402  1
  O  O305  1  0.34911418  0.25417773  0.58761471  1
  O  O306  1  0.32607063  0.74701678  0.06431762  1
  O  O307  1  0.35108642  0.74772142  0.58128549  1
  O  O308  1  0.67775288  0.24649062  0.08781737  1
  O  O309  1  0.67394531  0.23275409  0.57828919  1
  O  O310  1  0.66536647  0.73636960  0.07914704  1
  O  O311  1  0.66124288  0.77053241  0.57557971  1
  O  O312  1  0.17113974  0.00106633  0.41119296  1
  O  O313  1  0.16974131  -0.00823503  0.91601283  1
  O  O314  1  0.15454401  0.49742963  0.41616915  1
  O  O315  1  0.15479306  0.50753967  0.91371032  1
  O  O316  1  0.49157698  -0.00802152  0.41577427  1
  O  O317  1  0.48691940  -0.00650158  0.91694377  1
  O  O318  1  0.49107726  0.50149228  0.41664395  1
  O  O319  1  0.48741717  0.50594902  0.91509695  1
  O  O320  1  0.81928860  0.00714654  0.41639258  1
  O  O321  1  0.84483805  -0.00018025  0.91186727  1
  O  O322  1  0.84741416  0.50217980  0.41742880  1
  O  O323  1  0.84101099  0.49116646  0.92577869  1
  O  O324  1  0.33606320  0.26326226  0.42540407  1
  O  O325  1  0.32254728  0.26493084  0.92806664  1
  O  O326  1  0.31641083  0.74661600  0.41302191  1
  O  O327  1  0.32590104  0.74966813  0.91102456  1
  O  O328  1  0.63773659  0.24705712  0.41640950  1
  O  O329  1  0.65388591  0.26130033  0.92438218  1
  O  O330  1  0.67314734  0.76116921  0.41893444  1
  O  O331  1  0.66872740  0.74059926  0.92244807  1
  O  O332  1  1.00915296  0.24118820  0.41343466  1
  O  O333  1  1.01071370  0.25924398  0.92186826  1
  O  O334  1  1.00122872  0.74161907  0.42117040  1
  O  O335  1  1.00122722  0.75566195  0.91075960  1
  O  O336  1  0.20742819  0.08590238  0.19700318  1
  O  O337  1  0.20725266  0.07688835  0.68919710  1
  O  O338  1  0.21349884  0.57065803  0.18795576  1
  O  O339  1  0.20985241  0.58399193  0.69320257  1
  O  O340  1  0.54111155  0.08614945  0.19796144  1
  O  O341  1  0.53882435  0.08212521  0.69690504  1
  O  O342  1  0.54485139  0.57306231  0.19101894  1
  O  O343  1  0.54689976  0.58837708  0.69207901  1
  O  O344  1  0.87529170  0.08391263  0.19673405  1
  O  O345  1  0.87754112  0.08178942  0.69275863  1
  O  O346  1  0.87481563  0.57756900  0.19478987  1
  O  O347  1  0.88132157  0.58449780  0.69750666  1
  O  O348  1  0.03961387  0.33119361  0.19732160  1
  O  O349  1  0.04831649  0.33514376  0.69602845  1
  O  O350  1  0.04518157  0.83652526  0.19121440  1
  O  O351  1  0.04391124  0.83662852  0.68988439  1
  O  O352  1  0.37355102  0.33215261  0.19828924  1
  O  O353  1  0.37751220  0.33745881  0.69832200  1
  O  O354  1  0.37831240  0.83566857  0.19697413  1
  O  O355  1  0.37740457  0.83276391  0.69120594  1
  O  O356  1  0.70642245  0.32853668  0.19779885  1
  O  O357  1  0.71712689  0.34151187  0.70060813  1
  O  O358  1  0.71338412  0.83360637  0.20172850  1
  O  O359  1  0.71137011  0.83964547  0.69237915  1
  O  O360  1  0.20610484  0.41142178  0.19548840  1
  O  O361  1  0.21194062  0.42022505  0.69661012  1
  O  O362  1  0.20943218  0.92183272  0.19272131  1
  O  O363  1  0.21066796  0.91636869  0.69719376  1
  O  O364  1  0.54200313  0.41151346  0.19687311  1
  O  O365  1  0.54666652  0.41284915  0.69331342  1
  O  O366  1  0.54297173  0.92039004  0.19287207  1
  O  O367  1  0.54032456  0.91955798  0.69664487  1
  O  O368  1  0.87591122  0.41042600  0.19748021  1
  O  O369  1  0.88159974  0.41626321  0.69316972  1
  O  O370  1  0.87596686  0.91992485  0.19346892  1
  O  O371  1  0.87635672  0.91832218  0.69294382  1
  O  O372  1  0.04115749  0.16667968  0.19776084  1
  O  O373  1  0.03640517  0.16899939  0.69274744  1
  O  O374  1  0.03094940  0.66696792  0.19624204  1
  O  O375  1  0.04902890  0.66196937  0.68965648  1
  O  O376  1  0.37604452  0.16677465  0.19840069  1
  O  O377  1  0.37838687  0.17139971  0.69735890  1
  O  O378  1  0.37618679  0.66481181  0.19590079  1
  O  O379  1  0.38010335  0.66983232  0.69252173  1
  O  O380  1  0.70817283  0.16612884  0.19797329  1
  O  O381  1  0.71614779  0.15503986  0.69239908  1
  O  O382  1  0.71245866  0.66227372  0.19324860  1
  O  O383  1  0.71061051  0.67095455  0.69951059  1
  O  O384  1  0.12233501  0.08474370  0.30617432  1
  O  O385  1  0.11968111  0.07399455  0.80953801  1
  O  O386  1  0.11755946  0.57328944  0.30403964  1
  O  O387  1  0.12460086  0.58675373  0.80283544  1
  O  O388  1  0.45727399  0.08171473  0.30916777  1
  O  O389  1  0.45984448  0.08240544  0.81278286  1
  O  O390  1  0.44990558  0.57728344  0.30676876  1
  O  O391  1  0.45777571  0.58617671  0.80320813  1
  O  O392  1  0.78869843  0.08588316  0.30620158  1
  O  O393  1  0.79193007  0.08375454  0.80775377  1
  O  O394  1  0.79128090  0.58070963  0.30561602  1
  O  O395  1  0.79122974  0.58388280  0.79887833  1
  O  O396  1  0.28820095  0.33423265  0.30804045  1
  O  O397  1  0.29311780  0.33941265  0.80993354  1
  O  O398  1  0.28911358  0.83328673  0.30329367  1
  O  O399  1  0.28941379  0.83084435  0.80069186  1
  O  O400  1  0.61874058  0.33114877  0.30893866  1
  O  O401  1  0.62049984  0.34331203  0.81081833  1
  O  O402  1  0.62112594  0.83668058  0.30482185  1
  O  O403  1  0.62232906  0.83357494  0.79833747  1
  O  O404  1  0.95771373  0.32885378  0.30859909  1
  O  O405  1  0.96236462  0.33652252  0.80600741  1
  O  O406  1  0.95328627  0.83462110  0.29735309  1
  O  O407  1  0.95587555  0.83898226  0.80214112  1
  O  O408  1  0.12098020  0.41385229  0.30612988  1
  O  O409  1  0.12611350  0.42161439  0.80492681  1
  O  O410  1  0.12532674  0.91840735  0.30362894  1
  O  O411  1  0.12247209  0.91468554  0.80250764  1
  O  O412  1  0.45353846  0.41712661  0.30539772  1
  O  O413  1  0.45768110  0.41678130  0.80763763  1
  O  O414  1  0.45615993  0.91674093  0.30438483  1
  O  O415  1  0.45452966  0.91347445  0.80584803  1
  O  O416  1  0.78666858  0.41157887  0.30198252  1
  O  O417  1  0.79684878  0.41912517  0.80806068  1
  O  O418  1  0.79006368  0.92161975  0.30713384  1
  O  O419  1  0.79318252  0.91669460  0.80508046  1
  O  O420  1  0.28856757  0.16711870  0.30281346  1
  O  O421  1  0.30051734  0.17244569  0.80548373  1
  O  O422  1  0.29433854  0.66589989  0.30383114  1
  O  O423  1  0.28783180  0.67029023  0.80097494  1
  O  O424  1  0.62137282  0.16529059  0.30717491  1
  O  O425  1  0.61627465  0.15967886  0.80323444  1
  O  O426  1  0.62185797  0.66665790  0.29604023  1
  O  O427  1  0.62211172  0.66680979  0.80783476  1
  O  O428  1  0.95521280  0.16406567  0.30526681  1
  O  O429  1  0.95772496  0.16589406  0.79902814  1
  O  O430  1  0.95615531  0.66496373  0.30581360  1
  O  O431  1  0.95826698  0.66741166  0.80460409  1
  F  F432  1  0.04474473  0.00231595  0.20324280  1
  F  F433  1  0.04480822  0.00089887  0.69992173  1
  F  F434  1  0.04206103  0.49348123  0.20082266  1
  F  F435  1  0.04963451  0.50069881  0.70185851  1
  F  F436  1  0.37775827  0.00429019  0.20386702  1
  F  F437  1  0.38201025  -0.00285585  0.70210380  1
  F  F438  1  0.37808679  0.49438721  0.20126802  1
  F  F439  1  0.37515587  0.49799504  0.69797762  1
  F  F440  1  0.71198728  0.00384437  0.20362715  1
  F  F441  1  0.71236891  -0.00000514  0.70500463  1
  F  F442  1  0.70988206  0.49606704  0.20354178  1
  F  F443  1  0.71335840  0.49987461  0.69964550  1
  F  F444  1  0.20919107  0.25129738  0.20354219  1
  F  F445  1  0.21863907  0.26450415  0.69943693  1
  F  F446  1  0.21740870  0.76172286  0.19501277  1
  F  F447  1  0.21312165  0.75016854  0.69501631  1
  F  F448  1  0.54268678  0.24881818  0.20569788  1
  F  F449  1  0.53030619  0.25080164  0.70048151  1
  F  F450  1  0.54807840  0.75742088  0.19571893  1
  F  F451  1  0.54436872  0.74942047  0.70126372  1
  F  F452  1  0.87635757  0.24845800  0.20458859  1
  F  F453  1  0.88103372  0.25255357  0.70125766  1
  F  F454  1  0.87538343  0.74765294  0.20138954  1
  F  F455  1  0.87520170  0.75219417  0.69963167  1
  F  F456  1  0.28815936  -0.00080426  0.29802589  1
  F  F457  1  0.28732786  -0.00420486  0.80057587  1
  F  F458  1  0.28387851  0.49791912  0.29659168  1
  F  F459  1  0.28673309  0.49909349  0.80257643  1
  F  F460  1  0.62022943  0.00113288  0.29778858  1
  F  F461  1  0.62098485  -0.00162202  0.79891290  1
  F  F462  1  0.61831242  0.49728879  0.29869091  1
  F  F463  1  0.62668322  0.50244931  0.79666455  1
  F  F464  1  0.95392360  0.00055523  0.29798005  1
  F  F465  1  0.95491945  -0.00118668  0.79457925  1
  F  F466  1  0.95391686  0.49692478  0.29754949  1
  F  F467  1  0.95961468  0.50056327  0.79731160  1
  F  F468  1  0.11974157  0.24984618  0.29957904  1
  F  F469  1  0.12029082  0.26204117  0.80324539  1
  F  F470  1  0.11795174  0.76089607  0.29891270  1
  F  F471  1  0.12622193  0.75049935  0.79302081  1
  F  F472  1  0.45342465  0.24966755  0.30091174  1
  F  F473  1  0.45632663  0.25506553  0.80337959  1
  F  F474  1  0.45409632  0.75553695  0.29914032  1
  F  F475  1  0.45354798  0.75048269  0.79597617  1
  F  F476  1  0.78617927  0.24657952  0.30070738  1
  F  F477  1  0.80394698  0.25028455  0.80299841  1
  F  F478  1  0.78888911  0.74721823  0.29816453  1
  F  F479  1  0.78988803  0.75418996  0.79843102  1
