# generated using pymatgen
data_K24Na3Li5Mg64Fe17Si79(O5F)48
_symmetry_space_group_name_H-M   'P 1'
_cell_length_a   16.09347757
_cell_length_b   18.59693856
_cell_length_c   20.56993130
_cell_angle_alpha   89.98749927
_cell_angle_beta   100.01827227
_cell_angle_gamma   89.99562359
_symmetry_Int_Tables_number   1
_chemical_formula_structural   K24Na3Li5Mg64Fe17Si79(O5F)48
_chemical_formula_sum   'K24 Na3 Li5 Mg64 Fe17 Si79 O240 F48'
_cell_volume   6062.49226947
_cell_formula_units_Z   1
loop_
 _symmetry_equiv_pos_site_id
 _symmetry_equiv_pos_as_xyz
  1  'x, y, z'
loop_
 _atom_site_type_symbol
 _atom_site_label
 _atom_site_symmetry_multiplicity
 _atom_site_fract_x
 _atom_site_fract_y
 _atom_site_fract_z
 _atom_site_occupancy
  K  K0  1  0.00394480  0.00050943  -0.00278438  1
  K  K1  1  0.00156082  0.00262670  0.50390766  1
  K  K2  1  0.00179072  0.49902955  0.00078931  1
  K  K3  1  -0.00272906  0.48273747  0.49976003  1
  K  K4  1  0.33017999  -0.00507595  -0.01062913  1
  K  K5  1  0.34750299  0.00091962  0.51563566  1
  K  K6  1  0.34050676  0.50538108  -0.00228457  1
  K  K7  1  0.32135774  0.49886919  0.50123409  1
  K  K8  1  0.66089402  0.00049763  -0.01290977  1
  K  K9  1  0.65591755  0.00853429  0.50819708  1
  K  K10  1  0.66190980  0.49549147  0.00484359  1
  K  K11  1  0.67806921  0.50225219  0.50476735  1
  K  K12  1  0.16123946  0.25197346  -0.00772516  1
  K  K13  1  0.16264730  0.25333070  0.50890439  1
  K  K14  1  0.17964270  0.75191489  -0.00514350  1
  K  K15  1  0.17550996  0.74905506  0.50919692  1
  K  K16  1  0.51770872  0.24926636  -0.00167961  1
  K  K17  1  0.51206694  0.25027183  0.50528398  1
  K  K18  1  0.49806967  0.75126481  -0.00616723  1
  K  K19  1  0.50151644  0.76181056  0.51202761  1
  K  K20  1  0.83222030  0.26118894  -0.00152970  1
  K  K21  1  0.83131311  0.25468915  0.50140914  1
  K  K22  1  0.82052759  0.75232376  -0.00483230  1
  K  K23  1  0.82706890  0.74589829  0.50217111  1
  Na  Na24  1  0.16365091  0.49864052  0.24854475  1
  Na  Na25  1  0.16459120  0.32659662  0.74113523  1
  Na  Na26  1  0.66767621  0.58146364  0.75382182  1
  Li  Li27  1  0.83336543  0.49352328  0.25215583  1
  Li  Li28  1  0.33849310  0.75821336  0.74984083  1
  Li  Li29  1  0.33675407  0.91225585  0.75135798  1
  Li  Li30  1  0.66207168  0.91777208  0.75664126  1
  Li  Li31  1  0.16616719  0.16807916  0.74586881  1
  Mg  Mg32  1  0.83478324  -0.00296729  0.25145555  1
  Mg  Mg33  1  0.32905272  0.24849475  0.74551150  1
  Mg  Mg34  1  0.50231498  0.49983941  0.24885550  1
  Mg  Mg35  1  0.83209782  0.50111123  0.75131860  1
  Mg  Mg36  1  0.16618061  0.49907303  0.74512581  1
  Mg  Mg37  1  0.82793630  -0.00091588  0.75160221  1
  Mg  Mg38  1  0.50057364  -0.00023547  0.25034139  1
  Mg  Mg39  1  0.00278608  0.24746468  0.74777211  1
  Mg  Mg40  1  0.16942781  0.00006688  0.74990552  1
  Mg  Mg41  1  0.33518114  0.74856379  0.24573723  1
  Mg  Mg42  1  0.66710582  0.24904809  0.25659251  1
  Mg  Mg43  1  0.66847591  0.75049323  0.24761571  1
  Mg  Mg44  1  0.49924030  -0.00119810  0.75195093  1
  Mg  Mg45  1  0.66590747  0.25123090  0.75371116  1
  Mg  Mg46  1  0.16891605  -0.00202023  0.24600811  1
  Mg  Mg47  1  0.50006549  0.49943747  0.75102227  1
  Mg  Mg48  1  0.33121401  0.25177065  0.25102900  1
  Mg  Mg49  1  0.00048631  0.75273499  0.74961311  1
  Mg  Mg50  1  -0.00182766  0.25240945  0.24887372  1
  Mg  Mg51  1  0.00204715  0.74734017  0.24893753  1
  Mg  Mg52  1  0.66346015  0.75387764  0.74983906  1
  Mg  Mg53  1  0.50173855  0.66462645  0.24791955  1
  Mg  Mg54  1  0.16199428  0.33566529  0.24851751  1
  Mg  Mg55  1  0.50197270  0.16630046  0.75183629  1
  Mg  Mg56  1  0.83465326  0.33620710  0.75275683  1
  Mg  Mg57  1  0.66895758  0.58206738  0.25011280  1
  Mg  Mg58  1  0.00015611  0.08243455  0.24909852  1
  Mg  Mg59  1  0.50133494  0.33417974  0.25397448  1
  Mg  Mg60  1  0.66496902  0.91501878  0.24839323  1
  Mg  Mg61  1  0.50146099  0.33404695  0.75114828  1
  Mg  Mg62  1  0.00030086  0.41420867  0.74619319  1
  Mg  Mg63  1  0.33041771  0.41557205  0.74772860  1
  Mg  Mg64  1  0.17122279  0.83479628  0.74748806  1
  Mg  Mg65  1  0.33262841  0.58630980  0.74788280  1
  Mg  Mg66  1  0.49828091  0.66895516  0.74911497  1
  Mg  Mg67  1  0.16659111  0.66440776  0.24897448  1
  Mg  Mg68  1  0.33227798  0.08474656  0.25028411  1
  Mg  Mg69  1  0.83428407  0.16345821  0.25502862  1
  Mg  Mg70  1  0.00060871  0.58497789  0.74873775  1
  Mg  Mg71  1  -0.00408044  0.41527039  0.25202558  1
  Mg  Mg72  1  0.50095385  0.16613507  0.25415777  1
  Mg  Mg73  1  -0.00038761  0.91691747  0.75088460  1
  Mg  Mg74  1  0.67012027  0.41572535  0.25226843  1
  Mg  Mg75  1  0.83211374  0.66849328  0.75035718  1
  Mg  Mg76  1  0.00228546  0.91307930  0.24693878  1
  Mg  Mg77  1  0.16340671  0.16602401  0.24662357  1
  Mg  Mg78  1  0.83327670  0.16599319  0.75296022  1
  Mg  Mg79  1  0.17042024  0.66982273  0.74812182  1
  Mg  Mg80  1  0.66624289  0.08361087  0.75316624  1
  Mg  Mg81  1  -0.00352372  0.57947937  0.25010679  1
  Mg  Mg82  1  0.83234103  0.66373881  0.25051438  1
  Mg  Mg83  1  0.66963324  0.41668551  0.75431535  1
  Mg  Mg84  1  0.33349293  0.91514505  0.24660860  1
  Mg  Mg85  1  0.83428341  0.33592232  0.25340023  1
  Mg  Mg86  1  0.33134713  0.41743728  0.24979258  1
  Mg  Mg87  1  0.00112172  0.08360500  0.74779479  1
  Mg  Mg88  1  0.33352091  0.58260240  0.24824236  1
  Mg  Mg89  1  0.49657337  0.83682144  0.75159301  1
  Mg  Mg90  1  0.82799768  0.83591083  0.74902073  1
  Mg  Mg91  1  0.50096391  0.83480468  0.24614941  1
  Mg  Mg92  1  0.33177418  0.08214498  0.75051409  1
  Mg  Mg93  1  0.83221593  0.83252059  0.24764600  1
  Mg  Mg94  1  0.66583806  0.08344079  0.25471176  1
  Mg  Mg95  1  0.16924692  0.83332606  0.24628229  1
  Fe  Fe96  1  0.52536088  0.92161380  0.10847784  1
  Fe  Fe97  1  0.64221901  0.33876564  0.89294633  1
  Fe  Fe98  1  0.01790812  0.32530326  0.60492750  1
  Fe  Fe99  1  0.52725349  0.57925480  0.10994117  1
  Fe  Fe100  1  0.64331864  0.16530502  0.39512587  1
  Fe  Fe101  1  0.02732436  0.33706232  0.10658781  1
  Fe  Fe102  1  0.97566466  0.32655978  0.39394094  1
  Fe  Fe103  1  0.52671117  0.91882949  0.61189636  1
  Fe  Fe104  1  0.85483399  0.42325057  0.11132216  1
  Fe  Fe105  1  0.19712707  0.91604580  0.10716536  1
  Fe  Fe106  1  0.30515611  0.83201584  0.88621458  1
  Fe  Fe107  1  0.81469524  0.42712290  0.89396658  1
  Fe  Fe108  1  0.80497198  0.42137717  0.39391148  1
  Fe  Fe109  1  0.19330835  0.42005679  0.60491762  1
  Fe  Fe110  1  0.69330583  0.83707934  0.10848633  1
  Fe  Fe111  1  0.64760556  0.16489701  0.89276803  1
  Fe  Fe112  1  0.81049580  0.91223232  0.88877907  1
  Si  Si113  1  0.63521236  0.83259787  0.88820710  1
  Si  Si114  1  0.36087559  0.33427638  0.11734037  1
  Si  Si115  1  0.85767834  0.42175403  0.61310149  1
  Si  Si116  1  0.98321069  0.67142415  0.88363968  1
  Si  Si117  1  0.86765246  0.91298972  0.11368756  1
  Si  Si118  1  0.19317976  0.08002402  0.61334128  1
  Si  Si119  1  0.36383378  0.33379949  0.61073951  1
  Si  Si120  1  0.47171852  0.91922518  0.88740371  1
  Si  Si121  1  0.36568143  0.82993777  0.11192154  1
  Si  Si122  1  0.69143275  0.15957929  0.11910926  1
  Si  Si123  1  0.63998372  0.83468940  0.38651613  1
  Si  Si124  1  0.03018671  0.82879404  0.11214368  1
  Si  Si125  1  0.69557169  0.33633595  0.61641105  1
  Si  Si126  1  0.63553910  0.33837552  0.39264442  1
  Si  Si127  1  0.14418885  0.07757423  0.38299104  1
  Si  Si128  1  0.69279417  0.66818117  0.11304040  1
  Si  Si129  1  0.46701315  0.08202086  0.38933682  1
  Si  Si130  1  0.97760165  0.83188380  0.88514013  1
  Si  Si131  1  0.18759609  0.59049825  0.60932181  1
  Si  Si132  1  0.02037504  0.16614131  0.11275882  1
  Si  Si133  1  0.97868605  0.66899821  0.38682064  1
  Si  Si134  1  0.47087236  0.08584083  0.88786150  1
  Si  Si135  1  0.98061805  0.83309112  0.38514392  1
  Si  Si136  1  0.52554522  0.08958882  0.61327724  1
  Si  Si137  1  0.19089767  0.91561407  0.61257959  1
  Si  Si138  1  0.20028019  0.41636522  0.11177038  1
  Si  Si139  1  0.80948946  0.59326284  0.38997954  1
  Si  Si140  1  0.01911555  0.15558392  0.60957532  1
  Si  Si141  1  0.14065670  0.58542081  0.38500214  1
  Si  Si142  1  0.85607854  0.91431367  0.61370081  1
  Si  Si143  1  0.97786469  0.16761845  0.88323820  1
  Si  Si144  1  0.63930876  0.66995340  0.38714287  1
  Si  Si145  1  0.19206431  0.58456698  0.11408962  1
  Si  Si146  1  0.35810076  0.83326988  0.61175697  1
  Si  Si147  1  0.47601661  0.58125210  0.88398863  1
  Si  Si148  1  0.81278507  0.07567818  0.39128519  1
  Si  Si149  1  0.35603186  0.17218015  0.11713473  1
  Si  Si150  1  0.69293973  0.32506874  0.11766011  1
  Si  Si151  1  0.51725257  0.08792035  0.11524609  1
  Si  Si152  1  0.13912588  0.41795680  0.38727008  1
  Si  Si153  1  0.13803507  0.41670040  0.88127389  1
  Si  Si154  1  0.85318628  0.07810584  0.61515184  1
  Si  Si155  1  0.81809434  0.59573326  0.88828806  1
  Si  Si156  1  0.85715767  0.58762017  0.61464025  1
  Si  Si157  1  0.35705788  0.16767466  0.61442370  1
  Si  Si158  1  0.52844080  0.41613449  0.61440196  1
  Si  Si159  1  0.69485971  0.17109831  0.61692337  1
  Si  Si160  1  0.85828598  0.07829240  0.11666353  1
  Si  Si161  1  0.19024169  0.08701218  0.11177217  1
  Si  Si162  1  0.02350243  0.83837256  0.61322509  1
  Si  Si163  1  0.68969935  0.66692153  0.61440248  1
  Si  Si164  1  0.46784648  0.41702011  0.38553666  1
  Si  Si165  1  0.35540358  0.66644661  0.11141787  1
  Si  Si166  1  0.98051047  0.15599874  0.38807630  1
  Si  Si167  1  0.30486549  0.16764230  0.88251971  1
  Si  Si168  1  0.47231556  0.91597314  0.38529651  1
  Si  Si169  1  0.30281340  0.33459256  0.38547592  1
  Si  Si170  1  0.47483134  0.58264219  0.38563221  1
  Si  Si171  1  0.69341837  0.82910828  0.60999708  1
  Si  Si172  1  0.81193252  0.91049211  0.38688921  1
  Si  Si173  1  0.02218306  0.67271322  0.61370977  1
  Si  Si174  1  0.14006955  0.08393411  0.88119760  1
  Si  Si175  1  0.30878225  0.66465688  0.38508426  1
  Si  Si176  1  0.46643870  0.41525419  0.88636218  1
  Si  Si177  1  0.81821562  0.08131089  0.89028058  1
  Si  Si178  1  0.52642703  0.40793852  0.11554569  1
  Si  Si179  1  0.85578302  0.59096165  0.11538993  1
  Si  Si180  1  0.63966805  0.66884115  0.88483339  1
  Si  Si181  1  0.13712533  0.91950328  0.88549466  1
  Si  Si182  1  0.52158146  0.58187269  0.61379587  1
  Si  Si183  1  0.97664742  0.33170003  0.88576903  1
  Si  Si184  1  0.02343805  0.66427639  0.11408887  1
  Si  Si185  1  0.14201822  0.57967807  0.88312328  1
  Si  Si186  1  0.35922074  0.66721959  0.61300417  1
  Si  Si187  1  0.30832470  0.66217317  0.88532723  1
  Si  Si188  1  0.30240113  0.16815858  0.38505023  1
  Si  Si189  1  0.14655038  0.91410901  0.38400019  1
  Si  Si190  1  0.30418947  0.33266786  0.88189445  1
  Si  Si191  1  0.31050150  0.82872461  0.38445293  1
  O  O192  1  0.27425599  0.12220518  0.08667043  1
  O  O193  1  0.26932504  0.12306186  0.58336955  1
  O  O194  1  0.27002530  0.61835259  0.08175331  1
  O  O195  1  0.26750894  0.63036178  0.58160532  1
  O  O196  1  0.60516582  0.11389350  0.09021370  1
  O  O197  1  0.60233650  0.13599904  0.58681625  1
  O  O198  1  0.62741681  0.60520422  0.08183632  1
  O  O199  1  0.60243270  0.62042275  0.58656383  1
  O  O200  1  0.94078895  0.10947196  0.08844836  1
  O  O201  1  0.93575127  0.10197015  0.58319913  1
  O  O202  1  0.94217811  0.61448924  0.08509426  1
  O  O203  1  0.93404542  0.62849999  0.58442490  1
  O  O204  1  0.12806188  0.36413707  0.07384964  1
  O  O205  1  0.10715701  0.35997869  0.56923305  1
  O  O206  1  0.11064195  0.84883229  0.07867452  1
  O  O207  1  0.09991515  0.87506985  0.58050204  1
  O  O208  1  0.44795797  0.35098953  0.08997722  1
  O  O209  1  0.44954176  0.36355980  0.58356534  1
  O  O210  1  0.45352160  0.84126826  0.08551073  1
  O  O211  1  0.42308968  0.87401103  0.57164653  1
  O  O212  1  0.76829359  0.35432362  0.08350604  1
  O  O213  1  0.76775631  0.37955931  0.58538835  1
  O  O214  1  0.79802399  0.85620730  0.08139444  1
  O  O215  1  0.77947566  0.85951006  0.58279521  1
  O  O216  1  0.29047308  0.39440621  0.08631036  1
  O  O217  1  0.28912954  0.38339437  0.57253678  1
  O  O218  1  0.29669584  0.88903481  0.07908990  1
  O  O219  1  0.26242713  0.86861100  0.58307864  1
  O  O220  1  0.60647402  0.37113043  0.08858430  1
  O  O221  1  0.60810242  0.37970530  0.58568820  1
  O  O222  1  0.62301623  0.91133259  0.07466012  1
  O  O223  1  0.61408658  0.87526609  0.57311857  1
  O  O224  1  0.94564235  0.40098060  0.07053653  1
  O  O225  1  0.92683986  0.38806837  0.57490812  1
  O  O226  1  0.95636530  0.88961098  0.08864984  1
  O  O227  1  0.93897163  0.88614459  0.58276651  1
  O  O228  1  0.10689262  0.13789043  0.08661560  1
  O  O229  1  0.10066012  0.11595704  0.58272068  1
  O  O230  1  0.10528898  0.63073033  0.08501210  1
  O  O231  1  0.10267680  0.64189395  0.58326356  1
  O  O232  1  0.44280447  0.14975063  0.09054888  1
  O  O233  1  0.43568174  0.13205069  0.58331189  1
  O  O234  1  0.43189641  0.63798335  0.07693447  1
  O  O235  1  0.43414212  0.62520672  0.58012926  1
  O  O236  1  0.77157412  0.12409515  0.08966830  1
  O  O237  1  0.76936056  0.12777072  0.58601371  1
  O  O238  1  0.78613235  0.65532617  0.09072479  1
  O  O239  1  0.76826377  0.62912270  0.58382160  1
  O  O240  1  0.05966811  0.09830496  0.41219173  1
  O  O241  1  0.06090699  0.11802305  0.91280322  1
  O  O242  1  0.06299932  0.62118212  0.41811952  1
  O  O243  1  0.06153056  0.61582854  0.91209355  1
  O  O244  1  0.38431931  0.11863832  0.41526204  1
  O  O245  1  0.38626431  0.11798248  0.91528745  1
  O  O246  1  0.39591399  0.62043664  0.41523272  1
  O  O247  1  0.39632495  0.61640200  0.91313510  1
  O  O248  1  0.73923563  0.10786850  0.42693194  1
  O  O249  1  0.73923077  0.10370004  0.92498742  1
  O  O250  1  0.73093013  0.63537382  0.41988779  1
  O  O251  1  0.73256040  0.63104307  0.91150491  1
  O  O252  1  0.22694887  0.37168729  0.41642376  1
  O  O253  1  0.22119930  0.36643288  0.90837453  1
  O  O254  1  0.23028793  0.86509756  0.41315526  1
  O  O255  1  0.21256699  0.86979882  0.92211246  1
  O  O256  1  0.54543986  0.36459854  0.41633437  1
  O  O257  1  0.54094005  0.36491284  0.92289561  1
  O  O258  1  0.56529494  0.88007123  0.41482113  1
  O  O259  1  0.55592053  0.87039983  0.91652607  1
  O  O260  1  0.88541600  0.35567133  0.43151877  1
  O  O261  1  0.90179026  0.35916970  0.92182959  1
  O  O262  1  0.89888659  0.86404418  0.41525375  1
  O  O263  1  0.89763268  0.84501304  0.92053076  1
  O  O264  1  0.06639409  0.39001871  0.42499352  1
  O  O265  1  0.06201256  0.38008165  0.91340517  1
  O  O266  1  0.06480776  0.88273726  0.41434875  1
  O  O267  1  0.04978100  0.89309938  0.91106624  1
  O  O268  1  0.38655764  0.38340959  0.41403429  1
  O  O269  1  0.38089551  0.38725143  0.91438792  1
  O  O270  1  0.39905096  0.87018838  0.41488363  1
  O  O271  1  0.39755189  0.88845311  0.92364330  1
  O  O272  1  0.70323123  0.39787997  0.42440051  1
  O  O273  1  0.72109066  0.40580434  0.92940384  1
  O  O274  1  0.73303556  0.87151857  0.41569461  1
  O  O275  1  0.71809329  0.87625030  0.92345022  1
  O  O276  1  0.22159886  0.13249930  0.41309513  1
  O  O277  1  0.22349404  0.13292666  0.91116682  1
  O  O278  1  0.22903597  0.63025915  0.41497265  1
  O  O279  1  0.23020606  0.62029303  0.91466685  1
  O  O280  1  0.55019054  0.12231778  0.42683959  1
  O  O281  1  0.54965611  0.13277918  0.92431774  1
  O  O282  1  0.56298907  0.62601735  0.41553052  1
  O  O283  1  0.56531614  0.62254475  0.91384356  1
  O  O284  1  0.90223470  0.11773151  0.41796988  1
  O  O285  1  0.89731740  0.13930252  0.91475576  1
  O  O286  1  0.89492218  0.64449413  0.41658509  1
  O  O287  1  0.89813013  0.65289166  0.91411864  1
  O  O288  1  0.16984346  0.01023343  0.07646283  1
  O  O289  1  0.18904259  -0.00246984  0.58000072  1
  O  O290  1  0.17951026  0.50117142  0.08759998  1
  O  O291  1  0.17140508  0.51567127  0.57027631  1
  O  O292  1  0.48120720  0.01410595  0.08082664  1
  O  O293  1  0.51975876  0.01345324  0.57503323  1
  O  O294  1  0.50141710  0.48400211  0.07944773  1
  O  O295  1  0.51421277  0.49871218  0.58332694  1
  O  O296  1  0.84482423  -0.00387178  0.08781592  1
  O  O297  1  0.83107312  -0.00406361  0.58549708  1
  O  O298  1  0.81942767  0.51681243  0.08189701  1
  O  O299  1  0.84397378  0.50612646  0.58586733  1
  O  O300  1  -0.00480011  0.24164730  0.07747101  1
  O  O301  1  -0.00208245  0.23022245  0.57099354  1
  O  O302  1  0.00120189  0.74660467  0.08645417  1
  O  O303  1  0.00659447  0.75563712  0.58419658  1
  O  O304  1  0.32934338  0.25373309  0.09007632  1
  O  O305  1  0.34802721  0.24963374  0.58380996  1
  O  O306  1  0.32761519  0.74905531  0.08897152  1
  O  O307  1  0.35185846  0.74893510  0.58183465  1
  O  O308  1  0.67323143  0.24117591  0.09124197  1
  O  O309  1  0.69066220  0.25353518  0.58621993  1
  O  O310  1  0.65564477  0.74422992  0.08176353  1
  O  O311  1  0.67891320  0.74610765  0.57798432  1
  O  O312  1  0.16924707  -0.00411285  0.41183578  1
  O  O313  1  0.15436593  0.00283892  0.91359706  1
  O  O314  1  0.16046781  0.50311981  0.41099811  1
  O  O315  1  0.15302732  0.49798793  0.91439627  1
  O  O316  1  0.46972345  -0.00276414  0.41536060  1
  O  O317  1  0.48704580  0.00283395  0.91533887  1
  O  O318  1  0.48359221  0.49984938  0.41473167  1
  O  O319  1  0.48300997  0.49906719  0.91339728  1
  O  O320  1  0.82895672  -0.00892365  0.41819040  1
  O  O321  1  0.85312471  0.00325431  0.91861413  1
  O  O322  1  0.82621904  0.51763116  0.42745257  1
  O  O323  1  0.84599824  0.52132376  0.92554997  1
  O  O324  1  0.31652318  0.25090926  0.41361065  1
  O  O325  1  0.31705207  0.25048310  0.91367471  1
  O  O326  1  0.32079440  0.74697255  0.41521205  1
  O  O327  1  0.31948603  0.73823334  0.92298956  1
  O  O328  1  0.65615122  0.25978717  0.42719710  1
  O  O329  1  0.67486878  0.25184019  0.93344744  1
  O  O330  1  0.63988494  0.75283149  0.41751280  1
  O  O331  1  0.64223668  0.74888313  0.91898475  1
  O  O332  1  1.00840317  0.23115259  0.42244911  1
  O  O333  1  1.00209027  0.24865949  0.91141363  1
  O  O334  1  1.00108839  0.75196230  0.41527734  1
  O  O335  1  1.01784708  0.75149556  0.90896031  1
  O  O336  1  0.20983729  0.08407961  0.19327895  1
  O  O337  1  0.21205258  0.07747174  0.69227241  1
  O  O338  1  0.21454409  0.59042222  0.19348018  1
  O  O339  1  0.20691057  0.58767514  0.69010121  1
  O  O340  1  0.53809817  0.08467975  0.19660735  1
  O  O341  1  0.54203076  0.08581986  0.69329125  1
  O  O342  1  0.54520471  0.58269308  0.20191055  1
  O  O343  1  0.53296856  0.58256245  0.69272727  1
  O  O344  1  0.87683089  0.07928565  0.19763201  1
  O  O345  1  0.87378277  0.08140843  0.69505127  1
  O  O346  1  0.87901322  0.59053071  0.19568927  1
  O  O347  1  0.87671850  0.58820955  0.69465622  1
  O  O348  1  0.04548990  0.33218331  0.19866005  1
  O  O349  1  0.02986241  0.33068521  0.69497863  1
  O  O350  1  0.04682448  0.83017020  0.19385087  1
  O  O351  1  0.04110242  0.83626463  0.69316482  1
  O  O352  1  0.37759757  0.33340781  0.19814393  1
  O  O353  1  0.37892882  0.33473234  0.69133353  1
  O  O354  1  0.37797608  0.83249839  0.19413435  1
  O  O355  1  0.38078468  0.83452975  0.69039305  1
  O  O356  1  0.70754962  0.32709464  0.19857503  1
  O  O357  1  0.71187097  0.33307824  0.69596790  1
  O  O358  1  0.71239632  0.83453121  0.20189714  1
  O  O359  1  0.71098458  0.82713038  0.68940307  1
  O  O360  1  0.21648008  0.40949305  0.19168734  1
  O  O361  1  0.21587137  0.42543931  0.69514735  1
  O  O362  1  0.21340328  0.91588171  0.19984066  1
  O  O363  1  0.20116610  0.91796296  0.69126645  1
  O  O364  1  0.54297120  0.41318257  0.19677191  1
  O  O365  1  0.54263378  0.41833063  0.69415709  1
  O  O366  1  0.54447848  0.91905319  0.20206353  1
  O  O367  1  0.54284774  0.91759563  0.70151703  1
  O  O368  1  0.87742706  0.41467008  0.20114488  1
  O  O369  1  0.87682353  0.42002850  0.69346312  1
  O  O370  1  0.88109382  0.91462725  0.19539336  1
  O  O371  1  0.87722954  0.91484730  0.69341168  1
  O  O372  1  0.04085462  0.16446829  0.19426794  1
  O  O373  1  0.03445991  0.16128030  0.68905839  1
  O  O374  1  0.04459905  0.66588587  0.19471298  1
  O  O375  1  0.04064740  0.66955035  0.69372981  1
  O  O376  1  0.37422821  0.16838528  0.19798275  1
  O  O377  1  0.37766227  0.16551603  0.69417452  1
  O  O378  1  0.37664017  0.66432609  0.19305180  1
  O  O379  1  0.37777123  0.66350183  0.69224840  1
  O  O380  1  0.71194697  0.16043720  0.19960055  1
  O  O381  1  0.71330756  0.16937684  0.69661071  1
  O  O382  1  0.70930649  0.66727214  0.19528680  1
  O  O383  1  0.71243155  0.67253395  0.69315924  1
  O  O384  1  0.12637899  0.07966868  0.30250508  1
  O  O385  1  0.12005750  0.07917323  0.80209174  1
  O  O386  1  0.11923353  0.59288510  0.30617691  1
  O  O387  1  0.12359434  0.58425953  0.80270492  1
  O  O388  1  0.45346818  0.08347189  0.30839507  1
  O  O389  1  0.45537610  0.08645741  0.80697573  1
  O  O390  1  0.45625744  0.58438322  0.30567057  1
  O  O391  1  0.45695898  0.58364603  0.80380218  1
  O  O392  1  0.79269264  0.07796131  0.31029034  1
  O  O393  1  0.79388958  0.08431585  0.80861003  1
  O  O394  1  0.78681694  0.59202546  0.31017266  1
  O  O395  1  0.80429171  0.58822167  0.80838718  1
  O  O396  1  0.28775649  0.33334940  0.30513098  1
  O  O397  1  0.29760416  0.33092779  0.80311561  1
  O  O398  1  0.29292582  0.83003218  0.30447175  1
  O  O399  1  0.28560864  0.83224142  0.79731143  1
  O  O400  1  0.62012958  0.33335912  0.31100014  1
  O  O401  1  0.62126244  0.33391815  0.79994397  1
  O  O402  1  0.62276418  0.83295605  0.30689258  1
  O  O403  1  0.62024071  0.82989321  0.80818518  1
  O  O404  1  0.95449567  0.32809671  0.30238234  1
  O  O405  1  0.95613525  0.33370391  0.80533386  1
  O  O406  1  0.96146976  0.83334020  0.30499775  1
  O  O407  1  0.95679114  0.83339124  0.80385494  1
  O  O408  1  0.12055452  0.41012653  0.30809242  1
  O  O409  1  0.11762559  0.42462079  0.80256008  1
  O  O410  1  0.12498686  0.91395147  0.30399066  1
  O  O411  1  0.12176563  0.91698337  0.80454591  1
  O  O412  1  0.45411917  0.41749666  0.30516313  1
  O  O413  1  0.45271426  0.41598259  0.80533464  1
  O  O414  1  0.45387437  0.91541958  0.30531059  1
  O  O415  1  0.45647389  0.91839469  0.80759507  1
  O  O416  1  0.78492540  0.41325567  0.30367460  1
  O  O417  1  0.79176054  0.41945584  0.80146690  1
  O  O418  1  0.79423332  0.91393525  0.30695197  1
  O  O419  1  0.78823246  0.91588217  0.79795102  1
  O  O420  1  0.28684550  0.16679723  0.30464120  1
  O  O421  1  0.29308127  0.16748064  0.80338149  1
  O  O422  1  0.29205551  0.66613744  0.30492735  1
  O  O423  1  0.28726482  0.66196843  0.80523394  1
  O  O424  1  0.62092605  0.16468060  0.30342326  1
  O  O425  1  0.62289030  0.16779976  0.80016890  1
  O  O426  1  0.62310394  0.66982477  0.30728020  1
  O  O427  1  0.61799413  0.67369408  0.80557161  1
  O  O428  1  0.95881650  0.15889537  0.30706165  1
  O  O429  1  0.95648493  0.16447981  0.80295913  1
  O  O430  1  0.95965721  0.66853311  0.30675627  1
  O  O431  1  0.96130090  0.66866007  0.80315642  1
  F  F432  1  0.04636523  -0.00147480  0.20164082  1
  F  F433  1  0.04361887  -0.00220816  0.69971393  1
  F  F434  1  0.03292416  0.49975214  0.19922251  1
  F  F435  1  0.04331546  0.50456697  0.69771836  1
  F  F436  1  0.37808955  0.00212050  0.20445575  1
  F  F437  1  0.38134972  0.00613930  0.70048183  1
  F  F438  1  0.38007653  0.49973137  0.20109442  1
  F  F439  1  0.37909075  0.50080478  0.70215834  1
  F  F440  1  0.71384777  0.00064921  0.20728290  1
  F  F441  1  0.71324431  0.01115796  0.69833312  1
  F  F442  1  0.70471783  0.49950928  0.20310780  1
  F  F443  1  0.71461764  0.49388883  0.69758552  1
  F  F444  1  0.21229843  0.24867188  0.20223218  1
  F  F445  1  0.21977067  0.23921682  0.68868600  1
  F  F446  1  0.21327776  0.74839681  0.20219536  1
  F  F447  1  0.19769719  0.75012041  0.69263139  1
  F  F448  1  0.54360240  0.25052084  0.20652885  1
  F  F449  1  0.54362989  0.25076189  0.69882886  1
  F  F450  1  0.54608747  0.74926207  0.20394632  1
  F  F451  1  0.54436419  0.74974147  0.69823047  1
  F  F452  1  0.87581097  0.24243722  0.20440675  1
  F  F453  1  0.87553582  0.24902636  0.70374098  1
  F  F454  1  0.88184280  0.75016695  0.20533253  1
  F  F455  1  0.87953099  0.75117289  0.70151604  1
  F  F456  1  0.28881503  0.00084370  0.29912745  1
  F  F457  1  0.28503732  0.00453893  0.80059165  1
  F  F458  1  0.30004379  0.50123891  0.30116553  1
  F  F459  1  0.28768324  0.50406084  0.79729307  1
  F  F460  1  0.62199422  -0.00009332  0.30254453  1
  F  F461  1  0.61844317  0.00736826  0.80171540  1
  F  F462  1  0.61968500  0.49913185  0.30168658  1
  F  F463  1  0.61461327  0.49198122  0.80210822  1
  F  F464  1  0.95852932  -0.00421144  0.29809135  1
  F  F465  1  0.95372484  0.00010158  0.79495931  1
  F  F466  1  0.96248727  0.50196628  0.30490703  1
  F  F467  1  0.95637535  0.50184663  0.79446158  1
  F  F468  1  0.12322201  0.24515279  0.29779094  1
  F  F469  1  0.11592438  0.23840148  0.79981460  1
  F  F470  1  0.12434213  0.75128168  0.29774978  1
  F  F471  1  0.12074261  0.75098241  0.79548386  1
  F  F472  1  0.45146704  0.24989303  0.30119231  1
  F  F473  1  0.45276238  0.25041206  0.79459309  1
  F  F474  1  0.45460853  0.74927405  0.29680775  1
  F  F475  1  0.45670540  0.75013327  0.79702441  1
  F  F476  1  0.78768665  0.24445332  0.30210342  1
  F  F477  1  0.78951013  0.25087591  0.79969893  1
  F  F478  1  0.79087139  0.75006992  0.30039070  1
  F  F479  1  0.78727290  0.75099434  0.79717724  1
