# generated using pymatgen
data_K24Na3Li5Mg64Fe17Si79(O5F)48
_symmetry_space_group_name_H-M   'P 1'
_cell_length_a   16.09037897
_cell_length_b   18.58075171
_cell_length_c   20.54854839
_cell_angle_alpha   89.99203444
_cell_angle_beta   100.00125942
_cell_angle_gamma   90.02744018
_symmetry_Int_Tables_number   1
_chemical_formula_structural   K24Na3Li5Mg64Fe17Si79(O5F)48
_chemical_formula_sum   'K24 Na3 Li5 Mg64 Fe17 Si79 O240 F48'
_cell_volume   6050.07036295
_cell_formula_units_Z   1
loop_
 _symmetry_equiv_pos_site_id
 _symmetry_equiv_pos_as_xyz
  1  'x, y, z'
loop_
 _atom_site_type_symbol
 _atom_site_label
 _atom_site_symmetry_multiplicity
 _atom_site_fract_x
 _atom_site_fract_y
 _atom_site_fract_z
 _atom_site_occupancy
  K  K0  1  0.00395435  0.00831428  -0.01704171  1
  K  K1  1  0.00021415  0.00316584  0.51039005  1
  K  K2  1  0.01526526  0.50418941  0.00242099  1
  K  K3  1  0.00588263  0.49819574  0.49967070  1
  K  K4  1  0.32105559  -0.00378542  -0.00647014  1
  K  K5  1  0.33056256  -0.01165275  0.50794794  1
  K  K6  1  0.32303894  0.50389499  -0.00533822  1
  K  K7  1  0.33381425  0.49695374  0.50185356  1
  K  K8  1  0.66598938  -0.00000273  -0.01044355  1
  K  K9  1  0.65890615  -0.00045002  0.50425495  1
  K  K10  1  0.65994796  0.50773184  -0.00165266  1
  K  K11  1  0.65494020  0.49874001  0.49675587  1
  K  K12  1  0.15450548  0.24485760  -0.01628307  1
  K  K13  1  0.16532019  0.25411866  0.50762107  1
  K  K14  1  0.16288249  0.75157635  0.00097849  1
  K  K15  1  0.17211210  0.74850524  0.50758149  1
  K  K16  1  0.48995612  0.24750588  -0.00608546  1
  K  K17  1  0.49645230  0.25783559  0.50141364  1
  K  K18  1  0.49720066  0.74331701  -0.00486071  1
  K  K19  1  0.49944939  0.75000225  0.50365580  1
  K  K20  1  0.84626294  0.24288167  -0.01214153  1
  K  K21  1  0.83702984  0.24741468  0.50424752  1
  K  K22  1  0.83379950  0.74453480  -0.00286190  1
  K  K23  1  0.83418168  0.75213822  0.50075134  1
  Na  Na24  1  0.33082476  0.74850139  0.74956041  1
  Na  Na25  1  0.33262704  0.58164029  0.76052094  1
  Na  Na26  1  0.33273189  0.92010236  0.24547753  1
  Li  Li27  1  0.16526585  0.50080576  0.25433250  1
  Li  Li28  1  0.01681063  0.23868734  0.75070078  1
  Li  Li29  1  0.00298781  0.92694536  0.75223871  1
  Li  Li30  1  0.01226155  0.08817980  0.74638003  1
  Li  Li31  1  0.15937493  0.16064201  0.74531044  1
  Mg  Mg32  1  0.83403128  0.50178994  0.25334011  1
  Mg  Mg33  1  0.16621850  0.50125166  0.75483439  1
  Mg  Mg34  1  0.49892774  0.49903304  0.75178598  1
  Mg  Mg35  1  0.66684228  0.74816910  0.25494254  1
  Mg  Mg36  1  0.66513941  0.75096675  0.75157286  1
  Mg  Mg37  1  0.00098032  0.74784053  0.24828135  1
  Mg  Mg38  1  0.67035160  0.24892200  0.74944695  1
  Mg  Mg39  1  0.16560193  0.00287683  0.24573036  1
  Mg  Mg40  1  0.49835104  0.50100713  0.25360874  1
  Mg  Mg41  1  0.84329017  0.00193653  0.75271834  1
  Mg  Mg42  1  -0.00186052  0.75367459  0.75111319  1
  Mg  Mg43  1  0.33273874  0.75031159  0.24664838  1
  Mg  Mg44  1  0.49980740  0.00111353  0.25100414  1
  Mg  Mg45  1  0.50110263  0.00062829  0.74516257  1
  Mg  Mg46  1  0.33204314  0.25106434  0.24964860  1
  Mg  Mg47  1  0.83341565  0.49904029  0.75363377  1
  Mg  Mg48  1  -0.00093467  0.25140481  0.24778261  1
  Mg  Mg49  1  0.66464212  0.25074011  0.25519350  1
  Mg  Mg50  1  0.16189343  0.00103577  0.74498137  1
  Mg  Mg51  1  0.83269736  0.00013915  0.24946038  1
  Mg  Mg52  1  0.32977404  0.24689778  0.74346371  1
  Mg  Mg53  1  0.83209717  0.66674390  0.75367638  1
  Mg  Mg54  1  0.32984690  0.91671241  0.74467074  1
  Mg  Mg55  1  0.00246393  0.41918947  0.25009006  1
  Mg  Mg56  1  -0.00188820  0.08636902  0.24563265  1
  Mg  Mg57  1  0.83572604  0.83709290  0.74926683  1
  Mg  Mg58  1  0.83703365  0.66532249  0.25337995  1
  Mg  Mg59  1  0.16671874  0.83504842  0.24504412  1
  Mg  Mg60  1  0.00219462  0.41271938  0.75442518  1
  Mg  Mg61  1  0.50293434  0.16657045  0.25450118  1
  Mg  Mg62  1  0.66760999  0.08576830  0.25423481  1
  Mg  Mg63  1  0.00428009  0.58507920  0.25112852  1
  Mg  Mg64  1  0.66950108  0.08350762  0.74778651  1
  Mg  Mg65  1  0.33015495  0.41292291  0.74754579  1
  Mg  Mg66  1  0.83340440  0.33513609  0.25313522  1
  Mg  Mg67  1  0.16424544  0.32869819  0.74970770  1
  Mg  Mg68  1  0.33328765  0.08456084  0.24787165  1
  Mg  Mg69  1  0.00007865  0.58359540  0.75529807  1
  Mg  Mg70  1  0.49831922  0.83451021  0.74737838  1
  Mg  Mg71  1  0.49836302  0.83393168  0.24910320  1
  Mg  Mg72  1  0.16312842  0.16759949  0.24479398  1
  Mg  Mg73  1  0.66710852  0.58464139  0.25527875  1
  Mg  Mg74  1  0.66655831  0.41557871  0.25498740  1
  Mg  Mg75  1  0.16507545  0.66281058  0.24805003  1
  Mg  Mg76  1  0.16441174  0.83519899  0.74892017  1
  Mg  Mg77  1  0.66646783  0.91552865  0.25186442  1
  Mg  Mg78  1  0.00072694  0.91634803  0.24734983  1
  Mg  Mg79  1  0.66708984  0.91673881  0.74936572  1
  Mg  Mg80  1  0.49729803  0.16644402  0.74302660  1
  Mg  Mg81  1  0.49713664  0.33254216  0.74630230  1
  Mg  Mg82  1  0.66750252  0.41508079  0.74989767  1
  Mg  Mg83  1  0.83535808  0.83292500  0.25162109  1
  Mg  Mg84  1  0.16443118  0.33640541  0.24947140  1
  Mg  Mg85  1  0.83239435  0.16603225  0.25005003  1
  Mg  Mg86  1  0.32756297  0.08522889  0.74264161  1
  Mg  Mg87  1  0.66502471  0.58467509  0.75299963  1
  Mg  Mg88  1  0.16255498  0.66739643  0.75324103  1
  Mg  Mg89  1  0.32989721  0.58423751  0.24865378  1
  Mg  Mg90  1  0.49952266  0.66521098  0.75478014  1
  Mg  Mg91  1  0.83938323  0.33020950  0.75262934  1
  Mg  Mg92  1  0.84158073  0.16621133  0.74753564  1
  Mg  Mg93  1  0.32956757  0.41742545  0.25261001  1
  Mg  Mg94  1  0.49916474  0.66604979  0.25200676  1
  Mg  Mg95  1  0.50137042  0.33483442  0.25434275  1
  Fe  Fe96  1  0.35870228  0.16805925  0.60225627  1
  Fe  Fe97  1  0.63387405  0.66644076  0.89203132  1
  Fe  Fe98  1  0.64312074  0.16431867  0.39594095  1
  Fe  Fe99  1  0.14122610  0.58718756  0.89532132  1
  Fe  Fe100  1  0.36316125  0.66670666  0.10991285  1
  Fe  Fe101  1  0.18540549  0.90788393  0.60545085  1
  Fe  Fe102  1  0.64095197  0.66319696  0.39376972  1
  Fe  Fe103  1  0.52469841  0.91588402  0.60862873  1
  Fe  Fe104  1  0.01992381  0.16780539  0.10569078  1
  Fe  Fe105  1  0.97906982  0.66754509  0.39195781  1
  Fe  Fe106  1  0.14377036  0.41475312  0.38936605  1
  Fe  Fe107  1  0.64515296  0.33822287  0.39555954  1
  Fe  Fe108  1  0.18628690  0.08093399  0.60186125  1
  Fe  Fe109  1  0.30909895  0.67170785  0.89678447  1
  Fe  Fe110  1  0.02727095  0.66618019  0.10693590  1
  Fe  Fe111  1  0.35329892  0.34048687  0.60656234  1
  Fe  Fe112  1  0.98191559  0.16414113  0.88433729  1
  Si  Si113  1  0.01703966  0.66556884  0.61727381  1
  Si  Si114  1  0.14478269  0.41421531  0.88891043  1
  Si  Si115  1  0.46660374  0.41764800  0.38909625  1
  Si  Si116  1  0.68885585  0.83018969  0.11641146  1
  Si  Si117  1  0.46461361  0.58456651  0.38913046  1
  Si  Si118  1  0.69682132  0.66567265  0.11876433  1
  Si  Si119  1  0.97339112  0.83496617  0.88513427  1
  Si  Si120  1  0.01897900  0.82720572  0.61369907  1
  Si  Si121  1  0.01768770  0.33818300  0.11131212  1
  Si  Si122  1  0.97116935  0.33179062  0.38704712  1
  Si  Si123  1  0.69219605  0.33236634  0.11639330  1
  Si  Si124  1  0.47673728  0.91557519  0.38382927  1
  Si  Si125  1  0.36101022  0.82568567  0.60746994  1
  Si  Si126  1  0.85882320  0.41550977  0.61773538  1
  Si  Si127  1  0.80828800  0.08278435  0.88596813  1
  Si  Si128  1  0.18347254  0.58730167  0.61783471  1
  Si  Si129  1  0.47622519  0.40847794  0.88651494  1
  Si  Si130  1  0.31321037  0.84120891  0.88687191  1
  Si  Si131  1  0.47910287  0.08790561  0.88195466  1
  Si  Si132  1  0.69874053  0.83382777  0.61267954  1
  Si  Si133  1  0.81200881  0.07847129  0.38728808  1
  Si  Si134  1  0.85568521  0.57952763  0.61768102  1
  Si  Si135  1  0.35925508  0.33317945  0.11488507  1
  Si  Si136  1  0.96669697  0.66923686  0.88887446  1
  Si  Si137  1  0.52741302  0.58376079  0.61563087  1
  Si  Si138  1  0.52583461  0.41598917  0.11632434  1
  Si  Si139  1  0.81239836  0.42029429  0.38832049  1
  Si  Si140  1  0.30552118  0.16356455  0.38089301  1
  Si  Si141  1  0.85721039  0.58234214  0.11400917  1
  Si  Si142  1  0.35963575  0.65803483  0.61719414  1
  Si  Si143  1  0.14000312  0.08658156  0.38099696  1
  Si  Si144  1  0.30677029  0.32563560  0.38577352  1
  Si  Si145  1  0.02080424  0.83958793  0.10860058  1
  Si  Si146  1  0.64455565  0.33243841  0.88510892  1
  Si  Si147  1  0.81031128  0.41710414  0.88738196  1
  Si  Si148  1  0.52885382  0.08355492  0.11558883  1
  Si  Si149  1  0.53324930  0.58124216  0.11524951  1
  Si  Si150  1  0.64424141  0.16762232  0.88292822  1
  Si  Si151  1  0.64561255  0.83679175  0.38888707  1
  Si  Si152  1  0.19559267  0.08728017  0.10890224  1
  Si  Si153  1  0.86220070  0.91922932  0.61567501  1
  Si  Si154  1  0.81327496  0.91562445  0.38453288  1
  Si  Si155  1  0.85208677  0.91539635  0.11424093  1
  Si  Si156  1  0.47498829  0.57346373  0.89362299  1
  Si  Si157  1  0.46812841  0.08086088  0.38771762  1
  Si  Si158  1  0.52533959  0.91791680  0.11396361  1
  Si  Si159  1  0.85181922  0.07915821  0.11119142  1
  Si  Si160  1  0.30114991  0.67142681  0.38456964  1
  Si  Si161  1  0.14317480  0.92232208  0.38159225  1
  Si  Si162  1  0.18335481  0.42384343  0.61371222  1
  Si  Si163  1  0.64091896  0.83683988  0.88859332  1
  Si  Si164  1  0.19792380  0.57717060  0.11287560  1
  Si  Si165  1  0.36436265  0.16692652  0.11501020  1
  Si  Si166  1  0.97554322  0.33500121  0.88940826  1
  Si  Si167  1  0.02536725  0.17121169  0.61099559  1
  Si  Si168  1  0.98169771  0.83701732  0.38577648  1
  Si  Si169  1  0.53310524  0.41851453  0.61284274  1
  Si  Si170  1  0.30631041  0.83423224  0.38148706  1
  Si  Si171  1  0.31193597  0.16306987  0.88281172  1
  Si  Si172  1  0.19128736  0.41098963  0.11463647  1
  Si  Si173  1  0.02319995  0.33549260  0.61657530  1
  Si  Si174  1  0.69393306  0.66769599  0.61647778  1
  Si  Si175  1  0.69989071  0.16538883  0.61549104  1
  Si  Si176  1  0.86302928  0.08420344  0.61449868  1
  Si  Si177  1  0.14552492  0.58261364  0.38985392  1
  Si  Si178  1  0.53164258  0.08841742  0.60939923  1
  Si  Si179  1  0.14313388  0.91370655  0.88492152  1
  Si  Si180  1  0.85371096  0.41972473  0.11622806  1
  Si  Si181  1  0.69217858  0.16755600  0.11497065  1
  Si  Si182  1  0.69671580  0.33094644  0.61700842  1
  Si  Si183  1  0.97328010  0.16561417  0.38390142  1
  Si  Si184  1  0.18785735  0.92139293  0.11090750  1
  Si  Si185  1  0.47510383  0.92416883  0.88337082  1
  Si  Si186  1  0.80776496  0.91739875  0.88542546  1
  Si  Si187  1  0.80393360  0.58246772  0.88884447  1
  Si  Si188  1  0.14956621  0.07798892  0.88566541  1
  Si  Si189  1  0.81100008  0.58161302  0.39052658  1
  Si  Si190  1  0.35672620  0.83577691  0.11015818  1
  Si  Si191  1  0.30705766  0.32732171  0.88409020  1
  O  O192  1  0.28175902  0.11892505  0.08400769  1
  O  O193  1  0.28022724  0.10241212  0.56343700  1
  O  O194  1  0.28340045  0.59534138  0.08399953  1
  O  O195  1  0.26829569  0.61625733  0.58971824  1
  O  O196  1  0.60551506  0.12268287  0.08500132  1
  O  O197  1  0.62216714  0.11226351  0.58596900  1
  O  O198  1  0.62168421  0.60850430  0.09173244  1
  O  O199  1  0.60137187  0.63126050  0.58776176  1
  O  O200  1  0.92927209  0.10312423  0.07634156  1
  O  O201  1  0.93806349  0.12248668  0.58232697  1
  O  O202  1  0.93328350  0.60537640  0.07695041  1
  O  O203  1  0.93715224  0.61087029  0.58827816  1
  O  O204  1  0.10301756  0.36776441  0.08466529  1
  O  O205  1  0.09993401  0.37314229  0.58475995  1
  O  O206  1  0.09928686  0.87981426  0.07909894  1
  O  O207  1  0.09419863  0.84514000  0.57403519  1
  O  O208  1  0.43797072  0.37232799  0.08596133  1
  O  O209  1  0.44887928  0.38077742  0.57532390  1
  O  O210  1  0.43550099  0.88004074  0.08303822  1
  O  O211  1  0.43770710  0.85412242  0.57094647  1
  O  O212  1  0.77150004  0.36783594  0.08662522  1
  O  O213  1  0.77717934  0.36492839  0.58789792  1
  O  O214  1  0.77040341  0.86268451  0.08674942  1
  O  O215  1  0.77961743  0.86950542  0.58446195  1
  O  O216  1  0.27010180  0.37287188  0.08314208  1
  O  O217  1  0.26070440  0.40209171  0.57747808  1
  O  O218  1  0.27081837  0.88594081  0.08626825  1
  O  O219  1  0.27519678  0.86477988  0.57117570  1
  O  O220  1  0.60380731  0.37558295  0.08733971  1
  O  O221  1  0.61501446  0.38036090  0.58703733  1
  O  O222  1  0.60423612  0.87787643  0.08597310  1
  O  O223  1  0.61711256  0.87615138  0.57511853  1
  O  O224  1  0.93751224  0.39455706  0.08637774  1
  O  O225  1  0.93898472  0.38538785  0.58702278  1
  O  O226  1  0.93468239  0.88984941  0.08376738  1
  O  O227  1  0.93937963  0.88235515  0.58484652  1
  O  O228  1  0.11781683  0.13646587  0.07495420  1
  O  O229  1  0.09504296  0.14426148  0.56813343  1
  O  O230  1  0.12032925  0.62710280  0.07652247  1
  O  O231  1  0.10123321  0.63932707  0.58761275  1
  O  O232  1  0.44380018  0.13010779  0.08571527  1
  O  O233  1  0.46599537  0.15038902  0.57978346  1
  O  O234  1  0.46036358  0.63318310  0.07885033  1
  O  O235  1  0.43430981  0.61645245  0.58287344  1
  O  O236  1  0.76810839  0.12989287  0.08334227  1
  O  O237  1  0.77934411  0.13378774  0.58410789  1
  O  O238  1  0.77816869  0.63872758  0.08745516  1
  O  O239  1  0.76923823  0.62448661  0.58721225  1
  O  O240  1  0.05725590  0.11623312  0.40983520  1
  O  O241  1  0.08208306  0.11778907  0.92372090  1
  O  O242  1  0.06542964  0.60326520  0.42539053  1
  O  O243  1  0.04155094  0.61874412  0.92447917  1
  O  O244  1  0.37734659  0.10383856  0.40908033  1
  O  O245  1  0.40402284  0.12538659  0.91513240  1
  O  O246  1  0.38150279  0.61988489  0.41443473  1
  O  O247  1  0.38908859  0.59635935  0.91842306  1
  O  O248  1  0.73279159  0.09722595  0.42191291  1
  O  O249  1  0.72544368  0.11797221  0.91422822  1
  O  O250  1  0.72507189  0.59364547  0.42108840  1
  O  O251  1  0.72703898  0.60681574  0.92449222  1
  O  O252  1  0.22632678  0.34384671  0.41910579  1
  O  O253  1  0.22930522  0.36275388  0.91546656  1
  O  O254  1  0.22771095  0.87404551  0.41031355  1
  O  O255  1  0.23001805  0.87012564  0.91865509  1
  O  O256  1  0.54943584  0.37619324  0.42602019  1
  O  O257  1  0.56262560  0.36092362  0.91609318  1
  O  O258  1  0.56370847  0.87234742  0.41636833  1
  O  O259  1  0.56214526  0.87997587  0.91482124  1
  O  O260  1  0.88419752  0.35793756  0.41316324  1
  O  O261  1  0.89482280  0.37235935  0.91946840  1
  O  O262  1  0.89418322  0.86386643  0.41203226  1
  O  O263  1  0.89655383  0.87579087  0.91612957  1
  O  O264  1  0.04669344  0.38212956  0.42280042  1
  O  O265  1  0.06323044  0.37996897  0.91805039  1
  O  O266  1  0.05853634  0.89606096  0.40968598  1
  O  O267  1  0.06287499  0.87642821  0.91487918  1
  O  O268  1  0.38452399  0.38085785  0.41412723  1
  O  O269  1  0.39767365  0.36852905  0.91490764  1
  O  O270  1  0.39420938  0.87904218  0.40869942  1
  O  O271  1  0.39294550  0.89865641  0.91473754  1
  O  O272  1  0.73189501  0.40648659  0.42336153  1
  O  O273  1  0.72807215  0.38163306  0.91552488  1
  O  O274  1  0.72888809  0.89030377  0.41367735  1
  O  O275  1  0.72906737  0.88260658  0.91690560  1
  O  O276  1  0.21854404  0.14109426  0.40769690  1
  O  O277  1  0.24288021  0.11693492  0.91570552  1
  O  O278  1  0.21987271  0.64464227  0.41546264  1
  O  O279  1  0.22225256  0.64702168  0.94052761  1
  O  O280  1  0.54283382  0.13168670  0.42413623  1
  O  O281  1  0.56389817  0.13561565  0.91372775  1
  O  O282  1  0.54525644  0.62966339  0.42643905  1
  O  O283  1  0.55297723  0.62092287  0.93376789  1
  O  O284  1  0.89436935  0.13045531  0.41409885  1
  O  O285  1  0.89085238  0.12422910  0.92206230  1
  O  O286  1  0.87954627  0.64127867  0.42294821  1
  O  O287  1  0.88091778  0.63917083  0.91452286  1
  O  O288  1  0.18277207  0.00386921  0.08059545  1
  O  O289  1  0.15549544  -0.00705914  0.56167513  1
  O  O290  1  0.17578696  0.49265212  0.08680070  1
  O  O291  1  0.15681171  0.50692749  0.58741184  1
  O  O292  1  0.52126164  0.00133860  0.08526333  1
  O  O293  1  0.50672060  0.01041766  0.57575906  1
  O  O294  1  0.51976828  0.49752026  0.08611702  1
  O  O295  1  0.53496350  0.50259724  0.58577450  1
  O  O296  1  0.82238362  -0.00384405  0.08693585  1
  O  O297  1  0.84889886  0.00134855  0.58346647  1
  O  O298  1  0.82488678  0.50027404  0.08817445  1
  O  O299  1  0.83832988  0.49742696  0.58874095  1
  O  O300  1  -0.00997117  0.26190400  0.07630533  1
  O  O301  1  0.00153441  0.25592170  0.58373648  1
  O  O302  1  0.00370509  0.76196647  0.07408243  1
  O  O303  1  -0.01461267  0.74460634  0.58766875  1
  O  O304  1  0.35547344  0.24979144  0.08553322  1
  O  O305  1  0.32716043  0.25561943  0.56226914  1
  O  O306  1  0.34001024  0.75980665  0.07276215  1
  O  O307  1  0.34902597  0.73880455  0.58495984  1
  O  O308  1  0.67873988  0.25008942  0.08607184  1
  O  O309  1  0.68128986  0.24866198  0.58859866  1
  O  O310  1  0.67230056  0.74742147  0.08917737  1
  O  O311  1  0.69330880  0.74898262  0.58621495  1
  O  O312  1  0.16321687  0.00493317  0.40860383  1
  O  O313  1  0.15745857  -0.00520190  0.91799119  1
  O  O314  1  0.18333934  0.50599525  0.42015378  1
  O  O315  1  0.16403167  0.49074591  0.92519175  1
  O  O316  1  0.48594686  -0.00271075  0.41412440  1
  O  O317  1  0.49609068  0.00663782  0.91314034  1
  O  O318  1  0.47016621  0.50116189  0.41697221  1
  O  O319  1  0.49315783  0.48770600  0.92001245  1
  O  O320  1  0.84281590  -0.00385929  0.41110477  1
  O  O321  1  0.81395405  -0.00052949  0.91535677  1
  O  O322  1  0.85149727  0.50032692  0.41134530  1
  O  O323  1  0.82757963  0.49929023  0.91540681  1
  O  O324  1  0.33880964  0.24287361  0.40822919  1
  O  O325  1  0.31873819  0.24521526  0.91575960  1
  O  O326  1  0.32140922  0.75358426  0.41454568  1
  O  O327  1  0.34649744  0.76642574  0.92161498  1
  O  O328  1  0.67925704  0.25091607  0.43433110  1
  O  O329  1  0.66308582  0.24970369  0.91337797  1
  O  O330  1  0.66741978  0.75942611  0.42331863  1
  O  O331  1  0.65224912  0.76065225  0.92695938  1
  O  O332  1  0.98764191  0.24727264  0.41323603  1
  O  O333  1  0.98705965  0.25694720  0.92355798  1
  O  O334  1  1.01035539  0.76214861  0.42145794  1
  O  O335  1  0.97892400  0.75309135  0.91689000  1
  O  O336  1  0.21013950  0.08618255  0.18979172  1
  O  O337  1  0.21065331  0.08022284  0.69278454  1
  O  O338  1  0.21167213  0.58382437  0.19341636  1
  O  O339  1  0.19773116  0.58424745  0.69677309  1
  O  O340  1  0.54597902  0.08341687  0.19565938  1
  O  O341  1  0.54809365  0.08477814  0.69146200  1
  O  O342  1  0.54461953  0.58053288  0.19608022  1
  O  O343  1  0.54502992  0.58123762  0.69578270  1
  O  O344  1  0.87152867  0.08263989  0.19240379  1
  O  O345  1  0.87253863  0.08189815  0.69337863  1
  O  O346  1  0.87392248  0.58276267  0.19481415  1
  O  O347  1  0.87312212  0.58212921  0.69820346  1
  O  O348  1  0.03714761  0.33415222  0.19202702  1
  O  O349  1  0.04285545  0.33714752  0.69610866  1
  O  O350  1  0.04013716  0.83702501  0.18979347  1
  O  O351  1  0.03971090  0.82905012  0.69335076  1
  O  O352  1  0.37787067  0.33331286  0.19527572  1
  O  O353  1  0.37849889  0.33223244  0.69880390  1
  O  O354  1  0.38141433  0.82886568  0.18983920  1
  O  O355  1  0.38185709  0.83843652  0.68736938  1
  O  O356  1  0.71033950  0.33287691  0.19659090  1
  O  O357  1  0.71270545  0.33337505  0.69751525  1
  O  O358  1  0.70857538  0.83351781  0.19680271  1
  O  O359  1  0.71180744  0.83380019  0.69371595  1
  O  O360  1  0.21490827  0.40802240  0.19378360  1
  O  O361  1  0.20458574  0.41863202  0.69435996  1
  O  O362  1  0.19761258  0.92048351  0.19019540  1
  O  O363  1  0.20942414  0.91513722  0.69717703  1
  O  O364  1  0.54235266  0.41644193  0.19653367  1
  O  O365  1  0.54723693  0.41618287  0.69397345  1
  O  O366  1  0.54472334  0.91761748  0.19442162  1
  O  O367  1  0.54834210  0.91689886  0.70052303  1
  O  O368  1  0.87265455  0.41669863  0.19671420  1
  O  O369  1  0.87549414  0.41656838  0.69802264  1
  O  O370  1  0.87350826  0.91574495  0.19486751  1
  O  O371  1  0.87322810  0.91883367  0.69500420  1
  O  O372  1  0.04096380  0.16789077  0.19754101  1
  O  O373  1  0.04686106  0.16836653  0.68922431  1
  O  O374  1  0.04568420  0.66763759  0.19836530  1
  O  O375  1  0.03390762  0.66563973  0.69739628  1
  O  O376  1  0.38011362  0.16836486  0.19528306  1
  O  O377  1  0.37866607  0.16663497  0.69557781  1
  O  O378  1  0.38059019  0.66683456  0.20220428  1
  O  O379  1  0.38818171  0.65923130  0.69509231  1
  O  O380  1  0.71054770  0.16646478  0.19522850  1
  O  O381  1  0.71426714  0.16640671  0.69602086  1
  O  O382  1  0.71414847  0.66760926  0.19906815  1
  O  O383  1  0.71206405  0.66608463  0.69667097  1
  O  O384  1  0.12055993  0.08483972  0.30039042  1
  O  O385  1  0.13032789  0.07807022  0.80705592  1
  O  O386  1  0.12347397  0.58645094  0.30911073  1
  O  O387  1  0.11780840  0.58314053  0.80346102  1
  O  O388  1  0.45644781  0.08328074  0.30620262  1
  O  O389  1  0.46291485  0.08518407  0.80239390  1
  O  O390  1  0.45552772  0.58350712  0.30839607  1
  O  O391  1  0.47319202  0.57756353  0.81406045  1
  O  O392  1  0.79189738  0.08206622  0.30566558  1
  O  O393  1  0.79015338  0.08422617  0.80557918  1
  O  O394  1  0.79088213  0.58412124  0.30835024  1
  O  O395  1  0.78745093  0.58213321  0.80754135  1
  O  O396  1  0.28959094  0.33052697  0.30452945  1
  O  O397  1  0.29052205  0.32928823  0.80445914  1
  O  O398  1  0.28518404  0.82918843  0.30219258  1
  O  O399  1  0.28995793  0.84297521  0.80750886  1
  O  O400  1  0.62169819  0.33385056  0.30217610  1
  O  O401  1  0.62603743  0.33315898  0.80494387  1
  O  O402  1  0.62606304  0.83500642  0.30754695  1
  O  O403  1  0.62673568  0.83457402  0.80801113  1
  O  O404  1  0.95526142  0.33233608  0.30559754  1
  O  O405  1  0.95322165  0.33948595  0.80983265  1
  O  O406  1  0.95938421  0.83588698  0.30423049  1
  O  O407  1  0.95186809  0.83120086  0.80598349  1
  O  O408  1  0.11952038  0.41403684  0.29865191  1
  O  O409  1  0.12378438  0.41480448  0.80824065  1
  O  O410  1  0.12332765  0.91938327  0.30093685  1
  O  O411  1  0.12567409  0.91507359  0.80590626  1
  O  O412  1  0.45482418  0.41638389  0.30772590  1
  O  O413  1  0.46107466  0.41190196  0.80670530  1
  O  O414  1  0.46699175  0.91718237  0.30434329  1
  O  O415  1  0.45763363  0.91987830  0.80352111  1
  O  O416  1  0.79038224  0.41702484  0.30675016  1
  O  O417  1  0.78985753  0.41542701  0.80684540  1
  O  O418  1  0.79128487  0.91600880  0.30361665  1
  O  O419  1  0.78889518  0.91583637  0.80540372  1
  O  O420  1  0.28748268  0.16615947  0.29991933  1
  O  O421  1  0.29866834  0.16632902  0.80413193  1
  O  O422  1  0.28617169  0.66937538  0.30421814  1
  O  O423  1  0.27404973  0.66901543  0.81007532  1
  O  O424  1  0.62289594  0.16634119  0.30211528  1
  O  O425  1  0.62572384  0.16747786  0.80289145  1
  O  O426  1  0.62049659  0.66665879  0.30158048  1
  O  O427  1  0.62354061  0.66721598  0.80053409  1
  O  O428  1  0.95313284  0.16592350  0.30316211  1
  O  O429  1  0.95636849  0.16742698  0.79682344  1
  O  O430  1  0.95539171  0.66813356  0.29999245  1
  O  O431  1  0.95194948  0.66783695  0.80777916  1
  F  F432  1  0.04173963  0.00158321  0.19858743  1
  F  F433  1  0.04323499  0.00030859  0.70009698  1
  F  F434  1  0.03613363  0.50202580  0.19920381  1
  F  F435  1  0.03970865  0.49799770  0.70551277  1
  F  F436  1  0.38612573  0.01183413  0.19600878  1
  F  F437  1  0.38172837  0.00100830  0.69907207  1
  F  F438  1  0.38098965  0.49756391  0.20319112  1
  F  F439  1  0.38419280  0.49025132  0.70228527  1
  F  F440  1  0.71045069  0.00035597  0.20285342  1
  F  F441  1  0.71582298  -0.00022520  0.70371570  1
  F  F442  1  0.71083967  0.49971988  0.20623782  1
  F  F443  1  0.71295143  0.50012108  0.70368088  1
  F  F444  1  0.21181186  0.25039054  0.19928832  1
  F  F445  1  0.21362397  0.25760613  0.69584387  1
  F  F446  1  0.21093758  0.75135680  0.19784857  1
  F  F447  1  0.19440177  0.74921388  0.69915113  1
  F  F448  1  0.54292294  0.25013364  0.20072413  1
  F  F449  1  0.55081993  0.25168020  0.70105870  1
  F  F450  1  0.54772882  0.75290275  0.20265692  1
  F  F451  1  0.54797489  0.75150026  0.69977726  1
  F  F452  1  0.87480598  0.25073717  0.20202188  1
  F  F453  1  0.86473533  0.25289435  0.69556122  1
  F  F454  1  0.87582010  0.75288613  0.20092598  1
  F  F455  1  0.87484180  0.74888413  0.70300123  1
  F  F456  1  0.28159207  0.01003751  0.29648130  1
  F  F457  1  0.29484970  0.00207301  0.79618632  1
  F  F458  1  0.29279656  0.50084400  0.29841779  1
  F  F459  1  0.28365392  0.48442730  0.80336939  1
  F  F460  1  0.62246336  -0.00018145  0.29818250  1
  F  F461  1  0.62395935  0.00351572  0.79898040  1
  F  F462  1  0.61933367  0.49956412  0.30020973  1
  F  F463  1  0.62364095  0.49654178  0.79860023  1
  F  F464  1  0.95426899  0.00095797  0.29420977  1
  F  F465  1  0.94980473  -0.00423461  0.81066120  1
  F  F466  1  0.95372142  0.50030983  0.29809442  1
  F  F467  1  0.95182715  0.49962840  0.80146204  1
  F  F468  1  0.12045638  0.25040129  0.29531930  1
  F  F469  1  0.12798523  0.25245585  0.80319026  1
  F  F470  1  0.12175451  0.75539273  0.29478690  1
  F  F471  1  0.11485322  0.75225696  0.80099445  1
  F  F472  1  0.45340518  0.25010608  0.29801506  1
  F  F473  1  0.46276172  0.24863659  0.79885501  1
  F  F474  1  0.45572123  0.75381464  0.29997221  1
  F  F475  1  0.46951246  0.75237829  0.80164691  1
  F  F476  1  0.78835928  0.24893569  0.29830175  1
  F  F477  1  0.78852899  0.24966513  0.80100276  1
  F  F478  1  0.78945392  0.75229056  0.29972117  1
  F  F479  1  0.78684300  0.75212843  0.79864406  1
