# generated using pymatgen
data_K24Na3Li5Mg64Fe17Si79(O5F)48
_symmetry_space_group_name_H-M   'P 1'
_cell_length_a   16.10348472
_cell_length_b   18.61189064
_cell_length_c   20.56275546
_cell_angle_alpha   89.98141399
_cell_angle_beta   100.00638574
_cell_angle_gamma   90.02924882
_symmetry_Int_Tables_number   1
_chemical_formula_structural   K24Na3Li5Mg64Fe17Si79(O5F)48
_chemical_formula_sum   'K24 Na3 Li5 Mg64 Fe17 Si79 O240 F48'
_cell_volume   6069.24292491
_cell_formula_units_Z   1
loop_
 _symmetry_equiv_pos_site_id
 _symmetry_equiv_pos_as_xyz
  1  'x, y, z'
loop_
 _atom_site_type_symbol
 _atom_site_label
 _atom_site_symmetry_multiplicity
 _atom_site_fract_x
 _atom_site_fract_y
 _atom_site_fract_z
 _atom_site_occupancy
  K  K0  1  -0.01120530  0.01321795  0.00136125  1
  K  K1  1  -0.00341320  0.00772180  0.50268860  1
  K  K2  1  -0.01730083  0.49586999  -0.01603944  1
  K  K3  1  -0.00540722  0.49688222  0.50928970  1
  K  K4  1  0.32849230  -0.00405265  -0.00718729  1
  K  K5  1  0.33323242  -0.00237177  0.50762829  1
  K  K6  1  0.33242011  0.49859785  -0.01646149  1
  K  K7  1  0.34251101  0.50101768  0.50956387  1
  K  K8  1  0.67217156  -0.00230106  -0.01013327  1
  K  K9  1  0.67854780  -0.00180749  0.50832086  1
  K  K10  1  0.67048166  0.50532994  -0.01690740  1
  K  K11  1  0.67316134  0.49998297  0.51926943  1
  K  K12  1  0.16177713  0.25061610  -0.00545734  1
  K  K13  1  0.16859875  0.24485489  0.50480223  1
  K  K14  1  0.15936621  0.74751139  -0.01014290  1
  K  K15  1  0.16640551  0.74699542  0.50817245  1
  K  K16  1  0.49486659  0.24965990  -0.01508886  1
  K  K17  1  0.49534675  0.25575274  0.51424905  1
  K  K18  1  0.49601400  0.74257911  -0.00751542  1
  K  K19  1  0.49774387  0.75493705  0.51002686  1
  K  K20  1  0.82823457  0.24895918  -0.01381550  1
  K  K21  1  0.84549077  0.24970799  0.50903389  1
  K  K22  1  0.82701251  0.75101357  -0.00568640  1
  K  K23  1  0.83876159  0.73957149  0.51120821  1
  Na  Na24  1  0.83224643  0.50319551  0.24701782  1
  Na  Na25  1  0.67256394  0.41856865  0.75179758  1
  Na  Na26  1  -0.00125168  0.08288319  0.24597924  1
  Li  Li27  1  0.82774105  0.49880533  0.74233568  1
  Li  Li28  1  0.49976607  0.00156540  0.74517811  1
  Li  Li29  1  0.82815946  0.33563012  0.74520928  1
  Li  Li30  1  0.50232381  0.83211318  0.24998817  1
  Li  Li31  1  0.16492674  0.66270893  0.74571504  1
  Mg  Mg32  1  0.00010529  0.24950645  0.24945857  1
  Mg  Mg33  1  0.33067142  0.74758810  0.75074724  1
  Mg  Mg34  1  0.83233270  0.00192101  0.74698681  1
  Mg  Mg35  1  0.00253168  0.74681495  0.74890231  1
  Mg  Mg36  1  0.50181728  -0.00075461  0.24944836  1
  Mg  Mg37  1  0.16493651  0.50210788  0.75169512  1
  Mg  Mg38  1  -0.00293426  0.25130575  0.75230240  1
  Mg  Mg39  1  0.50103461  0.49974608  0.25093405  1
  Mg  Mg40  1  0.33854274  0.75067665  0.25367254  1
  Mg  Mg41  1  0.33238724  0.24907817  0.75130004  1
  Mg  Mg42  1  0.16807327  0.50254840  0.25148166  1
  Mg  Mg43  1  0.83502780  -0.00147566  0.24668860  1
  Mg  Mg44  1  0.66296156  0.75016582  0.24443425  1
  Mg  Mg45  1  0.16733972  -0.00079552  0.24875508  1
  Mg  Mg46  1  0.16702160  0.00030285  0.74960654  1
  Mg  Mg47  1  0.66843172  0.25125713  0.24965737  1
  Mg  Mg48  1  0.33360524  0.24922537  0.25125563  1
  Mg  Mg49  1  0.66906874  0.24928222  0.75289482  1
  Mg  Mg50  1  0.66672300  0.75154570  0.74812480  1
  Mg  Mg51  1  0.50074843  0.50137112  0.75559888  1
  Mg  Mg52  1  -0.00013762  0.74983642  0.24603431  1
  Mg  Mg53  1  0.49760571  0.83569503  0.74745017  1
  Mg  Mg54  1  0.83093252  0.83369722  0.74621815  1
  Mg  Mg55  1  0.33398643  0.41618248  0.25155214  1
  Mg  Mg56  1  0.17150725  0.66728649  0.25198324  1
  Mg  Mg57  1  -0.00235925  0.91523924  0.74619861  1
  Mg  Mg58  1  0.33281349  0.41517200  0.75471200  1
  Mg  Mg59  1  0.66570800  0.58518761  0.24668853  1
  Mg  Mg60  1  0.66984475  0.08395196  0.24934251  1
  Mg  Mg61  1  0.33327307  0.08323581  0.24973047  1
  Mg  Mg62  1  0.16469465  0.16538666  0.25014777  1
  Mg  Mg63  1  0.33173675  0.58541672  0.75172737  1
  Mg  Mg64  1  -0.00190814  0.91580153  0.24554583  1
  Mg  Mg65  1  0.50109660  0.33333936  0.75453908  1
  Mg  Mg66  1  0.66473677  0.08284929  0.74907329  1
  Mg  Mg67  1  0.50108024  0.66724594  0.25109327  1
  Mg  Mg68  1  -0.00013319  0.58503207  0.24862529  1
  Mg  Mg69  1  0.66753964  0.41758745  0.25015682  1
  Mg  Mg70  1  -0.00013438  0.58298064  0.75115712  1
  Mg  Mg71  1  0.83274357  0.66306339  0.74811310  1
  Mg  Mg72  1  0.66362691  0.91771663  0.74715829  1
  Mg  Mg73  1  0.16930578  0.83394351  0.24963518  1
  Mg  Mg74  1  0.16731914  0.16513176  0.75113848  1
  Mg  Mg75  1  0.66411664  0.91407126  0.24681378  1
  Mg  Mg76  1  0.83640957  0.16579835  0.24885756  1
  Mg  Mg77  1  0.16531814  0.33473642  0.75419717  1
  Mg  Mg78  1  0.83061272  0.83471793  0.24287491  1
  Mg  Mg79  1  -0.01116528  0.41842355  0.75380169  1
  Mg  Mg80  1  0.50115368  0.33292352  0.25169775  1
  Mg  Mg81  1  -0.00007903  0.41820125  0.24934416  1
  Mg  Mg82  1  -0.00251247  0.08500143  0.74973670  1
  Mg  Mg83  1  0.16443337  0.83054713  0.74904697  1
  Mg  Mg84  1  0.83000938  0.16708664  0.75061227  1
  Mg  Mg85  1  0.16498459  0.33434365  0.24741233  1
  Mg  Mg86  1  0.33288337  0.91680311  0.74839700  1
  Mg  Mg87  1  0.33418973  0.08266131  0.75044255  1
  Mg  Mg88  1  0.50189577  0.16553816  0.25052411  1
  Mg  Mg89  1  0.49820184  0.16265425  0.74984348  1
  Mg  Mg90  1  0.49807402  0.66598561  0.75224811  1
  Mg  Mg91  1  0.66926339  0.58386598  0.75112289  1
  Mg  Mg92  1  0.82909264  0.66690245  0.24487103  1
  Mg  Mg93  1  0.83563366  0.33568579  0.25169985  1
  Mg  Mg94  1  0.33922118  0.91471285  0.25059368  1
  Mg  Mg95  1  0.33645349  0.58600138  0.25392953  1
  Fe  Fe96  1  0.68795728  0.83425696  0.60818986  1
  Fe  Fe97  1  0.68577803  0.66413880  0.10522885  1
  Fe  Fe98  1  0.80845298  0.41428049  0.88863338  1
  Fe  Fe99  1  0.68986326  0.16696690  0.60798748  1
  Fe  Fe100  1  0.85479796  0.91433915  0.10429148  1
  Fe  Fe101  1  0.30534619  0.32906179  0.89314506  1
  Fe  Fe102  1  0.81094921  0.08515471  0.89036020  1
  Fe  Fe103  1  0.36319103  0.16877834  0.60980595  1
  Fe  Fe104  1  0.02834472  0.66423994  0.61043997  1
  Fe  Fe105  1  0.47617447  0.58560876  0.89333445  1
  Fe  Fe106  1  0.35924452  0.66561870  0.61113896  1
  Fe  Fe107  1  0.31251294  0.66750799  0.39264938  1
  Fe  Fe108  1  0.97471988  0.16935018  0.39141407  1
  Fe  Fe109  1  0.02743564  0.16997897  0.10732649  1
  Fe  Fe110  1  0.86249194  0.08552874  0.60848634  1
  Fe  Fe111  1  0.19644764  0.08297188  0.61199950  1
  Fe  Fe112  1  0.85908189  0.57888359  0.61047839  1
  Si  Si113  1  0.52653787  0.08759676  0.11414128  1
  Si  Si114  1  0.35488721  0.33869253  0.61433700  1
  Si  Si115  1  0.19619952  0.57794349  0.61349151  1
  Si  Si116  1  0.97568495  0.34077687  0.38842446  1
  Si  Si117  1  0.52103203  0.41270176  0.11643816  1
  Si  Si118  1  0.97573660  0.83164758  0.38209733  1
  Si  Si119  1  0.85963083  0.41857126  0.11508065  1
  Si  Si120  1  0.03152553  0.83103938  0.11036064  1
  Si  Si121  1  0.19947824  0.91224058  0.11477431  1
  Si  Si122  1  0.35334718  0.83548981  0.61304882  1
  Si  Si123  1  0.81184784  0.91561796  0.88496003  1
  Si  Si124  1  0.47700119  0.41437318  0.89345016  1
  Si  Si125  1  0.80228780  0.58819641  0.38363225  1
  Si  Si126  1  0.52949148  0.58364625  0.61598922  1
  Si  Si127  1  0.80474039  0.07824304  0.38574923  1
  Si  Si128  1  0.35710890  0.32977811  0.11663550  1
  Si  Si129  1  0.63802248  0.66732161  0.38547911  1
  Si  Si130  1  0.52074741  0.57568291  0.11343839  1
  Si  Si131  1  0.69097646  0.33820243  0.11484025  1
  Si  Si132  1  0.14333193  0.91391671  0.38410485  1
  Si  Si133  1  0.30276045  0.66850044  0.88947317  1
  Si  Si134  1  0.47871675  0.41109989  0.38653373  1
  Si  Si135  1  0.68478605  0.33084987  0.61373793  1
  Si  Si136  1  0.64586060  0.33092199  0.38640383  1
  Si  Si137  1  0.31483717  0.83800588  0.38774422  1
  Si  Si138  1  0.19758806  0.07884837  0.11183303  1
  Si  Si139  1  0.69021974  0.17253585  0.11367226  1
  Si  Si140  1  0.68930905  0.66593620  0.61286343  1
  Si  Si141  1  0.52209461  0.41970547  0.61958781  1
  Si  Si142  1  0.14349396  0.42003686  0.38451150  1
  Si  Si143  1  0.18654026  0.41658995  0.61777192  1
  Si  Si144  1  0.47786985  0.92271015  0.38430064  1
  Si  Si145  1  0.47222268  0.91297411  0.88431311  1
  Si  Si146  1  0.97366603  0.83040812  0.88302412  1
  Si  Si147  1  0.30504835  0.83399707  0.88554954  1
  Si  Si148  1  0.86184767  0.91430460  0.60964890  1
  Si  Si149  1  0.63916056  0.83262951  0.38219603  1
  Si  Si150  1  0.52581280  0.92337010  0.11355825  1
  Si  Si151  1  0.02608512  0.83302150  0.61274594  1
  Si  Si152  1  0.13894471  0.07914352  0.88697779  1
  Si  Si153  1  0.46996386  0.07750171  0.88568914  1
  Si  Si154  1  0.85322513  0.41166483  0.61254816  1
  Si  Si155  1  0.30671112  0.15925332  0.89161070  1
  Si  Si156  1  0.97392676  0.66711653  0.88578665  1
  Si  Si157  1  0.19635722  0.42110207  0.11518771  1
  Si  Si158  1  0.36030267  0.16536969  0.11580668  1
  Si  Si159  1  0.13918135  0.42058410  0.89048492  1
  Si  Si160  1  0.80641951  0.91147626  0.38195894  1
  Si  Si161  1  0.68129304  0.83261491  0.10673802  1
  Si  Si162  1  0.63718478  0.32550542  0.88990687  1
  Si  Si163  1  0.47898021  0.57640783  0.38866608  1
  Si  Si164  1  0.97049614  0.66592481  0.38250295  1
  Si  Si165  1  0.03304541  0.17026104  0.61598103  1
  Si  Si166  1  0.86402729  0.58722434  0.11053335  1
  Si  Si167  1  0.51900785  0.91896630  0.61224148  1
  Si  Si168  1  0.47706988  0.08697931  0.38505085  1
  Si  Si169  1  0.13757874  0.91501303  0.88409731  1
  Si  Si170  1  0.30791189  0.33352811  0.38559018  1
  Si  Si171  1  0.80538746  0.42046397  0.38539389  1
  Si  Si172  1  0.02174424  0.33396935  0.61848927  1
  Si  Si173  1  0.63425703  0.16068524  0.88959423  1
  Si  Si174  1  0.52839078  0.08135305  0.61261302  1
  Si  Si175  1  0.14769030  0.07991690  0.38661127  1
  Si  Si176  1  0.03169578  0.66411280  0.11310783  1
  Si  Si177  1  0.98174116  0.17032659  0.88896766  1
  Si  Si178  1  0.64140139  0.83802611  0.88362524  1
  Si  Si179  1  0.02642537  0.34099436  0.11080123  1
  Si  Si180  1  0.36594573  0.83363959  0.11638289  1
  Si  Si181  1  0.80767876  0.58853793  0.88774692  1
  Si  Si182  1  0.13804826  0.58491055  0.88575107  1
  Si  Si183  1  0.18808577  0.91595889  0.61460535  1
  Si  Si184  1  0.97872997  0.33351358  0.88858502  1
  Si  Si185  1  0.13787778  0.58598274  0.38635838  1
  Si  Si186  1  0.30941460  0.16628793  0.38532791  1
  Si  Si187  1  0.19957315  0.58561121  0.11529758  1
  Si  Si188  1  0.64294599  0.16596756  0.38426090  1
  Si  Si189  1  0.84795318  0.08511792  0.10908079  1
  Si  Si190  1  0.64480343  0.67402804  0.88732859  1
  Si  Si191  1  0.36422767  0.66856984  0.11568708  1
  O  O192  1  0.28394143  0.11053863  0.08664944  1
  O  O193  1  0.28232403  0.10621718  0.56745924  1
  O  O194  1  0.27371974  0.62939414  0.08630414  1
  O  O195  1  0.28145246  0.59227741  0.58259384  1
  O  O196  1  0.60495525  0.12455812  0.08515940  1
  O  O197  1  0.61303553  0.09163607  0.58018938  1
  O  O198  1  0.59864988  0.59643908  0.07806807  1
  O  O199  1  0.61631219  0.60396459  0.58867057  1
  O  O200  1  0.92932965  0.11534356  0.08101458  1
  O  O201  1  0.96309907  0.11394563  0.58047879  1
  O  O202  1  0.94987640  0.61518393  0.08222838  1
  O  O203  1  0.94270581  0.60881657  0.56483724  1
  O  O204  1  0.10460032  0.38688178  0.08577621  1
  O  O205  1  0.10453251  0.36499633  0.58866411  1
  O  O206  1  0.11723640  0.86307759  0.08522270  1
  O  O207  1  0.11453152  0.85614145  0.58759761  1
  O  O208  1  0.44083038  0.35875974  0.08904352  1
  O  O209  1  0.43516966  0.37627291  0.58528702  1
  O  O210  1  0.44064471  0.87542255  0.08554484  1
  O  O211  1  0.43507527  0.86821831  0.58406731  1
  O  O212  1  0.77064412  0.37464375  0.08667595  1
  O  O213  1  0.76868360  0.36140925  0.58456171  1
  O  O214  1  0.76226428  0.85370532  0.07347410  1
  O  O215  1  0.79040899  0.85561649  0.57865122  1
  O  O216  1  0.27324255  0.37774426  0.08818344  1
  O  O217  1  0.27018201  0.38945363  0.58820801  1
  O  O218  1  0.27822716  0.87601477  0.08454906  1
  O  O219  1  0.27408830  0.89102101  0.58704030  1
  O  O220  1  0.60398857  0.38406326  0.08751553  1
  O  O221  1  0.60395853  0.38863682  0.59019146  1
  O  O222  1  0.60534902  0.89363818  0.08210015  1
  O  O223  1  0.59493057  0.89450283  0.57402428  1
  O  O224  1  0.93884910  0.38644575  0.08340715  1
  O  O225  1  0.93686005  0.37763029  0.58370390  1
  O  O226  1  0.95199634  0.87666593  0.07425501  1
  O  O227  1  0.95336588  0.89355722  0.58658423  1
  O  O228  1  0.11797351  0.12283050  0.07466884  1
  O  O229  1  0.11944401  0.15740580  0.58726714  1
  O  O230  1  0.11180129  0.62725638  0.08511158  1
  O  O231  1  0.12625678  0.63527407  0.57896634  1
  O  O232  1  0.44384647  0.13826425  0.08684992  1
  O  O233  1  0.46084136  0.14125011  0.57799241  1
  O  O234  1  0.43785798  0.62671878  0.08536323  1
  O  O235  1  0.45683293  0.63697973  0.57914582  1
  O  O236  1  0.76814787  0.14182276  0.08199018  1
  O  O237  1  0.78027371  0.14633560  0.56656986  1
  O  O238  1  0.78561944  0.63506540  0.07478617  1
  O  O239  1  0.76907619  0.64212347  0.57951375  1
  O  O240  1  0.07438902  0.11555355  0.41978102  1
  O  O241  1  0.06507618  0.11922617  0.91841257  1
  O  O242  1  0.05057972  0.61367485  0.41067696  1
  O  O243  1  0.05944907  0.62151922  0.91682770  1
  O  O244  1  0.39829056  0.12446068  0.41319469  1
  O  O245  1  0.39066487  0.10876320  0.91877427  1
  O  O246  1  0.40081902  0.60196109  0.42197780  1
  O  O247  1  0.38495245  0.62706982  0.92877769  1
  O  O248  1  0.71892385  0.11032247  0.41064210  1
  O  O249  1  0.71612404  0.11639932  0.92515774  1
  O  O250  1  0.72795172  0.62820097  0.41604615  1
  O  O251  1  0.73360897  0.63309593  0.91804330  1
  O  O252  1  0.23019612  0.37338751  0.41367319  1
  O  O253  1  0.21942982  0.37562697  0.92884906  1
  O  O254  1  0.23002911  0.86952696  0.41372780  1
  O  O255  1  0.22821787  0.87560490  0.91519273  1
  O  O256  1  0.56162719  0.36079706  0.41402117  1
  O  O257  1  0.55687859  0.35995324  0.91953424  1
  O  O258  1  0.56352312  0.87575037  0.41143071  1
  O  O259  1  0.56142780  0.87166081  0.91502101  1
  O  O260  1  0.89780903  0.38524025  0.41480288  1
  O  O261  1  0.90280278  0.35706729  0.92615859  1
  O  O262  1  0.89619715  0.86959845  0.40977672  1
  O  O263  1  0.89188943  0.86026642  0.91248598  1
  O  O264  1  0.06343500  0.38773731  0.41407548  1
  O  O265  1  0.05696577  0.38901562  0.91887203  1
  O  O266  1  0.06339946  0.87572235  0.41172958  1
  O  O267  1  0.06094349  0.87509840  0.91406673  1
  O  O268  1  0.39705096  0.37624910  0.41461723  1
  O  O269  1  0.40074874  0.38285286  0.92827994  1
  O  O270  1  0.39515602  0.89327710  0.41340534  1
  O  O271  1  0.39473265  0.87489995  0.91691250  1
  O  O272  1  0.72869711  0.37979149  0.41654904  1
  O  O273  1  0.72038542  0.36880697  0.92423802  1
  O  O274  1  0.73035771  0.87093841  0.41233689  1
  O  O275  1  0.72679618  0.88461547  0.91197040  1
  O  O276  1  0.23645152  0.12454452  0.41566075  1
  O  O277  1  0.22944837  0.11587083  0.91923067  1
  O  O278  1  0.21291405  0.63735088  0.42110268  1
  O  O279  1  0.22028174  0.63438302  0.91773894  1
  O  O280  1  0.55899355  0.13771668  0.41189801  1
  O  O281  1  0.55299227  0.12426757  0.91884669  1
  O  O282  1  0.56461095  0.62363750  0.41572851  1
  O  O283  1  0.57152871  0.64279996  0.92410513  1
  O  O284  1  0.88476324  0.12212577  0.42290205  1
  O  O285  1  0.90566777  0.14316479  0.92474446  1
  O  O286  1  0.88998863  0.63224057  0.41139798  1
  O  O287  1  0.89618393  0.63400559  0.91790490  1
  O  O288  1  0.19062588  -0.00567603  0.08542926  1
  O  O289  1  0.15562891  -0.00873203  0.58071689  1
  O  O290  1  0.19824287  0.50333450  0.08638922  1
  O  O291  1  0.16171319  0.49604785  0.58657657  1
  O  O292  1  0.50677507  0.00635975  0.08410820  1
  O  O293  1  0.48884673  0.00079183  0.58839752  1
  O  O294  1  0.49104373  0.49263010  0.08981538  1
  O  O295  1  0.50642177  0.50102984  0.58815799  1
  O  O296  1  0.82153661  0.00739552  0.07532211  1
  O  O297  1  0.83588473  -0.00843359  0.57601112  1
  O  O298  1  0.84745269  0.50177747  0.08839395  1
  O  O299  1  0.83322395  0.48687511  0.57300722  1
  O  O300  1  0.02073784  0.26505569  0.07346327  1
  O  O301  1  0.00290753  0.25247620  0.59053754  1
  O  O302  1  0.02322176  0.74631169  0.08346792  1
  O  O303  1  -0.00201967  0.75789226  0.57692118  1
  O  O304  1  0.33794010  0.24754584  0.08894539  1
  O  O305  1  0.33654904  0.26332491  0.57562657  1
  O  O306  1  0.35942889  0.75118428  0.08649473  1
  O  O307  1  0.32855481  0.75877881  0.57801713  1
  O  O308  1  0.67302939  0.25578736  0.08669014  1
  O  O309  1  0.65308311  0.25838050  0.57250812  1
  O  O310  1  0.64344124  0.75579655  0.07794215  1
  O  O311  1  0.65229874  0.74167816  0.57975449  1
  O  O312  1  0.15907639  -0.00452856  0.41338026  1
  O  O313  1  0.14529808  -0.00388679  0.91617673  1
  O  O314  1  0.15815818  0.50227044  0.41224298  1
  O  O315  1  0.15178985  0.50447377  0.91927040  1
  O  O316  1  0.49431450  0.00533339  0.41402924  1
  O  O317  1  0.48248929  -0.00533445  0.91557983  1
  O  O318  1  0.49991606  0.49213206  0.41460605  1
  O  O319  1  0.50143583  0.49276705  0.92666268  1
  O  O320  1  0.81247240  -0.00645486  0.41119165  1
  O  O321  1  0.83624384  -0.00939715  0.92256562  1
  O  O322  1  0.80920506  0.50449858  0.41081025  1
  O  O323  1  0.81793128  0.51075268  0.92353820  1
  O  O324  1  0.31741725  0.25023701  0.41274752  1
  O  O325  1  0.31976192  0.23499193  0.93067195  1
  O  O326  1  0.34054103  0.76168413  0.42194510  1
  O  O327  1  0.30859506  0.75334868  0.91792062  1
  O  O328  1  0.66385408  0.24800341  0.41238805  1
  O  O329  1  0.64228914  0.24256023  0.92089820  1
  O  O330  1  0.64098948  0.75057584  0.41252169  1
  O  O331  1  0.66033371  0.75784282  0.91467106  1
  O  O332  1  0.98677597  0.26482060  0.42605576  1
  O  O333  1  1.01093844  0.25175677  0.91497793  1
  O  O334  1  0.98694160  0.74865517  0.41124755  1
  O  O335  1  0.99155660  0.74957387  0.91525916  1
  O  O336  1  0.21359112  0.08200416  0.19296269  1
  O  O337  1  0.21265765  0.08236479  0.70438569  1
  O  O338  1  0.21393720  0.58329193  0.19566250  1
  O  O339  1  0.21263534  0.57766659  0.69419845  1
  O  O340  1  0.54421869  0.08583692  0.19477812  1
  O  O341  1  0.54399455  0.08574268  0.69328044  1
  O  O342  1  0.53907060  0.58071232  0.19467820  1
  O  O343  1  0.54307827  0.58523156  0.69648298  1
  O  O344  1  0.85995052  0.08309486  0.18962166  1
  O  O345  1  0.87974443  0.08420787  0.70055247  1
  O  O346  1  0.88360592  0.59329148  0.19052855  1
  O  O347  1  0.88141592  0.58420018  0.70065592  1
  O  O348  1  0.04505852  0.33861345  0.19240055  1
  O  O349  1  0.04197210  0.33583536  0.69868488  1
  O  O350  1  0.04656747  0.83080260  0.19150835  1
  O  O351  1  0.04285023  0.83259408  0.69399219  1
  O  O352  1  0.37649479  0.33197450  0.19736517  1
  O  O353  1  0.37490782  0.33445645  0.69494362  1
  O  O354  1  0.37801955  0.83328307  0.19596055  1
  O  O355  1  0.37308530  0.83332524  0.69403387  1
  O  O356  1  0.70866708  0.33567103  0.19541530  1
  O  O357  1  0.70579047  0.32326744  0.69229406  1
  O  O358  1  0.70398417  0.83434929  0.18860883  1
  O  O359  1  0.70980395  0.83481791  0.69988689  1
  O  O360  1  0.21351902  0.41890918  0.19597540  1
  O  O361  1  0.20670466  0.41641236  0.69797916  1
  O  O362  1  0.21627273  0.91398394  0.19529290  1
  O  O363  1  0.20752124  0.91580951  0.69586216  1
  O  O364  1  0.54085668  0.41297261  0.19725394  1
  O  O365  1  0.53224354  0.41775359  0.69871362  1
  O  O366  1  0.54433510  0.92319354  0.19318879  1
  O  O367  1  0.54224158  0.91249055  0.69215767  1
  O  O368  1  0.88104322  0.41119383  0.19446543  1
  O  O369  1  0.87733990  0.41582960  0.69135807  1
  O  O370  1  0.87733599  0.91507855  0.19638673  1
  O  O371  1  0.87701964  0.91554645  0.69155190  1
  O  O372  1  0.05303138  0.17739664  0.19743436  1
  O  O373  1  0.04552773  0.16747080  0.69735137  1
  O  O374  1  0.04866741  0.66600088  0.19384743  1
  O  O375  1  0.04365536  0.66546840  0.70103703  1
  O  O376  1  0.37877884  0.16646153  0.19653027  1
  O  O377  1  0.37554333  0.16683157  0.70206557  1
  O  O378  1  0.37987403  0.66620952  0.19591103  1
  O  O379  1  0.37651256  0.66821728  0.70223199  1
  O  O380  1  0.70676445  0.16964614  0.19443773  1
  O  O381  1  0.70788659  0.16601399  0.69992811  1
  O  O382  1  0.70793153  0.66663188  0.19727821  1
  O  O383  1  0.70864260  0.66955837  0.69420262  1
  O  O384  1  0.13759274  0.08060382  0.30654464  1
  O  O385  1  0.12157591  0.08103203  0.80715713  1
  O  O386  1  0.12467009  0.58555334  0.30490558  1
  O  O387  1  0.12303583  0.58198169  0.80680562  1
  O  O388  1  0.45775666  0.08508302  0.30413560  1
  O  O389  1  0.45280520  0.08163563  0.80668456  1
  O  O390  1  0.45913974  0.57935218  0.30729619  1
  O  O391  1  0.45373656  0.58428825  0.80260583  1
  O  O392  1  0.78910701  0.08200724  0.30458844  1
  O  O393  1  0.78764588  0.08056786  0.80032162  1
  O  O394  1  0.78333812  0.59109227  0.30434709  1
  O  O395  1  0.78721786  0.59149172  0.80844073  1
  O  O396  1  0.29148317  0.33427812  0.30502073  1
  O  O397  1  0.28764024  0.33171386  0.80184669  1
  O  O398  1  0.29417415  0.83553231  0.30646355  1
  O  O399  1  0.28834908  0.83435961  0.80582323  1
  O  O400  1  0.62408843  0.33283643  0.30564412  1
  O  O401  1  0.61877357  0.32423553  0.81032023  1
  O  O402  1  0.62486363  0.83295696  0.30232598  1
  O  O403  1  0.62014215  0.83620957  0.80393977  1
  O  O404  1  0.95877130  0.33809741  0.30718748  1
  O  O405  1  0.96421413  0.33315119  0.80901052  1
  O  O406  1  0.95893351  0.83053667  0.30178995  1
  O  O407  1  0.95648971  0.83317512  0.80313224  1
  O  O408  1  0.12726305  0.41752048  0.30379135  1
  O  O409  1  0.12616333  0.41789850  0.81017023  1
  O  O410  1  0.12536051  0.91383848  0.30339312  1
  O  O411  1  0.12173328  0.91613925  0.80431585  1
  O  O412  1  0.45741336  0.41285069  0.30581784  1
  O  O413  1  0.45610602  0.41537260  0.81208819  1
  O  O414  1  0.45759437  0.92269847  0.30450969  1
  O  O415  1  0.45158280  0.91096773  0.80533047  1
  O  O416  1  0.78446899  0.41141752  0.30623566  1
  O  O417  1  0.80579887  0.41764195  0.80423021  1
  O  O418  1  0.78651471  0.91299430  0.30157141  1
  O  O419  1  0.79356354  0.91676757  0.80463131  1
  O  O420  1  0.29247584  0.16702576  0.30444103  1
  O  O421  1  0.28857191  0.16528483  0.81164145  1
  O  O422  1  0.29118632  0.66724281  0.30022042  1
  O  O423  1  0.29151581  0.66771782  0.81009762  1
  O  O424  1  0.62355309  0.16771615  0.30332508  1
  O  O425  1  0.61756054  0.16159314  0.80936999  1
  O  O426  1  0.62050108  0.66557229  0.30508384  1
  O  O427  1  0.62378682  0.67151664  0.80678344  1
  O  O428  1  0.95038852  0.17576468  0.30138385  1
  O  O429  1  0.96179754  0.16623605  0.80877340  1
  O  O430  1  0.95508470  0.66772021  0.30191205  1
  O  O431  1  0.95621190  0.66847762  0.80651525  1
  F  F432  1  0.05380361  -0.01090076  0.19681327  1
  F  F433  1  0.04560800  -0.00003077  0.70353904  1
  F  F434  1  0.04986721  0.50176636  0.20049698  1
  F  F435  1  0.04525165  0.49727708  0.70409925  1
  F  F436  1  0.38039026  0.00175624  0.20044648  1
  F  F437  1  0.37183940  -0.00131061  0.70215575  1
  F  F438  1  0.37868400  0.49881483  0.20451483  1
  F  F439  1  0.37728548  0.49689448  0.70688268  1
  F  F440  1  0.70885461  0.00002011  0.20193035  1
  F  F441  1  0.71138959  -0.00273431  0.69949764  1
  F  F442  1  0.69692269  0.49870954  0.19803512  1
  F  F443  1  0.71068123  0.51229374  0.69664959  1
  F  F444  1  0.21646894  0.25185646  0.20245134  1
  F  F445  1  0.20991632  0.24963283  0.70442714  1
  F  F446  1  0.21527708  0.75175690  0.20162466  1
  F  F447  1  0.21222465  0.75213625  0.70377435  1
  F  F448  1  0.54437344  0.25053123  0.20250323  1
  F  F449  1  0.54183609  0.24929348  0.70580368  1
  F  F450  1  0.54270494  0.74603269  0.20038981  1
  F  F451  1  0.54298186  0.75010794  0.70385786  1
  F  F452  1  0.87561590  0.25460486  0.20023777  1
  F  F453  1  0.88094155  0.24639729  0.70501714  1
  F  F454  1  0.87962084  0.75078027  0.19850220  1
  F  F455  1  0.87959786  0.74980640  0.70275962  1
  F  F456  1  0.29120323  -0.00078333  0.29619108  1
  F  F457  1  0.28760959  -0.00472023  0.80282200  1
  F  F458  1  0.28982087  0.49921878  0.29985698  1
  F  F459  1  0.28678657  0.49983742  0.80161519  1
  F  F460  1  0.62169289  0.00158927  0.29762903  1
  F  F461  1  0.62341054  -0.00177554  0.79728952  1
  F  F462  1  0.61986457  0.49869872  0.29938759  1
  F  F463  1  0.61783027  0.51132135  0.80504943  1
  F  F464  1  0.95174757  -0.00961151  0.29983988  1
  F  F465  1  0.95656753  -0.00372670  0.79825320  1
  F  F466  1  0.96783495  0.50189887  0.29919883  1
  F  F467  1  0.96783157  0.50249424  0.80675107  1
  F  F468  1  0.12720871  0.25517129  0.30014237  1
  F  F469  1  0.12206215  0.24885139  0.80008064  1
  F  F470  1  0.12163917  0.75074181  0.29609170  1
  F  F471  1  0.11769951  0.75980952  0.80519483  1
  F  F472  1  0.45566860  0.24941149  0.29937865  1
  F  F473  1  0.45259686  0.25023334  0.80171393  1
  F  F474  1  0.45560860  0.74562501  0.30141485  1
  F  F475  1  0.45411775  0.75395038  0.80041176  1
  F  F476  1  0.78625166  0.25105083  0.29693317  1
  F  F477  1  0.78545370  0.24224381  0.80587118  1
  F  F478  1  0.78732460  0.75347250  0.29341755  1
  F  F479  1  0.78941010  0.75057272  0.79794135  1
