# generated using pymatgen
data_K24Na3Li5Mg64Fe17Si79(O5F)48
_symmetry_space_group_name_H-M   'P 1'
_cell_length_a   16.07726938
_cell_length_b   18.56532834
_cell_length_c   20.53260520
_cell_angle_alpha   90.01218694
_cell_angle_beta   100.00875259
_cell_angle_gamma   89.97704823
_symmetry_Int_Tables_number   1
_chemical_formula_structural   K24Na3Li5Mg64Fe17Si79(O5F)48
_chemical_formula_sum   'K24 Na3 Li5 Mg64 Fe17 Si79 O240 F48'
_cell_volume   6035.29767983
_cell_formula_units_Z   1
loop_
 _symmetry_equiv_pos_site_id
 _symmetry_equiv_pos_as_xyz
  1  'x, y, z'
loop_
 _atom_site_type_symbol
 _atom_site_label
 _atom_site_symmetry_multiplicity
 _atom_site_fract_x
 _atom_site_fract_y
 _atom_site_fract_z
 _atom_site_occupancy
  K  K0  1  -0.01482414  0.00122530  -0.00247083  1
  K  K1  1  -0.00321887  -0.00624771  0.49854520  1
  K  K2  1  0.00966511  0.50422790  0.00292989  1
  K  K3  1  0.00305067  0.50856202  0.50211773  1
  K  K4  1  0.33458889  -0.00022886  0.00056209  1
  K  K5  1  0.33179734  -0.00355966  0.50165826  1
  K  K6  1  0.32339321  0.50288070  -0.00193630  1
  K  K7  1  0.32381724  0.49779341  0.50215054  1
  K  K8  1  0.66572299  -0.00148238  0.00418660  1
  K  K9  1  0.67341277  0.00308621  0.50115417  1
  K  K10  1  0.67070386  0.50154018  0.00256111  1
  K  K11  1  0.67538060  0.50474546  0.49999729  1
  K  K12  1  0.17283834  0.26222820  0.00513722  1
  K  K13  1  0.16623672  0.24887371  0.49703250  1
  K  K14  1  0.16170348  0.74600636  -0.00713457  1
  K  K15  1  0.16484230  0.74771493  0.50275079  1
  K  K16  1  0.49714132  0.24745492  0.00245041  1
  K  K17  1  0.49844866  0.24973343  0.49774976  1
  K  K18  1  0.50082413  0.74560132  -0.00342349  1
  K  K19  1  0.50241754  0.74802720  0.50395625  1
  K  K20  1  0.83623552  0.25854642  0.00280755  1
  K  K21  1  0.83375124  0.24887628  0.49696198  1
  K  K22  1  0.83907477  0.75048381  0.00296194  1
  K  K23  1  0.83268589  0.75825957  0.50279925  1
  Na  Na24  1  0.83244327  0.00042763  0.74641867  1
  Na  Na25  1  0.66780730  0.08213725  0.25020738  1
  Na  Na26  1  -0.00136040  0.58456959  0.74501298  1
  Li  Li27  1  0.83327444  0.50073226  0.24797816  1
  Li  Li28  1  0.00166078  0.74769929  0.74366661  1
  Li  Li29  1  0.83174660  0.33305138  0.74826928  1
  Li  Li30  1  0.50014000  0.83141983  0.74899282  1
  Li  Li31  1  0.50249760  0.66414859  0.24536321  1
  Mg  Mg32  1  0.33257535  0.25010216  0.75484201  1
  Mg  Mg33  1  0.16496726  0.50132747  0.75177334  1
  Mg  Mg34  1  0.50079724  -0.00321695  0.75001954  1
  Mg  Mg35  1  0.66742016  0.24979104  0.24981493  1
  Mg  Mg36  1  0.66495907  0.74543263  0.24549168  1
  Mg  Mg37  1  0.50018134  0.50118671  0.75195097  1
  Mg  Mg38  1  0.33650817  0.75027827  0.75189345  1
  Mg  Mg39  1  -0.00116703  0.25053796  0.25058490  1
  Mg  Mg40  1  0.33684526  0.74897578  0.25024041  1
  Mg  Mg41  1  -0.00407058  0.24983611  0.75094346  1
  Mg  Mg42  1  0.33388300  0.24994443  0.25267191  1
  Mg  Mg43  1  0.83259913  0.49824641  0.74859881  1
  Mg  Mg44  1  0.16669833  0.00109150  0.25346916  1
  Mg  Mg45  1  0.50136773  -0.00123209  0.25144005  1
  Mg  Mg46  1  0.50150513  0.50311896  0.25035753  1
  Mg  Mg47  1  0.66547065  0.75154201  0.74635643  1
  Mg  Mg48  1  0.16887387  0.50001680  0.24684307  1
  Mg  Mg49  1  0.00032681  0.75030242  0.24870663  1
  Mg  Mg50  1  0.66957249  0.25046798  0.74773545  1
  Mg  Mg51  1  0.83289129  0.00091611  0.24987660  1
  Mg  Mg52  1  0.16712008  -0.00363462  0.74923629  1
  Mg  Mg53  1  0.66761012  0.41899335  0.24841761  1
  Mg  Mg54  1  0.16541154  0.83159817  0.75034556  1
  Mg  Mg55  1  -0.00399336  0.08507498  0.25034964  1
  Mg  Mg56  1  0.33739149  0.08355689  0.25514361  1
  Mg  Mg57  1  0.66721969  0.08401443  0.74711565  1
  Mg  Mg58  1  0.83210042  0.33618574  0.24968863  1
  Mg  Mg59  1  0.83291581  0.16544768  0.25002297  1
  Mg  Mg60  1  0.33426422  0.91320806  0.75017789  1
  Mg  Mg61  1  0.33679813  0.58565533  0.24593391  1
  Mg  Mg62  1  0.83006335  0.16941912  0.74764387  1
  Mg  Mg63  1  -0.00103737  0.91374690  0.74884484  1
  Mg  Mg64  1  0.16694330  0.16669383  0.25377288  1
  Mg  Mg65  1  0.50086426  0.16492346  0.75028371  1
  Mg  Mg66  1  0.83460554  0.66297099  0.24704869  1
  Mg  Mg67  1  0.83313353  0.66771384  0.74498408  1
  Mg  Mg68  1  0.66566059  0.91531633  0.74918845  1
  Mg  Mg69  1  -0.00060637  0.58394020  0.24770135  1
  Mg  Mg70  1  0.16584171  0.83434947  0.24935053  1
  Mg  Mg71  1  0.16614203  0.16483068  0.75240537  1
  Mg  Mg72  1  0.50104115  0.82969239  0.25103991  1
  Mg  Mg73  1  0.33263555  0.08257662  0.75151015  1
  Mg  Mg74  1  -0.00285404  0.91565894  0.24875908  1
  Mg  Mg75  1  0.50266256  0.16341076  0.25122871  1
  Mg  Mg76  1  -0.00170354  0.41809859  0.25032828  1
  Mg  Mg77  1  0.33125424  0.58508594  0.75186783  1
  Mg  Mg78  1  0.33497949  0.91565340  0.25318893  1
  Mg  Mg79  1  0.50044753  0.33383300  0.75280695  1
  Mg  Mg80  1  0.50045861  0.33455401  0.25153754  1
  Mg  Mg81  1  0.66747649  0.91342618  0.24865242  1
  Mg  Mg82  1  0.16884142  0.33568636  0.24997240  1
  Mg  Mg83  1  -0.00209581  0.08245837  0.75010718  1
  Mg  Mg84  1  0.83500490  0.83282231  0.74619404  1
  Mg  Mg85  1  0.16650670  0.66684682  0.75059513  1
  Mg  Mg86  1  0.33198292  0.41489183  0.75347635  1
  Mg  Mg87  1  0.16628116  0.66617781  0.24616117  1
  Mg  Mg88  1  0.66684335  0.58243173  0.24762952  1
  Mg  Mg89  1  0.33302725  0.41540283  0.25104431  1
  Mg  Mg90  1  0.66767034  0.58557877  0.74726954  1
  Mg  Mg91  1  0.66736791  0.41529743  0.74874451  1
  Mg  Mg92  1  0.50016311  0.66843453  0.74945510  1
  Mg  Mg93  1  -0.00406066  0.41496975  0.75170860  1
  Mg  Mg94  1  0.83488310  0.83399673  0.24901616  1
  Mg  Mg95  1  0.16614494  0.33405942  0.75350332  1
  Fe  Fe96  1  0.02565875  0.67096442  0.10859255  1
  Fe  Fe97  1  0.69475024  0.66791208  0.60672759  1
  Fe  Fe98  1  0.19496355  0.41652782  0.10841735  1
  Fe  Fe99  1  0.97595245  0.83480415  0.39053637  1
  Fe  Fe100  1  0.68668707  0.17436455  0.10692120  1
  Fe  Fe101  1  0.47852722  0.07831076  0.39327880  1
  Fe  Fe102  1  0.19417347  0.91417591  0.60947523  1
  Fe  Fe103  1  0.68928760  0.16809270  0.60598942  1
  Fe  Fe104  1  0.52027976  0.58439343  0.10950594  1
  Fe  Fe105  1  0.85589392  0.08943791  0.10564550  1
  Fe  Fe106  1  0.85282741  0.91971519  0.10816642  1
  Fe  Fe107  1  0.01979616  0.82787565  0.60979189  1
  Fe  Fe108  1  0.31019701  0.33322608  0.39273254  1
  Fe  Fe109  1  0.30842572  0.66667866  0.89324462  1
  Fe  Fe110  1  0.19110406  0.58208254  0.60925080  1
  Fe  Fe111  1  0.97472717  0.16646216  0.39257973  1
  Fe  Fe112  1  0.30927087  0.33479176  0.89458708  1
  Si  Si113  1  0.68503834  0.34150323  0.11274642  1
  Si  Si114  1  0.96752502  0.67015141  0.88208291  1
  Si  Si115  1  0.86383617  0.08833206  0.61280571  1
  Si  Si116  1  0.80555157  0.91534268  0.88433877  1
  Si  Si117  1  0.30884098  0.83049303  0.38567952  1
  Si  Si118  1  0.30845831  0.16057580  0.89027825  1
  Si  Si119  1  0.69326954  0.66066756  0.11016611  1
  Si  Si120  1  0.64339427  0.66844547  0.88499745  1
  Si  Si121  1  0.52616928  0.91592707  0.61738685  1
  Si  Si122  1  0.68841620  0.82619482  0.11127322  1
  Si  Si123  1  0.80735339  0.58319214  0.88499426  1
  Si  Si124  1  0.52573932  0.58215216  0.61343650  1
  Si  Si125  1  0.79988337  0.91726339  0.38783053  1
  Si  Si126  1  0.47677419  0.91781557  0.88563381  1
  Si  Si127  1  0.64234033  0.83352716  0.88453555  1
  Si  Si128  1  0.80674851  0.41810244  0.38397378  1
  Si  Si129  1  0.14292809  0.08220348  0.38775585  1
  Si  Si130  1  0.35985682  0.16602197  0.61738870  1
  Si  Si131  1  0.13519809  0.58458307  0.88821720  1
  Si  Si132  1  0.48222482  0.41773529  0.88936999  1
  Si  Si133  1  0.97181214  0.16640301  0.88667422  1
  Si  Si134  1  0.36529940  0.83210179  0.61475731  1
  Si  Si135  1  0.80528139  0.08354993  0.88440652  1
  Si  Si136  1  0.80961374  0.58284626  0.38325666  1
  Si  Si137  1  0.02133267  0.33279075  0.11302094  1
  Si  Si138  1  0.19122834  0.08673153  0.61455421  1
  Si  Si139  1  0.13308111  0.41753298  0.88953441  1
  Si  Si140  1  0.85638346  0.41450773  0.61446710  1
  Si  Si141  1  0.68450263  0.33824027  0.61114933  1
  Si  Si142  1  0.02827351  0.84127840  0.10996318  1
  Si  Si143  1  0.64426940  0.33167444  0.88562689  1
  Si  Si144  1  0.47806122  0.90848283  0.38817669  1
  Si  Si145  1  0.47740006  0.08197933  0.88628359  1
  Si  Si146  1  0.69036297  0.84003154  0.61041445  1
  Si  Si147  1  0.35515716  0.83633315  0.11579508  1
  Si  Si148  1  0.19446647  0.08618785  0.11808270  1
  Si  Si149  1  0.85930432  0.57843852  0.61087321  1
  Si  Si150  1  0.35945139  0.67451610  0.11331189  1
  Si  Si151  1  0.36682111  0.32734955  0.11399962  1
  Si  Si152  1  0.64042900  0.82776218  0.38372497  1
  Si  Si153  1  0.52301362  0.91062829  0.11420413  1
  Si  Si154  1  0.64350307  0.33723726  0.38581685  1
  Si  Si155  1  0.19436282  0.92126504  0.11644844  1
  Si  Si156  1  0.13783494  0.41815854  0.38694099  1
  Si  Si157  1  0.52218616  0.07652345  0.11132345  1
  Si  Si158  1  0.14468307  0.58194717  0.38278893  1
  Si  Si159  1  0.36126196  0.16163542  0.11592710  1
  Si  Si160  1  0.85591761  0.41596975  0.11543562  1
  Si  Si161  1  0.85880367  0.92034408  0.61125414  1
  Si  Si162  1  0.97750006  0.66312539  0.38634786  1
  Si  Si163  1  0.52044443  0.41921078  0.61593857  1
  Si  Si164  1  0.31023044  0.66493640  0.38419869  1
  Si  Si165  1  0.47814474  0.58609424  0.38399599  1
  Si  Si166  1  0.30832837  0.16251397  0.39095388  1
  Si  Si167  1  0.47859010  0.42160049  0.38903713  1
  Si  Si168  1  0.02764760  0.16659673  0.61717661  1
  Si  Si169  1  0.13835028  0.91683893  0.88742238  1
  Si  Si170  1  0.97106887  0.83449448  0.88538469  1
  Si  Si171  1  0.80463548  0.08412588  0.38964427  1
  Si  Si172  1  0.52130767  0.41817964  0.11514682  1
  Si  Si173  1  0.63908418  0.17342911  0.38819763  1
  Si  Si174  1  0.18865940  0.41043653  0.61412076  1
  Si  Si175  1  0.02365839  0.66409365  0.61038760  1
  Si  Si176  1  0.19799042  0.58858467  0.10899129  1
  Si  Si177  1  0.96956084  0.33191442  0.88531466  1
  Si  Si178  1  0.36324679  0.66646764  0.61261685  1
  Si  Si179  1  0.64197022  0.16616778  0.88564353  1
  Si  Si180  1  0.02175450  0.33014224  0.61698051  1
  Si  Si181  1  0.48136797  0.58242769  0.88759740  1
  Si  Si182  1  0.13783390  0.08181512  0.88695825  1
  Si  Si183  1  0.03033024  0.16666408  0.11405074  1
  Si  Si184  1  0.14761535  0.91877838  0.38664577  1
  Si  Si185  1  0.52118733  0.07846501  0.61375067  1
  Si  Si186  1  0.35925039  0.33099578  0.61738241  1
  Si  Si187  1  0.97413561  0.33886412  0.38796574  1
  Si  Si188  1  0.31021935  0.83887003  0.89089630  1
  Si  Si189  1  0.64620131  0.66528032  0.38312488  1
  Si  Si190  1  0.80605198  0.41810234  0.88401627  1
  Si  Si191  1  0.86121308  0.58187509  0.11108084  1
  O  O192  1  0.27651261  0.11365707  0.08703347  1
  O  O193  1  0.27359997  0.12245233  0.58760282  1
  O  O194  1  0.28527043  0.61654016  0.08431656  1
  O  O195  1  0.28701439  0.61625015  0.57633484  1
  O  O196  1  0.59646606  0.10779361  0.07607620  1
  O  O197  1  0.59791157  0.10407440  0.57824651  1
  O  O198  1  0.61936970  0.60721880  0.07551292  1
  O  O199  1  0.60469432  0.60209526  0.57780584  1
  O  O200  1  0.96090838  0.11121455  0.07801643  1
  O  O201  1  0.95298212  0.11051609  0.58614310  1
  O  O202  1  0.93747945  0.60691007  0.07395525  1
  O  O203  1  0.95171008  0.59847176  0.59252056  1
  O  O204  1  0.09514525  0.36419225  0.07664658  1
  O  O205  1  0.10496888  0.35848477  0.58777741  1
  O  O206  1  0.11792455  0.86760534  0.08500876  1
  O  O207  1  0.11252070  0.85097956  0.57141471  1
  O  O208  1  0.45586277  0.35061857  0.08985765  1
  O  O209  1  0.43857477  0.36711706  0.58778509  1
  O  O210  1  0.43797490  0.86264648  0.08485467  1
  O  O211  1  0.45405608  0.85612610  0.58908802  1
  O  O212  1  0.77013205  0.37032063  0.08464837  1
  O  O213  1  0.76884086  0.37055645  0.58428431  1
  O  O214  1  0.76421759  0.85354843  0.07565742  1
  O  O215  1  0.76945812  0.87747820  0.58179564  1
  O  O216  1  0.28849778  0.37493825  0.07723422  1
  O  O217  1  0.27059055  0.37171432  0.58764063  1
  O  O218  1  0.27967199  0.89484992  0.08820559  1
  O  O219  1  0.29363236  0.88611061  0.57761113  1
  O  O220  1  0.61145500  0.40329009  0.08896014  1
  O  O221  1  0.60355632  0.39430685  0.58509016  1
  O  O222  1  0.60099350  0.87408515  0.08384065  1
  O  O223  1  0.60960661  0.89509118  0.58523422  1
  O  O224  1  0.93323955  0.37804442  0.08390924  1
  O  O225  1  0.93678851  0.37672408  0.58604845  1
  O  O226  1  0.95774055  0.90052797  0.08130999  1
  O  O227  1  0.93182791  0.89243284  0.57289021  1
  O  O228  1  0.11992708  0.14327958  0.08864845  1
  O  O229  1  0.11437511  0.14535815  0.58997327  1
  O  O230  1  0.12482305  0.64526781  0.07818462  1
  O  O231  1  0.09928961  0.63857305  0.57071440  1
  O  O232  1  0.43425653  0.12235616  0.08165014  1
  O  O233  1  0.43738874  0.12964655  0.58727731  1
  O  O234  1  0.44119182  0.65811948  0.08007818  1
  O  O235  1  0.44912412  0.63859248  0.58535372  1
  O  O236  1  0.77936140  0.15791919  0.06702405  1
  O  O237  1  0.78922753  0.14045208  0.57589227  1
  O  O238  1  0.77942250  0.63456442  0.08238382  1
  O  O239  1  0.78563158  0.62928536  0.57029439  1
  O  O240  1  0.06433240  0.10202442  0.42362726  1
  O  O241  1  0.06274149  0.12619938  0.91593968  1
  O  O242  1  0.06247486  0.61222550  0.41133600  1
  O  O243  1  0.05435820  0.62627279  0.91249191  1
  O  O244  1  0.37648782  0.10132749  0.42111071  1
  O  O245  1  0.39517841  0.11199585  0.91604243  1
  O  O246  1  0.39793159  0.62127443  0.41486505  1
  O  O247  1  0.40596686  0.60953621  0.92376130  1
  O  O248  1  0.72042433  0.12045369  0.41335113  1
  O  O249  1  0.72672180  0.11956790  0.91592219  1
  O  O250  1  0.72958331  0.61665853  0.41464545  1
  O  O251  1  0.72913259  0.62193055  0.91476316  1
  O  O252  1  0.21197230  0.36572685  0.42358283  1
  O  O253  1  0.21873916  0.37869975  0.92620175  1
  O  O254  1  0.22997008  0.86626149  0.41469356  1
  O  O255  1  0.23133241  0.88194546  0.91835750  1
  O  O256  1  0.56474490  0.37330313  0.41618270  1
  O  O257  1  0.56634302  0.36703649  0.91615960  1
  O  O258  1  0.55420845  0.84925335  0.41195886  1
  O  O259  1  0.56188652  0.86951073  0.91412916  1
  O  O260  1  0.89023758  0.37069053  0.41572118  1
  O  O261  1  0.89131487  0.37151734  0.91396059  1
  O  O262  1  0.88076411  0.87102089  0.42199579  1
  O  O263  1  0.89532803  0.87559596  0.91742982  1
  O  O264  1  0.04945690  0.39838019  0.41371086  1
  O  O265  1  0.05521762  0.37549727  0.91770680  1
  O  O266  1  0.06940132  0.89544117  0.42099703  1
  O  O267  1  0.06289061  0.87356424  0.91654874  1
  O  O268  1  0.40364483  0.39340385  0.42584749  1
  O  O269  1  0.40734533  0.38928124  0.92572786  1
  O  O270  1  0.39494289  0.87495344  0.41605121  1
  O  O271  1  0.39651554  0.88850361  0.91834028  1
  O  O272  1  0.72692778  0.38606667  0.41595454  1
  O  O273  1  0.72957480  0.37817226  0.91533992  1
  O  O274  1  0.71588438  0.88322026  0.41463747  1
  O  O275  1  0.72797831  0.87907837  0.91714673  1
  O  O276  1  0.21821031  0.14042727  0.41479351  1
  O  O277  1  0.23034943  0.11764585  0.91740149  1
  O  O278  1  0.23033924  0.62895375  0.41305648  1
  O  O279  1  0.21971928  0.62260607  0.92829485  1
  O  O280  1  0.56262235  0.14674967  0.42456013  1
  O  O281  1  0.56063403  0.13201288  0.91492847  1
  O  O282  1  0.56291571  0.63478588  0.41217672  1
  O  O283  1  0.56554177  0.63259007  0.91536575  1
  O  O284  1  0.88435933  0.12902434  0.42946525  1
  O  O285  1  0.89539632  0.12450848  0.91566410  1
  O  O286  1  0.89776710  0.62445213  0.41499490  1
  O  O287  1  0.89249798  0.62885448  0.91516841  1
  O  O288  1  0.17294364  0.00405127  0.08866145  1
  O  O289  1  0.16841941  0.01094652  0.57881951  1
  O  O290  1  0.17658719  0.51005726  0.07510160  1
  O  O291  1  0.17247827  0.48612311  0.57597048  1
  O  O292  1  0.50371901  -0.00797845  0.08354612  1
  O  O293  1  0.49269862  -0.00400778  0.58884272  1
  O  O294  1  0.48066880  0.49125616  0.08079455  1
  O  O295  1  0.49241676  0.49996313  0.58844312  1
  O  O296  1  0.81868299  0.00387584  0.06415599  1
  O  O297  1  0.83928867  0.00546736  0.58858647  1
  O  O298  1  0.83797701  0.49785729  0.08543478  1
  O  O299  1  0.84278664  0.49479081  0.58100869  1
  O  O300  1  0.00512867  0.24890053  0.08646668  1
  O  O301  1  0.00164798  0.24786598  0.58853652  1
  O  O302  1  0.00135634  0.76427939  0.07511807  1
  O  O303  1  -0.02016290  0.73718404  0.57685694  1
  O  O304  1  0.34893371  0.24347166  0.08616693  1
  O  O305  1  0.34960642  0.24856037  0.58837781  1
  O  O306  1  0.32461573  0.75669071  0.08775383  1
  O  O307  1  0.34762335  0.74957670  0.58486191  1
  O  O308  1  0.65076666  0.26834481  0.07535523  1
  O  O309  1  0.65927107  0.26228295  0.57450366  1
  O  O310  1  0.66659904  0.74322787  0.08375601  1
  O  O311  1  0.66868436  0.76265220  0.57440390  1
  O  O312  1  0.17932717  0.00084986  0.41034692  1
  O  O313  1  0.13946282  -0.00012738  0.91765724  1
  O  O314  1  0.16315061  0.50098193  0.41347126  1
  O  O315  1  0.12960278  0.50077758  0.91602171  1
  O  O316  1  0.50578100  -0.01646245  0.42499632  1
  O  O317  1  0.49706656  0.00032812  0.91616961  1
  O  O318  1  0.49987052  0.50533555  0.41569440  1
  O  O319  1  0.51119352  0.50008391  0.91276094  1
  O  O320  1  0.80697034  0.00001655  0.41755292  1
  O  O321  1  0.81531509  -0.00025830  0.91040185  1
  O  O322  1  0.82147840  0.50039388  0.41335460  1
  O  O323  1  0.81648566  0.50029061  0.91586950  1
  O  O324  1  0.33664600  0.23982491  0.42512620  1
  O  O325  1  0.32114683  0.23789675  0.92627612  1
  O  O326  1  0.32156394  0.74740164  0.41399005  1
  O  O327  1  0.32391188  0.76214211  0.92815392  1
  O  O328  1  0.66398542  0.25646922  0.41657195  1
  O  O329  1  0.65713362  0.24888917  0.91428462  1
  O  O330  1  0.66529588  0.74682460  0.41373120  1
  O  O331  1  0.65542112  0.75094441  0.91511695  1
  O  O332  1  0.99909904  0.26248764  0.42418268  1
  O  O333  1  0.97658469  0.24906408  0.91653847  1
  O  O334  1  0.99760216  0.73994319  0.42182645  1
  O  O335  1  0.97683580  0.75196473  0.91557741  1
  O  O336  1  0.21265545  0.08399769  0.19860103  1
  O  O337  1  0.21063901  0.08457820  0.69615434  1
  O  O338  1  0.21271618  0.58527128  0.19099309  1
  O  O339  1  0.21225597  0.58004093  0.70073020  1
  O  O340  1  0.53380337  0.07931745  0.19098822  1
  O  O341  1  0.54007617  0.08307845  0.69500992  1
  O  O342  1  0.54651750  0.58091982  0.19980481  1
  O  O343  1  0.54369397  0.58218956  0.69472181  1
  O  O344  1  0.87667856  0.08316149  0.19844790  1
  O  O345  1  0.88198028  0.09427259  0.69279462  1
  O  O346  1  0.88080775  0.58577532  0.19120985  1
  O  O347  1  0.86097820  0.57947861  0.69002049  1
  O  O348  1  0.04227542  0.33485887  0.19412508  1
  O  O349  1  0.04194863  0.33070312  0.69743440  1
  O  O350  1  0.04746291  0.83594193  0.19162644  1
  O  O351  1  0.04723874  0.83600616  0.70042863  1
  O  O352  1  0.37925115  0.33085345  0.19486471  1
  O  O353  1  0.37847040  0.33191481  0.69787500  1
  O  O354  1  0.37605387  0.83569952  0.19620835  1
  O  O355  1  0.37555954  0.83247429  0.69503705  1
  O  O356  1  0.70719092  0.33679487  0.19366063  1
  O  O357  1  0.70066132  0.33488788  0.69142630  1
  O  O358  1  0.70789773  0.82922323  0.19226587  1
  O  O359  1  0.70824753  0.83551166  0.69128573  1
  O  O360  1  0.21239355  0.41732897  0.19996769  1
  O  O361  1  0.20892385  0.41323728  0.69505129  1
  O  O362  1  0.21188389  0.91896183  0.19702248  1
  O  O363  1  0.21404734  0.91633503  0.70230695  1
  O  O364  1  0.54097235  0.41733653  0.19654764  1
  O  O365  1  0.54037982  0.41631271  0.69669149  1
  O  O366  1  0.54079455  0.91242417  0.19450481  1
  O  O367  1  0.54468857  0.91798928  0.69719862  1
  O  O368  1  0.87808973  0.41430069  0.19505321  1
  O  O369  1  0.87560913  0.41654216  0.69407765  1
  O  O370  1  0.87584402  0.91724851  0.20025073  1
  O  O371  1  0.88081057  0.91098885  0.69076366  1
  O  O372  1  0.04693983  0.16696521  0.19502151  1
  O  O373  1  0.04496076  0.16677512  0.69798012  1
  O  O374  1  0.04550791  0.66758828  0.20052706  1
  O  O375  1  0.05418977  0.67150007  0.68923653  1
  O  O376  1  0.37678612  0.16458369  0.19619906  1
  O  O377  1  0.37652441  0.16667214  0.69831909  1
  O  O378  1  0.37435373  0.67058897  0.19369810  1
  O  O379  1  0.37941326  0.66451962  0.69356528  1
  O  O380  1  0.71504275  0.17568050  0.19754919  1
  O  O381  1  0.70813677  0.16782221  0.69779022  1
  O  O382  1  0.71132247  0.66293382  0.19115273  1
  O  O383  1  0.70918058  0.66720154  0.69814811  1
  O  O384  1  0.12326186  0.08437841  0.30636289  1
  O  O385  1  0.12339045  0.08329709  0.80663907  1
  O  O386  1  0.12811904  0.58260297  0.30253450  1
  O  O387  1  0.13060490  0.58274037  0.80920041  1
  O  O388  1  0.45788440  0.08093712  0.30127798  1
  O  O389  1  0.45769177  0.08331808  0.80585183  1
  O  O390  1  0.45449521  0.58255960  0.30479801  1
  O  O391  1  0.46004311  0.58335975  0.80635489  1
  O  O392  1  0.80047078  0.08290793  0.31046958  1
  O  O393  1  0.78561917  0.09110747  0.80556797  1
  O  O394  1  0.78990796  0.58573714  0.30370798  1
  O  O395  1  0.78851151  0.58130018  0.80501025  1
  O  O396  1  0.29084018  0.33259191  0.30118233  1
  O  O397  1  0.28855834  0.33215718  0.80254424  1
  O  O398  1  0.29088291  0.83223861  0.30508949  1
  O  O399  1  0.29423059  0.83529426  0.81052159  1
  O  O400  1  0.62373958  0.33662395  0.30530629  1
  O  O401  1  0.62412070  0.33283792  0.80508551  1
  O  O402  1  0.62412467  0.82858245  0.30333138  1
  O  O403  1  0.62658987  0.83294108  0.80508423  1
  O  O404  1  0.95673727  0.33595125  0.30694372  1
  O  O405  1  0.95768131  0.33069416  0.80603655  1
  O  O406  1  0.95750468  0.83143387  0.29888193  1
  O  O407  1  0.95178243  0.83893447  0.80643640  1
  O  O408  1  0.12269229  0.41689009  0.30602482  1
  O  O409  1  0.12114461  0.41401339  0.80875970  1
  O  O410  1  0.12693810  0.91585402  0.30546407  1
  O  O411  1  0.12375181  0.91807939  0.80777099  1
  O  O412  1  0.45782357  0.41788717  0.30799048  1
  O  O413  1  0.45946147  0.41496735  0.80806315  1
  O  O414  1  0.45671011  0.91306387  0.30713660  1
  O  O415  1  0.45522679  0.92026804  0.80626895  1
  O  O416  1  0.78742988  0.41480261  0.30457908  1
  O  O417  1  0.78507408  0.41918882  0.80465938  1
  O  O418  1  0.78618340  0.91467547  0.30708183  1
  O  O419  1  0.78492631  0.90916354  0.80527928  1
  O  O420  1  0.29151848  0.16565019  0.30883512  1
  O  O421  1  0.29041109  0.16409694  0.80911253  1
  O  O422  1  0.29146773  0.66589806  0.30388307  1
  O  O423  1  0.29317016  0.66788733  0.80213232  1
  O  O424  1  0.61731534  0.17592750  0.30837122  1
  O  O425  1  0.62110758  0.16658286  0.80539261  1
  O  O426  1  0.63050221  0.66576560  0.30378968  1
  O  O427  1  0.62409728  0.66676546  0.80495972  1
  O  O428  1  0.95719360  0.16954076  0.30102932  1
  O  O429  1  0.95622766  0.16641420  0.80657156  1
  O  O430  1  0.95661839  0.66517269  0.30560651  1
  O  O431  1  0.94623742  0.67223237  0.80364103  1
  F  F432  1  0.04833170  0.00097340  0.20459506  1
  F  F433  1  0.04712665  0.00208084  0.70209775  1
  F  F434  1  0.04694696  0.49931915  0.20042148  1
  F  F435  1  0.04967502  0.48639500  0.70093466  1
  F  F436  1  0.37659705  -0.00299676  0.20297672  1
  F  F437  1  0.37838016  0.00152472  0.70375282  1
  F  F438  1  0.37915648  0.49835262  0.20299789  1
  F  F439  1  0.37934930  0.49736750  0.70573593  1
  F  F440  1  0.71447518  -0.01121406  0.19860715  1
  F  F441  1  0.69796508  -0.00023859  0.69865772  1
  F  F442  1  0.71005141  0.49979657  0.20119805  1
  F  F443  1  0.70869212  0.49856396  0.70081647  1
  F  F444  1  0.21255770  0.24715645  0.20256983  1
  F  F445  1  0.21172837  0.24730854  0.70455047  1
  F  F446  1  0.21439821  0.75198029  0.20282154  1
  F  F447  1  0.21712796  0.75221535  0.70306830  1
  F  F448  1  0.54364339  0.25036279  0.20316574  1
  F  F449  1  0.54267764  0.25033318  0.70363026  1
  F  F450  1  0.54546253  0.75253543  0.19982334  1
  F  F451  1  0.54658206  0.74632457  0.70029832  1
  F  F452  1  0.87937305  0.25484021  0.20201599  1
  F  F453  1  0.87971342  0.24952673  0.70104299  1
  F  F454  1  0.87838515  0.74758308  0.19961904  1
  F  F455  1  0.86920916  0.75033726  0.69574750  1
  F  F456  1  0.28919243  -0.00117856  0.30006678  1
  F  F457  1  0.28936604  0.00253551  0.80148398  1
  F  F458  1  0.28994014  0.50411628  0.29787759  1
  F  F459  1  0.28950305  0.49626081  0.80128240  1
  F  F460  1  0.61694091  -0.01271452  0.30030791  1
  F  F461  1  0.62083666  0.00189589  0.80055158  1
  F  F462  1  0.62347205  0.49870048  0.30126464  1
  F  F463  1  0.62216986  0.49993802  0.79746747  1
  F  F464  1  0.95827834  -0.00070814  0.30019704  1
  F  F465  1  0.96632350  0.00058007  0.80161412  1
  F  F466  1  0.96013655  0.50184402  0.29755375  1
  F  F467  1  0.94763037  0.49061858  0.80196268  1
  F  F468  1  0.12163540  0.25235758  0.29737967  1
  F  F469  1  0.12058836  0.24826508  0.80056018  1
  F  F470  1  0.12520199  0.75111528  0.29836269  1
  F  F471  1  0.13274862  0.74957416  0.80389606  1
  F  F472  1  0.45474970  0.25034350  0.29851180  1
  F  F473  1  0.45581495  0.24853865  0.80083756  1
  F  F474  1  0.45248425  0.75359304  0.30096074  1
  F  F475  1  0.45603754  0.74662624  0.80025933  1
  F  F476  1  0.78904604  0.25468253  0.30015919  1
  F  F477  1  0.78633305  0.25105318  0.79964244  1
  F  F478  1  0.78765586  0.74790993  0.29385789  1
  F  F479  1  0.78598009  0.75158523  0.79670697  1
