# generated using pymatgen
data_K24Na3Li5Mg64Fe17Si79(O5F)48
_symmetry_space_group_name_H-M   'P 1'
_cell_length_a   16.09372313
_cell_length_b   18.59435068
_cell_length_c   20.56402792
_cell_angle_alpha   89.99770213
_cell_angle_beta   100.00122200
_cell_angle_gamma   90.00159670
_symmetry_Int_Tables_number   1
_chemical_formula_structural   K24Na3Li5Mg64Fe17Si79(O5F)48
_chemical_formula_sum   'K24 Na3 Li5 Mg64 Fe17 Si79 O240 F48'
_cell_volume   6060.31994715
_cell_formula_units_Z   1
loop_
 _symmetry_equiv_pos_site_id
 _symmetry_equiv_pos_as_xyz
  1  'x, y, z'
loop_
 _atom_site_type_symbol
 _atom_site_label
 _atom_site_symmetry_multiplicity
 _atom_site_fract_x
 _atom_site_fract_y
 _atom_site_fract_z
 _atom_site_occupancy
  K  K0  1  0.00117367  -0.00048133  0.00455860  1
  K  K1  1  0.00267405  0.00745119  0.49456409  1
  K  K2  1  -0.00341732  0.50172199  -0.00370760  1
  K  K3  1  0.00154242  0.50314828  0.49848668  1
  K  K4  1  0.34364712  -0.00631698  -0.00128513  1
  K  K5  1  0.33021786  -0.00234742  0.49941833  1
  K  K6  1  0.33939247  0.49680247  0.00027620  1
  K  K7  1  0.32569420  0.49942994  0.50217750  1
  K  K8  1  0.65202571  0.00000180  -0.00542188  1
  K  K9  1  0.66505328  -0.00100858  0.49962695  1
  K  K10  1  0.66377494  0.50013279  0.00236393  1
  K  K11  1  0.66590517  0.50143060  0.50178412  1
  K  K12  1  0.16958165  0.26269206  0.00092335  1
  K  K13  1  0.16748781  0.25970537  0.49362588  1
  K  K14  1  0.16744752  0.74387612  -0.00404608  1
  K  K15  1  0.18235456  0.74531160  0.50570246  1
  K  K16  1  0.51274278  0.26326802  0.00177731  1
  K  K17  1  0.48930014  0.25983979  0.49769154  1
  K  K18  1  0.48995526  0.74842616  -0.01140068  1
  K  K19  1  0.49439840  0.74906216  0.49905434  1
  K  K20  1  0.82843301  0.25781693  0.00451420  1
  K  K21  1  0.83970757  0.26337354  0.48847382  1
  K  K22  1  0.83452946  0.74185300  -0.00200947  1
  K  K23  1  0.83234119  0.73961714  0.50066645  1
  Na  Na24  1  0.16856467  0.00011832  0.25237143  1
  Na  Na25  1  0.00375430  0.58212774  0.75073029  1
  Na  Na26  1  0.49900284  0.33105781  0.74737402  1
  Li  Li27  1  0.33328037  0.75099455  0.74710673  1
  Li  Li28  1  0.83947137  0.49779998  0.24804467  1
  Li  Li29  1  0.33744664  0.90727057  0.75435664  1
  Li  Li30  1  0.83164759  0.34577066  0.24552741  1
  Li  Li31  1  -0.00514947  0.57665949  0.25126162  1
  Mg  Mg32  1  0.49885094  0.49948646  0.25023022  1
  Mg  Mg33  1  0.33303091  0.25212619  0.25074822  1
  Mg  Mg34  1  0.00042275  0.74863945  0.74894784  1
  Mg  Mg35  1  0.83148504  -0.00068637  0.75327282  1
  Mg  Mg36  1  0.67173746  0.25226839  0.24715934  1
  Mg  Mg37  1  0.83590723  0.50059427  0.75431760  1
  Mg  Mg38  1  0.49589639  -0.00171448  0.75218455  1
  Mg  Mg39  1  0.66725526  0.74917307  0.24873666  1
  Mg  Mg40  1  0.33301203  0.74901562  0.24928538  1
  Mg  Mg41  1  0.83643343  0.00064309  0.25214433  1
  Mg  Mg42  1  0.33207767  0.24859357  0.74815245  1
  Mg  Mg43  1  0.00110669  0.74653063  0.25131395  1
  Mg  Mg44  1  0.16143562  0.50140121  0.25177034  1
  Mg  Mg45  1  0.66457661  0.25025102  0.75248705  1
  Mg  Mg46  1  -0.00130178  0.24953357  0.75178190  1
  Mg  Mg47  1  0.49886285  0.50097501  0.74808976  1
  Mg  Mg48  1  0.16816171  0.50024519  0.74662166  1
  Mg  Mg49  1  0.16845332  -0.00234580  0.75048631  1
  Mg  Mg50  1  -0.00505726  0.25311910  0.25320327  1
  Mg  Mg51  1  0.66422170  0.74839230  0.75167695  1
  Mg  Mg52  1  0.50177605  -0.00152360  0.24453674  1
  Mg  Mg53  1  0.16518292  0.16459293  0.75001584  1
  Mg  Mg54  1  0.00149190  0.08556614  0.25477232  1
  Mg  Mg55  1  0.66787270  0.08436090  0.24702987  1
  Mg  Mg56  1  0.16607408  0.33462979  0.74782104  1
  Mg  Mg57  1  0.66574336  0.41682145  0.75028606  1
  Mg  Mg58  1  0.50171485  0.16571792  0.75368873  1
  Mg  Mg59  1  0.49817371  0.66639456  0.75031727  1
  Mg  Mg60  1  0.33343422  0.08386206  0.24932809  1
  Mg  Mg61  1  0.00147444  0.41397046  0.75194370  1
  Mg  Mg62  1  0.16925619  0.66635825  0.74674683  1
  Mg  Mg63  1  0.83514522  0.83248757  0.24983635  1
  Mg  Mg64  1  0.33468359  0.91544380  0.24739197  1
  Mg  Mg65  1  0.33333601  0.41381951  0.25234568  1
  Mg  Mg66  1  0.33135083  0.41609429  0.74455331  1
  Mg  Mg67  1  0.49763961  0.66458696  0.25060974  1
  Mg  Mg68  1  0.83476469  0.66176114  0.24943871  1
  Mg  Mg69  1  0.00024884  0.91516285  0.75078790  1
  Mg  Mg70  1  0.67074167  0.41801771  0.24375616  1
  Mg  Mg71  1  0.83509976  0.16992918  0.25120407  1
  Mg  Mg72  1  0.83356918  0.83229508  0.75205330  1
  Mg  Mg73  1  -0.00607433  0.42059452  0.25102225  1
  Mg  Mg74  1  0.16670121  0.16667465  0.25509825  1
  Mg  Mg75  1  0.49958067  0.16667536  0.24506659  1
  Mg  Mg76  1  0.33467472  0.08009126  0.75238733  1
  Mg  Mg77  1  0.49822510  0.83382407  0.24494570  1
  Mg  Mg78  1  0.17134866  0.83243970  0.74829123  1
  Mg  Mg79  1  0.16589781  0.66514971  0.25226502  1
  Mg  Mg80  1  0.33273727  0.58340379  0.25215521  1
  Mg  Mg81  1  0.83521539  0.33401461  0.75262774  1
  Mg  Mg82  1  0.83464857  0.66477342  0.75163909  1
  Mg  Mg83  1  0.66460252  0.58424881  0.75075550  1
  Mg  Mg84  1  0.66618914  0.91543556  0.24591972  1
  Mg  Mg85  1  0.16601668  0.33566102  0.25288580  1
  Mg  Mg86  1  0.49329786  0.83283768  0.75098414  1
  Mg  Mg87  1  0.00335614  0.91619368  0.25257276  1
  Mg  Mg88  1  0.16986982  0.83431995  0.25114677  1
  Mg  Mg89  1  0.50057838  0.33481566  0.24768655  1
  Mg  Mg90  1  0.66743502  0.58262377  0.24869492  1
  Mg  Mg91  1  0.66547542  0.08486096  0.75471059  1
  Mg  Mg92  1  0.33106120  0.58728778  0.74705668  1
  Mg  Mg93  1  0.83318084  0.16535190  0.75484430  1
  Mg  Mg94  1  0.66422905  0.91478709  0.75338893  1
  Mg  Mg95  1  -0.00077267  0.08267495  0.75234856  1
  Fe  Fe96  1  0.97768736  0.17195658  0.39387297  1
  Fe  Fe97  1  0.47699066  0.57878988  0.39094349  1
  Fe  Fe98  1  0.18773171  0.41014236  0.60541064  1
  Fe  Fe99  1  0.30526446  0.66667813  0.39110849  1
  Fe  Fe100  1  0.64289559  0.17276578  0.89418897  1
  Fe  Fe101  1  0.35380277  0.82783153  0.10655877  1
  Fe  Fe102  1  0.18747122  0.58452669  0.60384456  1
  Fe  Fe103  1  0.52831925  0.58004871  0.60801502  1
  Fe  Fe104  1  0.47230898  0.91509119  0.89011602  1
  Fe  Fe105  1  0.36182041  0.67521664  0.60890190  1
  Fe  Fe106  1  0.97835071  0.33164094  0.89196686  1
  Fe  Fe107  1  0.69968860  0.33532815  0.10898261  1
  Fe  Fe108  1  0.30759589  0.33313198  0.39294735  1
  Fe  Fe109  1  0.97860191  0.66747641  0.89041750  1
  Fe  Fe110  1  0.52904827  0.91225574  0.10594596  1
  Fe  Fe111  1  0.64168631  0.66298619  0.89077202  1
  Fe  Fe112  1  0.35539577  0.33609485  0.10942006  1
  Si  Si113  1  0.64266192  0.16489939  0.38174700  1
  Si  Si114  1  0.47129469  0.08759661  0.89018832  1
  Si  Si115  1  0.14057274  0.91210013  0.38766166  1
  Si  Si116  1  0.03161690  0.83442522  0.11584736  1
  Si  Si117  1  0.86184559  0.08044624  0.11705674  1
  Si  Si118  1  0.35564573  0.84425031  0.61235822  1
  Si  Si119  1  0.46978308  0.41858293  0.88228730  1
  Si  Si120  1  0.30277380  0.16518156  0.88425711  1
  Si  Si121  1  0.02066810  0.83701404  0.61326399  1
  Si  Si122  1  0.35813146  0.15982856  0.61532424  1
  Si  Si123  1  0.52565990  0.41215639  0.61191745  1
  Si  Si124  1  0.35924172  0.32577975  0.61122581  1
  Si  Si125  1  0.97498320  0.83019635  0.38762753  1
  Si  Si126  1  0.80033544  0.58570431  0.38511375  1
  Si  Si127  1  0.13934435  0.91661697  0.88448848  1
  Si  Si128  1  0.13218388  0.58814356  0.38475978  1
  Si  Si129  1  0.64395520  0.34300872  0.88647293  1
  Si  Si130  1  0.30334918  0.66686334  0.88460394  1
  Si  Si131  1  0.69317089  0.16787017  0.61640880  1
  Si  Si132  1  0.14262021  0.08077200  0.39139276  1
  Si  Si133  1  0.35053745  0.65963207  0.11142952  1
  Si  Si134  1  0.86723238  0.42151045  0.11105265  1
  Si  Si135  1  0.47861077  0.91981768  0.38342252  1
  Si  Si136  1  0.80684339  0.08214476  0.38742300  1
  Si  Si137  1  0.97914045  0.16061353  0.88943362  1
  Si  Si138  1  0.97680330  0.83698591  0.88752621  1
  Si  Si139  1  0.80836033  0.41710516  0.88637435  1
  Si  Si140  1  0.80978840  0.91656971  0.88644010  1
  Si  Si141  1  0.01897516  0.16337115  0.61638285  1
  Si  Si142  1  0.02519015  0.67413618  0.61079028  1
  Si  Si143  1  0.85823572  0.41840079  0.61470392  1
  Si  Si144  1  0.52451604  0.58811289  0.11406191  1
  Si  Si145  1  0.18571831  0.92023433  0.61388030  1
  Si  Si146  1  0.14835105  0.41660842  0.88800427  1
  Si  Si147  1  0.02683689  0.67067631  0.11577816  1
  Si  Si148  1  0.81099935  0.08106993  0.89021503  1
  Si  Si149  1  0.70323377  0.83265294  0.11231788  1
  Si  Si150  1  0.29975584  0.83164616  0.88563919  1
  Si  Si151  1  0.46751054  0.58263381  0.88824040  1
  Si  Si152  1  0.47916717  0.08369980  0.38231700  1
  Si  Si153  1  0.96621413  0.66576776  0.38537125  1
  Si  Si154  1  0.69441852  0.33319266  0.61494183  1
  Si  Si155  1  0.48514338  0.41218455  0.38899150  1
  Si  Si156  1  0.64715900  0.83259766  0.89005963  1
  Si  Si157  1  0.80921830  0.58016172  0.88942831  1
  Si  Si158  1  0.01832771  0.32660188  0.61247292  1
  Si  Si159  1  0.13567163  0.42280098  0.38687772  1
  Si  Si160  1  0.52803191  0.08285304  0.61650590  1
  Si  Si161  1  0.69054343  0.83147541  0.61539693  1
  Si  Si162  1  0.02616794  0.16735694  0.11740196  1
  Si  Si163  1  0.02647256  0.33237570  0.11724685  1
  Si  Si164  1  0.64384470  0.83583292  0.38398548  1
  Si  Si165  1  0.80142297  0.42206258  0.38207587  1
  Si  Si166  1  0.14808274  0.57954448  0.88676943  1
  Si  Si167  1  0.64013180  0.67228898  0.38697631  1
  Si  Si168  1  0.52273887  0.08472076  0.11101405  1
  Si  Si169  1  0.31143587  0.15940122  0.38909391  1
  Si  Si170  1  0.86239946  0.58592681  0.11537553  1
  Si  Si171  1  0.85488005  0.08092200  0.61678794  1
  Si  Si172  1  0.14214148  0.07934918  0.88498743  1
  Si  Si173  1  0.52723517  0.91858636  0.61457752  1
  Si  Si174  1  0.19347946  0.91958438  0.11298701  1
  Si  Si175  1  0.97009302  0.34340654  0.38647974  1
  Si  Si176  1  0.31324091  0.83870799  0.38812404  1
  Si  Si177  1  0.69412069  0.66636232  0.11398355  1
  Si  Si178  1  0.18641821  0.41850541  0.11435810  1
  Si  Si179  1  0.86289964  0.58418030  0.61595857  1
  Si  Si180  1  0.30951766  0.32952230  0.88367546  1
  Si  Si181  1  0.80978509  0.91658108  0.38504793  1
  Si  Si182  1  0.18710570  0.08465825  0.61466346  1
  Si  Si183  1  0.69406165  0.16234435  0.11188124  1
  Si  Si184  1  0.52743205  0.42145441  0.10938556  1
  Si  Si185  1  0.69991250  0.66538370  0.61286537  1
  Si  Si186  1  0.35457519  0.16545648  0.11188037  1
  Si  Si187  1  0.19119774  0.08569709  0.11691488  1
  Si  Si188  1  0.64467961  0.32872798  0.38251423  1
  Si  Si189  1  0.18565402  0.57995463  0.11588025  1
  Si  Si190  1  0.86781017  0.91512278  0.11730301  1
  Si  Si191  1  0.85481096  0.91689902  0.61577792  1
  O  O192  1  0.27423454  0.10984592  0.08490477  1
  O  O193  1  0.26880092  0.11694987  0.58548813  1
  O  O194  1  0.27212624  0.60117394  0.08733423  1
  O  O195  1  0.27779692  0.61519903  0.56736790  1
  O  O196  1  0.60735266  0.11583508  0.08490204  1
  O  O197  1  0.60269899  0.12779485  0.58702861  1
  O  O198  1  0.60316139  0.62739374  0.08525282  1
  O  O199  1  0.62750174  0.61226675  0.57808260  1
  O  O200  1  0.94160136  0.11810268  0.08843032  1
  O  O201  1  0.93821409  0.11000501  0.58830611  1
  O  O202  1  0.93757027  0.63009820  0.08531917  1
  O  O203  1  0.94330143  0.61913207  0.58757786  1
  O  O204  1  0.10911132  0.36113904  0.08803041  1
  O  O205  1  0.09458839  0.34717127  0.57557475  1
  O  O206  1  0.10814729  0.87076264  0.08445068  1
  O  O207  1  0.09989161  0.87281068  0.58236770  1
  O  O208  1  0.44395229  0.37747748  0.07446976  1
  O  O209  1  0.44893559  0.35284564  0.59070380  1
  O  O210  1  0.44924240  0.84616085  0.07082146  1
  O  O211  1  0.43404758  0.88757421  0.58255932  1
  O  O212  1  0.78603974  0.37878956  0.07184638  1
  O  O213  1  0.77015135  0.37469616  0.58462286  1
  O  O214  1  0.79112973  0.86044501  0.08811041  1
  O  O215  1  0.76871908  0.87160645  0.58567759  1
  O  O216  1  0.26299297  0.39646332  0.07702769  1
  O  O217  1  0.28088710  0.36998006  0.57095073  1
  O  O218  1  0.26779189  0.89653123  0.07400536  1
  O  O219  1  0.26917346  0.89446594  0.58466752  1
  O  O220  1  0.60497114  0.39196854  0.07602807  1
  O  O221  1  0.60645609  0.37287244  0.58338826  1
  O  O222  1  0.63113819  0.88635360  0.07789703  1
  O  O223  1  0.60256094  0.87471791  0.58439896  1
  O  O224  1  0.94927897  0.38436425  0.08360860  1
  O  O225  1  0.93338738  0.37644859  0.58480393  1
  O  O226  1  0.94894712  0.88461629  0.08729747  1
  O  O227  1  0.93590044  0.88705007  0.58506311  1
  O  O228  1  0.10679712  0.13481146  0.08634217  1
  O  O229  1  0.10185862  0.13334301  0.58729822  1
  O  O230  1  0.10650497  0.63441179  0.08595429  1
  O  O231  1  0.09790842  0.65021772  0.57114110  1
  O  O232  1  0.44068503  0.13758454  0.08572802  1
  O  O233  1  0.43500039  0.11772177  0.58614186  1
  O  O234  1  0.43583036  0.62993737  0.08395258  1
  O  O235  1  0.45503416  0.65049661  0.57313556  1
  O  O236  1  0.77345375  0.12009142  0.08575532  1
  O  O237  1  0.76931032  0.12638777  0.58592209  1
  O  O238  1  0.77051634  0.62548661  0.08450640  1
  O  O239  1  0.78510786  0.63799877  0.58394417  1
  O  O240  1  0.07680832  0.12004223  0.43132896  1
  O  O241  1  0.05714003  0.10246025  0.91384740  1
  O  O242  1  0.04507093  0.61298355  0.41238687  1
  O  O243  1  0.06774882  0.60261629  0.92025694  1
  O  O244  1  0.39943783  0.11252471  0.41436704  1
  O  O245  1  0.38110855  0.11301695  0.91386690  1
  O  O246  1  0.38116937  0.59663508  0.42557567  1
  O  O247  1  0.38596642  0.61788061  0.91610235  1
  O  O248  1  0.71946724  0.10969462  0.41271513  1
  O  O249  1  0.73472891  0.10912189  0.92471737  1
  O  O250  1  0.72504769  0.62476484  0.41755480  1
  O  O251  1  0.72557336  0.59473391  0.92154800  1
  O  O252  1  0.21295311  0.37283623  0.42198225  1
  O  O253  1  0.23208337  0.36521835  0.91479763  1
  O  O254  1  0.23231061  0.87539303  0.41769463  1
  O  O255  1  0.21248895  0.85925775  0.91404905  1
  O  O256  1  0.56216410  0.35192711  0.41366956  1
  O  O257  1  0.55835937  0.37608780  0.91033646  1
  O  O258  1  0.56374624  0.87156945  0.41351978  1
  O  O259  1  0.56872798  0.85961323  0.92337273  1
  O  O260  1  0.88901739  0.38052935  0.41441324  1
  O  O261  1  0.87820831  0.35933760  0.92061391  1
  O  O262  1  0.89592716  0.87093311  0.41542920  1
  O  O263  1  0.89156014  0.86593327  0.91504106  1
  O  O264  1  0.04962152  0.39747396  0.41409232  1
  O  O265  1  0.07282283  0.38958849  0.92524869  1
  O  O266  1  0.06348437  0.87206285  0.41884455  1
  O  O267  1  0.05158635  0.89812402  0.91225161  1
  O  O268  1  0.40728165  0.38476707  0.42370189  1
  O  O269  1  0.39652960  0.37315195  0.91286545  1
  O  O270  1  0.39633211  0.89273861  0.41396145  1
  O  O271  1  0.37617305  0.88145049  0.92210785  1
  O  O272  1  0.72629993  0.37903652  0.41384405  1
  O  O273  1  0.71881285  0.40224586  0.91287246  1
  O  O274  1  0.72853016  0.88380328  0.41436652  1
  O  O275  1  0.72726926  0.89039062  0.91557766  1
  O  O276  1  0.23942806  0.11083807  0.41764946  1
  O  O277  1  0.21934201  0.13477650  0.91312399  1
  O  O278  1  0.20219261  0.64512106  0.41807029  1
  O  O279  1  0.22642449  0.63350960  0.91896744  1
  O  O280  1  0.56053500  0.13507763  0.41222914  1
  O  O281  1  0.54211938  0.14606864  0.92197206  1
  O  O282  1  0.56175045  0.64889456  0.42042071  1
  O  O283  1  0.54825832  0.62758610  0.92518595  1
  O  O284  1  0.88518632  0.12794961  0.42590120  1
  O  O285  1  0.89747752  0.12742605  0.91767845  1
  O  O286  1  0.88626803  0.63175916  0.41601822  1
  O  O287  1  0.88339096  0.63462243  0.92352954  1
  O  O288  1  0.16458928  0.00367529  0.09141233  1
  O  O289  1  0.16603591  0.00338434  0.58422372  1
  O  O290  1  0.15460733  0.49998865  0.08773210  1
  O  O291  1  0.15518114  0.49608665  0.56561153  1
  O  O292  1  0.50009482  0.00742465  0.07770552  1
  O  O293  1  0.53120507  0.00154500  0.58475886  1
  O  O294  1  0.51348285  0.50681004  0.08422275  1
  O  O295  1  0.50270940  0.48612408  0.57213153  1
  O  O296  1  0.85332512  -0.00267097  0.08796114  1
  O  O297  1  0.83649644  -0.00076821  0.58681923  1
  O  O298  1  0.86161882  0.50565572  0.08226849  1
  O  O299  1  0.84915390  0.50118501  0.58467106  1
  O  O300  1  0.00807504  0.24928705  0.08825718  1
  O  O301  1  -0.01059622  0.24283497  0.58807480  1
  O  O302  1  0.01593975  0.75327989  0.08488793  1
  O  O303  1  -0.00463329  0.75717882  0.58249235  1
  O  O304  1  0.32772763  0.24187644  0.07740398  1
  O  O305  1  0.35132233  0.24048959  0.58391231  1
  O  O306  1  0.31869693  0.73423216  0.07587365  1
  O  O307  1  0.33866114  0.76969898  0.57309591  1
  O  O308  1  0.68392477  0.23951442  0.07641936  1
  O  O309  1  0.68949819  0.24970037  0.58615533  1
  O  O310  1  0.68970211  0.74906798  0.08531209  1
  O  O311  1  0.68467714  0.75007797  0.58490571  1
  O  O312  1  0.14522484  -0.00502978  0.41570970  1
  O  O313  1  0.16776947  -0.00191794  0.91284953  1
  O  O314  1  0.15332379  0.50601436  0.41301880  1
  O  O315  1  0.17803480  0.49774948  0.91411326  1
  O  O316  1  0.50202597  0.00194454  0.41211997  1
  O  O317  1  0.49408918  0.00961924  0.92323908  1
  O  O318  1  0.52400155  0.48833751  0.41746202  1
  O  O319  1  0.47455532  0.49847864  0.91716978  1
  O  O320  1  0.82177209  -0.00201368  0.41545533  1
  O  O321  1  0.83585298  -0.00235362  0.91451846  1
  O  O322  1  0.80803764  0.50360898  0.41576419  1
  O  O323  1  0.84189755  0.49738744  0.91161638  1
  O  O324  1  0.32156307  0.23641909  0.42560050  1
  O  O325  1  0.32019173  0.24695610  0.91345652  1
  O  O326  1  0.33615026  0.76210553  0.42181856  1
  O  O327  1  0.31666807  0.74882694  0.91509234  1
  O  O328  1  0.66735176  0.24581626  0.41087687  1
  O  O329  1  0.66760083  0.26746343  0.92480305  1
  O  O330  1  0.66490273  0.75568017  0.41438218  1
  O  O331  1  0.68059865  0.75515015  0.92072566  1
  O  O332  1  0.98649256  0.26699607  0.42570674  1
  O  O333  1  1.00641934  0.23671568  0.92355314  1
  O  O334  1  0.98024978  0.74824698  0.41785672  1
  O  O335  1  1.00601865  0.76246980  0.92399438  1
  O  O336  1  0.21313264  0.09243317  0.19615096  1
  O  O337  1  0.20622510  0.08349939  0.69470427  1
  O  O338  1  0.20566068  0.58224364  0.19586711  1
  O  O339  1  0.20942544  0.58326538  0.69638348  1
  O  O340  1  0.54371474  0.08368317  0.19247791  1
  O  O341  1  0.54474875  0.08128155  0.69632934  1
  O  O342  1  0.54415769  0.58717477  0.19429933  1
  O  O343  1  0.54459020  0.58214725  0.69981694  1
  O  O344  1  0.87738426  0.08117358  0.19725929  1
  O  O345  1  0.87386243  0.08187140  0.69716975  1
  O  O346  1  0.87662432  0.58752262  0.19407468  1
  O  O347  1  0.86875976  0.58090721  0.69460798  1
  O  O348  1  0.04275205  0.33231790  0.19741549  1
  O  O349  1  0.04055816  0.32827303  0.69318453  1
  O  O350  1  0.04522617  0.83422878  0.19615426  1
  O  O351  1  0.03969065  0.83726664  0.69345463  1
  O  O352  1  0.37955433  0.33298303  0.20077128  1
  O  O353  1  0.36406756  0.32805189  0.69051969  1
  O  O354  1  0.37731566  0.83210663  0.19939672  1
  O  O355  1  0.37808881  0.83864699  0.69101866  1
  O  O356  1  0.71195305  0.33303516  0.19907248  1
  O  O357  1  0.71246520  0.33196412  0.69517174  1
  O  O358  1  0.71483395  0.83288323  0.19368312  1
  O  O359  1  0.70971993  0.83498451  0.69549613  1
  O  O360  1  0.20733897  0.41727243  0.19491338  1
  O  O361  1  0.20956477  0.41345624  0.69791512  1
  O  O362  1  0.21477906  0.91057874  0.19262663  1
  O  O363  1  0.19920106  0.91874647  0.69297320  1
  O  O364  1  0.54250583  0.41817464  0.19099377  1
  O  O365  1  0.54977800  0.42175471  0.69116695  1
  O  O366  1  0.54734865  0.91545249  0.19877183  1
  O  O367  1  0.54697213  0.91817590  0.69434539  1
  O  O368  1  0.88067676  0.41856222  0.19012218  1
  O  O369  1  0.87478608  0.41637493  0.69455750  1
  O  O370  1  0.88086313  0.91586598  0.19787884  1
  O  O371  1  0.87428195  0.91732582  0.69602812  1
  O  O372  1  0.04507696  0.16578385  0.19734144  1
  O  O373  1  0.03960068  0.16298483  0.69683096  1
  O  O374  1  0.04601122  0.67246414  0.19504455  1
  O  O375  1  0.04797160  0.67675195  0.69020450  1
  O  O376  1  0.37491418  0.16631672  0.19327332  1
  O  O377  1  0.37504676  0.16217860  0.69533083  1
  O  O378  1  0.37407722  0.66482313  0.19185737  1
  O  O379  1  0.37995568  0.66675746  0.69936339  1
  O  O380  1  0.71207745  0.16377933  0.19306641  1
  O  O381  1  0.71334171  0.16474661  0.69632464  1
  O  O382  1  0.71072871  0.66746266  0.19450520  1
  O  O383  1  0.71422323  0.66796148  0.69346128  1
  O  O384  1  0.11944647  0.08956174  0.31194634  1
  O  O385  1  0.12204681  0.08147561  0.80440174  1
  O  O386  1  0.12116673  0.58577922  0.30479469  1
  O  O387  1  0.13420737  0.58175384  0.80712529  1
  O  O388  1  0.46067815  0.08364739  0.30212298  1
  O  O389  1  0.45615739  0.08444313  0.80844786  1
  O  O390  1  0.45527097  0.58249100  0.29821959  1
  O  O391  1  0.45456045  0.58217965  0.80799451  1
  O  O392  1  0.79106474  0.08131610  0.30666271  1
  O  O393  1  0.79144535  0.08256175  0.80864967  1
  O  O394  1  0.78364617  0.58933271  0.30590757  1
  O  O395  1  0.79080316  0.58366832  0.80767920  1
  O  O396  1  0.28681020  0.33224921  0.30150475  1
  O  O397  1  0.28955945  0.32907739  0.80367734  1
  O  O398  1  0.29119583  0.83732811  0.30755186  1
  O  O399  1  0.28352836  0.83466459  0.80645407  1
  O  O400  1  0.62383756  0.33153509  0.30264604  1
  O  O401  1  0.63307261  0.33427940  0.80682147  1
  O  O402  1  0.62705438  0.83449393  0.30397166  1
  O  O403  1  0.62769521  0.83419320  0.80836918  1
  O  O404  1  0.95642159  0.33578724  0.30684217  1
  O  O405  1  0.95582787  0.32978652  0.80002538  1
  O  O406  1  0.95718279  0.83264528  0.30721058  1
  O  O407  1  0.95669252  0.83642118  0.80629534  1
  O  O408  1  0.12115565  0.41793771  0.30608387  1
  O  O409  1  0.12452736  0.41227857  0.80748147  1
  O  O410  1  0.11969350  0.90797542  0.30839802  1
  O  O411  1  0.12078522  0.91761991  0.80401576  1
  O  O412  1  0.46139986  0.41384087  0.30739849  1
  O  O413  1  0.44956034  0.42239838  0.80312008  1
  O  O414  1  0.46105847  0.91801420  0.30373443  1
  O  O415  1  0.45796685  0.91703975  0.79974142  1
  O  O416  1  0.78353270  0.42286276  0.30365500  1
  O  O417  1  0.79080748  0.41477523  0.80516471  1
  O  O418  1  0.79198301  0.91541700  0.30472247  1
  O  O419  1  0.79091453  0.91624855  0.80545522  1
  O  O420  1  0.29249817  0.16418581  0.30829122  1
  O  O421  1  0.28534771  0.16482417  0.80373497  1
  O  O422  1  0.28838592  0.66774370  0.29850086  1
  O  O423  1  0.28625380  0.66530003  0.80543990  1
  O  O424  1  0.62311143  0.16435294  0.30161763  1
  O  O425  1  0.62404975  0.16682316  0.80230198  1
  O  O426  1  0.62426280  0.66942464  0.30601465  1
  O  O427  1  0.62277514  0.66698607  0.79931283  1
  O  O428  1  0.95509922  0.16680046  0.30256420  1
  O  O429  1  0.95774753  0.16279145  0.80797133  1
  O  O430  1  0.94970795  0.67293398  0.30632930  1
  O  O431  1  0.95094609  0.67592605  0.80065936  1
  F  F432  1  0.03311039  0.00094387  0.20303014  1
  F  F433  1  0.04186475  0.00080450  0.70218905  1
  F  F434  1  0.04599782  0.49646939  0.20067112  1
  F  F435  1  0.04808391  0.48730991  0.69959696  1
  F  F436  1  0.38009116  0.00152908  0.19957858  1
  F  F437  1  0.38095365  0.00920508  0.69771766  1
  F  F438  1  0.37665322  0.49667963  0.20251455  1
  F  F439  1  0.37830623  0.49977160  0.69890338  1
  F  F440  1  0.71642891  -0.00049204  0.20227987  1
  F  F441  1  0.71205848  0.00068993  0.70434229  1
  F  F442  1  0.70368817  0.50448695  0.19539423  1
  F  F443  1  0.71475981  0.49951853  0.70482537  1
  F  F444  1  0.20941032  0.24848401  0.20441838  1
  F  F445  1  0.20818651  0.24576582  0.70101421  1
  F  F446  1  0.20932526  0.75174767  0.20219660  1
  F  F447  1  0.20698749  0.75221692  0.69794123  1
  F  F448  1  0.54694635  0.24939264  0.20030018  1
  F  F449  1  0.54993132  0.23848431  0.69665684  1
  F  F450  1  0.54751933  0.74863244  0.20217547  1
  F  F451  1  0.54716441  0.75658511  0.70063809  1
  F  F452  1  0.87994970  0.24526366  0.19861773  1
  F  F453  1  0.87643268  0.24448191  0.70225406  1
  F  F454  1  0.87985764  0.75177514  0.20157089  1
  F  F455  1  0.87647661  0.75588654  0.69854104  1
  F  F456  1  0.30383614  -0.00021206  0.30057102  1
  F  F457  1  0.28349208  0.00491079  0.79945576  1
  F  F458  1  0.28553983  0.49855841  0.29707585  1
  F  F459  1  0.29011315  0.49826735  0.79605694  1
  F  F460  1  0.62478431  0.00129768  0.29678863  1
  F  F461  1  0.62185328  0.00001421  0.79917545  1
  F  F462  1  0.62059882  0.49989785  0.29468003  1
  F  F463  1  0.62116926  0.49786273  0.79906210  1
  F  F464  1  0.95482127  -0.00223566  0.30398237  1
  F  F465  1  0.95347732  -0.00079311  0.79837694  1
  F  F466  1  0.95373358  0.49881180  0.30112617  1
  F  F467  1  0.95214114  0.48877585  0.80218722  1
  F  F468  1  0.11980073  0.25086700  0.30043494  1
  F  F469  1  0.12080280  0.24753429  0.79710411  1
  F  F470  1  0.12090085  0.75194934  0.29948066  1
  F  F471  1  0.12029561  0.75272148  0.79629007  1
  F  F472  1  0.45751009  0.24589568  0.29742140  1
  F  F473  1  0.44714391  0.24084019  0.79964647  1
  F  F474  1  0.45738325  0.75026001  0.29725992  1
  F  F475  1  0.46238566  0.75048189  0.80113553  1
  F  F476  1  0.78370575  0.23951385  0.30404975  1
  F  F477  1  0.78878142  0.24842545  0.79857973  1
  F  F478  1  0.78811096  0.75146071  0.29748040  1
  F  F479  1  0.78725135  0.75136205  0.79671045  1
