# generated using pymatgen
data_K24Na3Li5Mg64Fe17Si79(O5F)48
_symmetry_space_group_name_H-M   'P 1'
_cell_length_a   16.08931635
_cell_length_b   18.59203916
_cell_length_c   20.55550740
_cell_angle_alpha   90.00115911
_cell_angle_beta   100.01758062
_cell_angle_gamma   89.99146548
_symmetry_Int_Tables_number   1
_chemical_formula_structural   K24Na3Li5Mg64Fe17Si79(O5F)48
_chemical_formula_sum   'K24 Na3 Li5 Mg64 Fe17 Si79 O240 F48'
_cell_volume   6055.09210852
_cell_formula_units_Z   1
loop_
 _symmetry_equiv_pos_site_id
 _symmetry_equiv_pos_as_xyz
  1  'x, y, z'
loop_
 _atom_site_type_symbol
 _atom_site_label
 _atom_site_symmetry_multiplicity
 _atom_site_fract_x
 _atom_site_fract_y
 _atom_site_fract_z
 _atom_site_occupancy
  K  K0  1  -0.00375864  0.00609884  0.00461002  1
  K  K1  1  -0.00342973  0.00898295  0.49834174  1
  K  K2  1  -0.00666201  0.49486906  0.00325867  1
  K  K3  1  -0.00562306  0.49824743  0.49374483  1
  K  K4  1  0.33899539  0.00865645  0.00202070  1
  K  K5  1  0.33827871  0.00506711  0.49463725  1
  K  K6  1  0.34371197  0.49271052  0.01793249  1
  K  K7  1  0.34654711  0.48355166  0.49093638  1
  K  K8  1  0.66275805  0.00974735  0.00286053  1
  K  K9  1  0.66398674  0.00660496  0.49464510  1
  K  K10  1  0.66710062  0.49130368  -0.00159838  1
  K  K11  1  0.65214352  0.49200232  0.49440833  1
  K  K12  1  0.16892634  0.24859246  0.00724903  1
  K  K13  1  0.17126052  0.24816519  0.49375036  1
  K  K14  1  0.17658459  0.74496517  0.00860480  1
  K  K15  1  0.16966619  0.75197223  0.49590490  1
  K  K16  1  0.48944346  0.25113514  0.00690254  1
  K  K17  1  0.50239161  0.26181618  0.49963388  1
  K  K18  1  0.50117144  0.74164631  0.01006501  1
  K  K19  1  0.50231020  0.75443292  0.49859689  1
  K  K20  1  0.83732520  0.24618532  -0.00188730  1
  K  K21  1  0.82049087  0.24719080  0.50077363  1
  K  K22  1  0.82746230  0.74183102  0.00218665  1
  K  K23  1  0.82332146  0.75051302  0.49382620  1
  Na  Na24  1  0.50119633  0.49767790  0.74386629  1
  Na  Na25  1  0.83510703  0.16948219  0.75323817  1
  Na  Na26  1  0.83378873  0.16843355  0.24867331  1
  Li  Li27  1  0.50180965  0.00697037  0.24674685  1
  Li  Li28  1  0.34320036  0.25029860  0.24755140  1
  Li  Li29  1  0.33318525  0.40810466  0.24911285  1
  Li  Li30  1  0.50313424  0.33504453  0.74510953  1
  Li  Li31  1  0.49438773  0.16558504  0.24700825  1
  Mg  Mg32  1  0.33432182  0.74933531  0.74887661  1
  Mg  Mg33  1  0.16851271  0.50004740  0.75238596  1
  Mg  Mg34  1  0.66323851  0.24750053  0.24801982  1
  Mg  Mg35  1  -0.00206380  0.74909225  0.25552985  1
  Mg  Mg36  1  0.16714910  0.00238375  0.24641062  1
  Mg  Mg37  1  0.49889494  0.00212275  0.74437603  1
  Mg  Mg38  1  0.33328062  0.74911260  0.24759552  1
  Mg  Mg39  1  0.49422215  0.49773472  0.24586732  1
  Mg  Mg40  1  0.16861869  0.00274507  0.74962488  1
  Mg  Mg41  1  0.83122186  0.00140298  0.25148094  1
  Mg  Mg42  1  0.83204236  0.49960628  0.75524077  1
  Mg  Mg43  1  0.33729387  0.25139527  0.74651409  1
  Mg  Mg44  1  0.66614167  0.25286845  0.74773642  1
  Mg  Mg45  1  0.00225405  0.25029196  0.24681418  1
  Mg  Mg46  1  0.66709476  0.75095008  0.75121710  1
  Mg  Mg47  1  0.16866562  0.49746094  0.24887843  1
  Mg  Mg48  1  0.83579504  0.00305505  0.75381978  1
  Mg  Mg49  1  0.83195234  0.50075207  0.25675593  1
  Mg  Mg50  1  0.00158325  0.74954554  0.75571629  1
  Mg  Mg51  1  0.66390036  0.74972758  0.25496706  1
  Mg  Mg52  1  0.00221452  0.24994190  0.75364325  1
  Mg  Mg53  1  0.66525782  0.41406014  0.24980735  1
  Mg  Mg54  1  0.83313874  0.33318606  0.75379974  1
  Mg  Mg55  1  0.83450848  0.33274164  0.25246404  1
  Mg  Mg56  1  0.33461847  0.58149614  0.24467284  1
  Mg  Mg57  1  0.16781723  0.16464114  0.75004635  1
  Mg  Mg58  1  0.33101395  0.08707082  0.74631768  1
  Mg  Mg59  1  0.16762365  0.66539893  0.75275258  1
  Mg  Mg60  1  0.00037616  0.41602343  0.75367609  1
  Mg  Mg61  1  0.00021048  0.58426139  0.25620069  1
  Mg  Mg62  1  0.33883479  0.41545717  0.74675692  1
  Mg  Mg63  1  0.66470631  0.91782610  0.74803965  1
  Mg  Mg64  1  0.49865610  0.66454116  0.24979259  1
  Mg  Mg65  1  0.83303310  0.66546654  0.75491857  1
  Mg  Mg66  1  0.49999610  0.83695585  0.24887288  1
  Mg  Mg67  1  0.49531126  0.32875340  0.24672038  1
  Mg  Mg68  1  -0.00149265  0.91663719  0.25165779  1
  Mg  Mg69  1  0.66337708  0.08376577  0.24986962  1
  Mg  Mg70  1  -0.00072250  0.08574728  0.24616422  1
  Mg  Mg71  1  0.33474432  0.91846345  0.24538146  1
  Mg  Mg72  1  0.66568251  0.91893247  0.25319849  1
  Mg  Mg73  1  0.16936359  0.16899400  0.24365810  1
  Mg  Mg74  1  -0.00037406  0.58423110  0.75572399  1
  Mg  Mg75  1  0.00378110  0.91693775  0.75492250  1
  Mg  Mg76  1  0.16984800  0.33456811  0.75178193  1
  Mg  Mg77  1  0.66558508  0.08565627  0.74775394  1
  Mg  Mg78  1  0.33227673  0.91654339  0.74658739  1
  Mg  Mg79  1  0.16583737  0.83442934  0.24857812  1
  Mg  Mg80  1  0.16835825  0.83390600  0.75199713  1
  Mg  Mg81  1  0.66574786  0.58367535  0.25441823  1
  Mg  Mg82  1  0.83298068  0.66484890  0.25761339  1
  Mg  Mg83  1  0.00309026  0.41582283  0.25146189  1
  Mg  Mg84  1  0.49714862  0.17017294  0.74452804  1
  Mg  Mg85  1  0.33515644  0.58212156  0.75012869  1
  Mg  Mg86  1  0.00432199  0.08613359  0.75299396  1
  Mg  Mg87  1  0.49926427  0.83643724  0.74744604  1
  Mg  Mg88  1  0.33893623  0.08516349  0.24390211  1
  Mg  Mg89  1  0.83425753  0.83535372  0.75162684  1
  Mg  Mg90  1  0.66725341  0.58261648  0.75174019  1
  Mg  Mg91  1  0.83244052  0.83474934  0.25480468  1
  Mg  Mg92  1  0.66572723  0.41358872  0.75113707  1
  Mg  Mg93  1  0.16656129  0.66467849  0.25067433  1
  Mg  Mg94  1  0.50111747  0.66596659  0.75059987  1
  Mg  Mg95  1  0.17240220  0.33414999  0.24545526  1
  Fe  Fe96  1  0.46234271  0.58280384  0.38875335  1
  Fe  Fe97  1  0.69540367  0.32966586  0.60865847  1
  Fe  Fe98  1  0.14717899  0.07904160  0.89333081  1
  Fe  Fe99  1  0.63409921  0.66802119  0.39324926  1
  Fe  Fe100  1  0.80614513  0.58303449  0.89485588  1
  Fe  Fe101  1  0.35297820  0.33064032  0.10741278  1
  Fe  Fe102  1  0.97676490  0.66684707  0.39577491  1
  Fe  Fe103  1  0.80491108  0.57765811  0.39796594  1
  Fe  Fe104  1  0.52204712  0.91685905  0.60716786  1
  Fe  Fe105  1  0.02166105  0.16767881  0.10620499  1
  Fe  Fe106  1  0.35984521  0.66529558  0.10649606  1
  Fe  Fe107  1  0.35716862  0.16921134  0.60487138  1
  Fe  Fe108  1  0.80915809  0.92174192  0.39180663  1
  Fe  Fe109  1  0.14855540  0.41596363  0.38936929  1
  Fe  Fe110  1  0.52478668  0.41817896  0.60632121  1
  Fe  Fe111  1  0.18724681  0.08089816  0.60520858  1
  Fe  Fe112  1  0.97610569  0.16433009  0.89416438  1
  Si  Si113  1  0.80785791  0.91501927  0.88792926  1
  Si  Si114  1  0.02694725  0.82746523  0.61947528  1
  Si  Si115  1  0.47684749  0.41593194  0.88367697  1
  Si  Si116  1  0.02297489  0.17361118  0.61221557  1
  Si  Si117  1  0.14542245  0.58632774  0.88876230  1
  Si  Si118  1  0.02194929  0.83246031  0.11511185  1
  Si  Si119  1  0.70015947  0.83611134  0.61393842  1
  Si  Si120  1  0.01807384  0.33832332  0.11104897  1
  Si  Si121  1  0.64078191  0.16433228  0.38288748  1
  Si  Si122  1  0.85420534  0.07601457  0.11119311  1
  Si  Si123  1  0.30499815  0.83560882  0.38221134  1
  Si  Si124  1  0.52629668  0.59403666  0.61310273  1
  Si  Si125  1  0.85520399  0.91260737  0.11472017  1
  Si  Si126  1  0.14174327  0.92100347  0.38318624  1
  Si  Si127  1  0.79880993  0.08025199  0.88866150  1
  Si  Si128  1  0.63491335  0.67118618  0.89021624  1
  Si  Si129  1  0.68933246  0.83093532  0.11593250  1
  Si  Si130  1  0.64065987  0.32908633  0.88597311  1
  Si  Si131  1  0.35496197  0.66629860  0.61544622  1
  Si  Si132  1  0.63450138  0.16416803  0.88415817  1
  Si  Si133  1  0.69653654  0.33074275  0.11417376  1
  Si  Si134  1  0.46885770  0.08457778  0.88269444  1
  Si  Si135  1  0.97839871  0.83586256  0.88922775  1
  Si  Si136  1  0.85997112  0.58260945  0.61950131  1
  Si  Si137  1  0.52572965  0.08697800  0.60955628  1
  Si  Si138  1  0.31214790  0.33877619  0.88518363  1
  Si  Si139  1  0.69302330  0.15873771  0.61322807  1
  Si  Si140  1  0.53328719  0.57919976  0.11059632  1
  Si  Si141  1  0.18494816  0.58436077  0.11032098  1
  Si  Si142  1  0.29746103  0.67077489  0.38519055  1
  Si  Si143  1  0.18826392  0.91528481  0.11230691  1
  Si  Si144  1  0.02455400  0.66467263  0.61931589  1
  Si  Si145  1  0.35252428  0.82993402  0.61180736  1
  Si  Si146  1  0.63872376  0.32868363  0.38216793  1
  Si  Si147  1  0.46907066  0.91618394  0.38156860  1
  Si  Si148  1  0.30869285  0.17364213  0.88699710  1
  Si  Si149  1  0.97937909  0.66920212  0.89279963  1
  Si  Si150  1  0.02776740  0.33773544  0.61875591  1
  Si  Si151  1  0.86501144  0.08053980  0.61761080  1
  Si  Si152  1  0.47361620  0.58166625  0.88499245  1
  Si  Si153  1  0.52808639  0.91880159  0.11387789  1
  Si  Si154  1  0.31241025  0.66374946  0.88588718  1
  Si  Si155  1  0.18953370  0.42044108  0.61627800  1
  Si  Si156  1  0.18616357  0.91096070  0.61356356  1
  Si  Si157  1  0.47518639  0.41208613  0.38201415  1
  Si  Si158  1  0.53028165  0.41333823  0.11058675  1
  Si  Si159  1  0.47518285  0.07999394  0.37985933  1
  Si  Si160  1  0.14514957  0.42065387  0.88802572  1
  Si  Si161  1  0.80906344  0.40618509  0.38804788  1
  Si  Si162  1  0.69036138  0.16543268  0.11281005  1
  Si  Si163  1  0.86466351  0.41830780  0.61776219  1
  Si  Si164  1  0.63844651  0.83649545  0.88630257  1
  Si  Si165  1  0.69461363  0.66737682  0.11678713  1
  Si  Si166  1  0.34852055  0.33712354  0.60854316  1
  Si  Si167  1  0.97643992  0.33091533  0.38698051  1
  Si  Si168  1  0.02220737  0.66730594  0.11640479  1
  Si  Si169  1  0.35836572  0.83823865  0.10913454  1
  Si  Si170  1  0.19006799  0.58404372  0.61707328  1
  Si  Si171  1  0.85604194  0.42124983  0.11777603  1
  Si  Si172  1  0.98141751  0.83587372  0.39109567  1
  Si  Si173  1  0.98095410  0.33631561  0.89121736  1
  Si  Si174  1  0.31150260  0.16210767  0.37958230  1
  Si  Si175  1  0.19366288  0.08048775  0.10953124  1
  Si  Si176  1  0.14373413  0.58305186  0.38753891  1
  Si  Si177  1  0.18317704  0.41924945  0.10854637  1
  Si  Si178  1  0.31268638  0.82766386  0.88513698  1
  Si  Si179  1  0.85788501  0.58508719  0.11847465  1
  Si  Si180  1  0.63786640  0.83935227  0.38903947  1
  Si  Si181  1  0.15047068  0.91034582  0.88961057  1
  Si  Si182  1  0.52897596  0.08334186  0.11224291  1
  Si  Si183  1  0.14463180  0.08463118  0.38231599  1
  Si  Si184  1  0.35973930  0.15912627  0.10889474  1
  Si  Si185  1  0.69607855  0.67028146  0.61671026  1
  Si  Si186  1  0.47160802  0.91954977  0.88436195  1
  Si  Si187  1  0.81160649  0.08811803  0.38803286  1
  Si  Si188  1  0.86801846  0.91692768  0.61808092  1
  Si  Si189  1  0.80839557  0.41169480  0.89183253  1
  Si  Si190  1  0.31051064  0.32533077  0.38241737  1
  Si  Si191  1  0.98091456  0.16762312  0.38344267  1
  O  O192  1  0.27954664  0.10339245  0.08158657  1
  O  O193  1  0.27924890  0.10060565  0.56650342  1
  O  O194  1  0.25691859  0.61794358  0.07288836  1
  O  O195  1  0.27336409  0.61333349  0.58857051  1
  O  O196  1  0.60103618  0.12693824  0.07757379  1
  O  O197  1  0.61768930  0.10041514  0.58562905  1
  O  O198  1  0.61378824  0.61887985  0.08332285  1
  O  O199  1  0.60691379  0.63218252  0.58491477  1
  O  O200  1  0.92644805  0.10890257  0.07455591  1
  O  O201  1  0.93735839  0.12428700  0.58595487  1
  O  O202  1  0.93679279  0.62040679  0.08758213  1
  O  O203  1  0.94348577  0.61375411  0.59169129  1
  O  O204  1  0.09450649  0.37559245  0.07907700  1
  O  O205  1  0.11061222  0.36600840  0.58879317  1
  O  O206  1  0.10198097  0.86685743  0.08486397  1
  O  O207  1  0.11223757  0.84857780  0.59113014  1
  O  O208  1  0.44440493  0.37625326  0.07341086  1
  O  O209  1  0.42524616  0.36565684  0.57396810  1
  O  O210  1  0.43495873  0.88405666  0.08256510  1
  O  O211  1  0.43034078  0.85346843  0.57697337  1
  O  O212  1  0.77285601  0.37330454  0.08542576  1
  O  O213  1  0.79504974  0.36412400  0.58052194  1
  O  O214  1  0.77048133  0.86427581  0.08608583  1
  O  O215  1  0.78570024  0.86776561  0.58908036  1
  O  O216  1  0.25583881  0.38689136  0.07150710  1
  O  O217  1  0.27037241  0.39702084  0.58458724  1
  O  O218  1  0.26738236  0.88069850  0.08180219  1
  O  O219  1  0.26909361  0.88000546  0.58497335  1
  O  O220  1  0.60908173  0.37198078  0.08221945  1
  O  O221  1  0.60840214  0.38344041  0.56312221  1
  O  O222  1  0.60254075  0.87417835  0.08269689  1
  O  O223  1  0.62048396  0.88227060  0.57836863  1
  O  O224  1  0.93605156  0.39264579  0.08599909  1
  O  O225  1  0.95484627  0.39763141  0.59319484  1
  O  O226  1  0.93530472  0.87725157  0.08425085  1
  O  O227  1  0.94911751  0.88139388  0.59051021  1
  O  O228  1  0.11697942  0.13108282  0.07544730  1
  O  O229  1  0.09594745  0.14523263  0.57389359  1
  O  O230  1  0.09844268  0.63325417  0.08327092  1
  O  O231  1  0.10845554  0.63697324  0.59051158  1
  O  O232  1  0.43883288  0.11966714  0.07841960  1
  O  O233  1  0.46271856  0.15112172  0.57923551  1
  O  O234  1  0.44897109  0.61964184  0.07286407  1
  O  O235  1  0.44074383  0.64548615  0.58762657  1
  O  O236  1  0.76465391  0.11994462  0.08452690  1
  O  O237  1  0.77638183  0.12073118  0.58906189  1
  O  O238  1  0.77673238  0.63586603  0.08767110  1
  O  O239  1  0.77709334  0.63196098  0.59128873  1
  O  O240  1  0.06357363  0.11598798  0.41344658  1
  O  O241  1  0.05430124  0.09688896  0.93129026  1
  O  O242  1  0.06090164  0.59695420  0.42107671  1
  O  O243  1  0.06919808  0.62556621  0.91901776  1
  O  O244  1  0.39498773  0.11332319  0.41110400  1
  O  O245  1  0.39470056  0.12480094  0.91397567  1
  O  O246  1  0.36516717  0.61454403  0.42193675  1
  O  O247  1  0.39131968  0.61134764  0.91598709  1
  O  O248  1  0.73135864  0.12622091  0.41673566  1
  O  O249  1  0.71439177  0.11233223  0.91573772  1
  O  O250  1  0.70989114  0.59951848  0.43255998  1
  O  O251  1  0.72023679  0.63407416  0.92834920  1
  O  O252  1  0.23808108  0.35402100  0.42282443  1
  O  O253  1  0.23134925  0.37413974  0.91477957  1
  O  O254  1  0.22332097  0.86912436  0.41129631  1
  O  O255  1  0.22727291  0.85014206  0.91369265  1
  O  O256  1  0.56124111  0.36495200  0.41167890  1
  O  O257  1  0.56378164  0.37107332  0.91580416  1
  O  O258  1  0.54768121  0.86387159  0.41282232  1
  O  O259  1  0.56430297  0.88308583  0.91396814  1
  O  O260  1  0.88609747  0.34769357  0.41202789  1
  O  O261  1  0.89886138  0.37017506  0.91966250  1
  O  O262  1  0.90172133  0.86087885  0.42441324  1
  O  O263  1  0.89763000  0.87253296  0.91716784  1
  O  O264  1  0.04905984  0.38558133  0.42167165  1
  O  O265  1  0.06323016  0.39105238  0.91723848  1
  O  O266  1  0.05955516  0.89549674  0.41369906  1
  O  O267  1  0.06514480  0.88045275  0.91747722  1
  O  O268  1  0.39852495  0.36984979  0.41001383  1
  O  O269  1  0.39661620  0.38544985  0.91711461  1
  O  O270  1  0.38623293  0.88614785  0.41203868  1
  O  O271  1  0.39595707  0.87731041  0.91468797  1
  O  O272  1  0.72602741  0.37125398  0.41396610  1
  O  O273  1  0.73162938  0.36676267  0.91911179  1
  O  O274  1  0.70763208  0.89898833  0.42014344  1
  O  O275  1  0.73159141  0.87159280  0.91656009  1
  O  O276  1  0.22949318  0.13111754  0.41117880  1
  O  O277  1  0.23547841  0.14476467  0.92439367  1
  O  O278  1  0.20650345  0.65379569  0.40875422  1
  O  O279  1  0.22979399  0.63519451  0.91547961  1
  O  O280  1  0.56381367  0.12253871  0.41151955  1
  O  O281  1  0.55608956  0.12670949  0.91404675  1
  O  O282  1  0.53792119  0.65089605  0.42748191  1
  O  O283  1  0.55338377  0.63365517  0.91652881  1
  O  O284  1  0.89615252  0.14050118  0.41126525  1
  O  O285  1  0.87543390  0.13058420  0.92160480  1
  O  O286  1  0.88741892  0.64250000  0.43661283  1
  O  O287  1  0.90731313  0.63501170  0.92841803  1
  O  O288  1  0.17083898  -0.00366615  0.08295790  1
  O  O289  1  0.15167288  -0.01535092  0.57870886  1
  O  O290  1  0.16147692  0.50313582  0.08137202  1
  O  O291  1  0.16353115  0.50317751  0.58961155  1
  O  O292  1  0.52847832  -0.00011984  0.08132288  1
  O  O293  1  0.49143293  0.00953294  0.57760309  1
  O  O294  1  0.53385871  0.49657297  0.08139015  1
  O  O295  1  0.50582262  0.51705424  0.57980400  1
  O  O296  1  0.83544206  -0.00777302  0.08189522  1
  O  O297  1  0.85820131  -0.00218336  0.58654976  1
  O  O298  1  0.83821040  0.50387391  0.08814069  1
  O  O299  1  0.84374343  0.50161899  0.59065942  1
  O  O300  1  -0.00569669  0.26174525  0.07573945  1
  O  O301  1  -0.00069181  0.25815038  0.58838927  1
  O  O302  1  0.00655722  0.74993241  0.08609969  1
  O  O303  1  0.00110761  0.74618040  0.59170625  1
  O  O304  1  0.34265027  0.23562215  0.07081814  1
  O  O305  1  0.31391235  0.26037412  0.57701359  1
  O  O306  1  0.35146956  0.76124389  0.07166448  1
  O  O307  1  0.32387314  0.74673946  0.58838397  1
  O  O308  1  0.69254376  0.24847643  0.08341519  1
  O  O309  1  0.67838621  0.23427648  0.57440388  1
  O  O310  1  0.67812872  0.74893838  0.08490035  1
  O  O311  1  0.69272229  0.75236561  0.58738464  1
  O  O312  1  0.16414320  0.00240345  0.41171634  1
  O  O313  1  0.18369702  -0.01568910  0.92391887  1
  O  O314  1  0.18758695  0.50884836  0.41777041  1
  O  O315  1  0.16125656  0.50398425  0.91667397  1
  O  O316  1  0.48801345  -0.00238255  0.41175449  1
  O  O317  1  0.47576958  0.00170675  0.91396555  1
  O  O318  1  0.48733651  0.48861205  0.42017097  1
  O  O319  1  0.49392487  0.49960522  0.91265170  1
  O  O320  1  0.83536892  0.01390653  0.42851380  1
  O  O321  1  0.81191194  -0.00402966  0.91948408  1
  O  O322  1  0.83569503  0.48111688  0.42499403  1
  O  O323  1  0.81456005  0.48910262  0.92945590  1
  O  O324  1  0.33160538  0.24212701  0.41033994  1
  O  O325  1  0.33060206  0.25705342  0.91357282  1
  O  O326  1  0.32085272  0.75451407  0.41269106  1
  O  O327  1  0.33613795  0.74574767  0.91330506  1
  O  O328  1  0.64763755  0.24665706  0.41282818  1
  O  O329  1  0.64605168  0.24575797  0.91586455  1
  O  O330  1  0.66659462  0.76262857  0.42246775  1
  O  O331  1  0.63522506  0.75575963  0.91743892  1
  O  O332  1  1.00306202  0.24836498  0.41403262  1
  O  O333  1  1.00410644  0.25971662  0.92550851  1
  O  O334  1  1.01913521  0.75991337  0.42140077  1
  O  O335  1  0.99415697  0.75380532  0.91867748  1
  O  O336  1  0.20896453  0.08095579  0.19023117  1
  O  O337  1  0.21170653  0.08262499  0.69798272  1
  O  O338  1  0.20591777  0.58631085  0.19097018  1
  O  O339  1  0.20830583  0.58532927  0.69782971  1
  O  O340  1  0.54833001  0.08245668  0.19056874  1
  O  O341  1  0.54200804  0.08331687  0.69173195  1
  O  O342  1  0.54673377  0.58190908  0.19060974  1
  O  O343  1  0.54937297  0.59617568  0.69348723  1
  O  O344  1  0.87844009  0.07335952  0.19076877  1
  O  O345  1  0.88563388  0.07459668  0.69689477  1
  O  O346  1  0.87636818  0.58381914  0.19801984  1
  O  O347  1  0.88011631  0.58538772  0.70019459  1
  O  O348  1  0.03949511  0.33569870  0.19140738  1
  O  O349  1  0.04776190  0.33672772  0.69946485  1
  O  O350  1  0.04045966  0.83373532  0.19530777  1
  O  O351  1  0.04444370  0.82998885  0.70032602  1
  O  O352  1  0.37792815  0.33354088  0.19489457  1
  O  O353  1  0.36696165  0.33515975  0.68940128  1
  O  O354  1  0.37454152  0.83491688  0.18970003  1
  O  O355  1  0.37407781  0.83229970  0.69332582  1
  O  O356  1  0.71265040  0.33305063  0.19397833  1
  O  O357  1  0.71583832  0.33426311  0.70089328  1
  O  O358  1  0.70737778  0.83194754  0.19570947  1
  O  O359  1  0.71316255  0.83513596  0.69557197  1
  O  O360  1  0.20233926  0.41839439  0.18814210  1
  O  O361  1  0.20748679  0.41966175  0.69702843  1
  O  O362  1  0.20681999  0.91464446  0.19259624  1
  O  O363  1  0.20849189  0.91315685  0.69510049  1
  O  O364  1  0.54577477  0.41516954  0.19091304  1
  O  O365  1  0.55384717  0.40981881  0.69443135  1
  O  O366  1  0.54686074  0.91421605  0.19305148  1
  O  O367  1  0.54400778  0.91622695  0.69953226  1
  O  O368  1  0.87447397  0.41972811  0.19781880  1
  O  O369  1  0.87977178  0.42010666  0.69917142  1
  O  O370  1  0.87722633  0.91312798  0.19461084  1
  O  O371  1  0.88175009  0.91543053  0.69880998  1
  O  O372  1  0.04437218  0.16567929  0.19726160  1
  O  O373  1  0.04548273  0.17001642  0.69273474  1
  O  O374  1  0.04233836  0.66840389  0.19626408  1
  O  O375  1  0.04401898  0.66592024  0.70025865  1
  O  O376  1  0.37657814  0.16207281  0.18779183  1
  O  O377  1  0.37611678  0.16645169  0.69776315  1
  O  O378  1  0.37619814  0.66949109  0.19709398  1
  O  O379  1  0.37445697  0.66662806  0.69629036  1
  O  O380  1  0.70117522  0.16570063  0.19157449  1
  O  O381  1  0.70296162  0.16518917  0.69299549  1
  O  O382  1  0.71152922  0.66869519  0.19640110  1
  O  O383  1  0.71213735  0.67063735  0.69760237  1
  O  O384  1  0.12451309  0.08198650  0.30220676  1
  O  O385  1  0.12481566  0.08118998  0.80081061  1
  O  O386  1  0.12370746  0.58341580  0.30540532  1
  O  O387  1  0.12497847  0.58538313  0.80822128  1
  O  O388  1  0.45446548  0.08011778  0.30125353  1
  O  O389  1  0.45472228  0.08093681  0.80289517  1
  O  O390  1  0.45401203  0.58181511  0.29686891  1
  O  O391  1  0.45299892  0.59019074  0.80586511  1
  O  O392  1  0.78767665  0.07793051  0.30875492  1
  O  O393  1  0.78225251  0.07420952  0.80897926  1
  O  O394  1  0.78711090  0.58256980  0.30411845  1
  O  O395  1  0.79000304  0.58561722  0.80337747  1
  O  O396  1  0.28576124  0.32971595  0.30353443  1
  O  O397  1  0.29101820  0.33817646  0.80495101  1
  O  O398  1  0.28768102  0.83504076  0.30160920  1
  O  O399  1  0.29332399  0.83101063  0.80461897  1
  O  O400  1  0.62305751  0.33158059  0.30204994  1
  O  O401  1  0.62614996  0.33156900  0.80722722  1
  O  O402  1  0.62160544  0.83622594  0.30716669  1
  O  O403  1  0.62396729  0.83488470  0.80612871  1
  O  O404  1  0.95930387  0.33293909  0.30586812  1
  O  O405  1  0.96151749  0.33677268  0.81027191  1
  O  O406  1  0.95918425  0.83567286  0.30887137  1
  O  O407  1  0.95849849  0.83383948  0.80863032  1
  O  O408  1  0.12319904  0.41584599  0.29772952  1
  O  O409  1  0.12578169  0.41994699  0.80750096  1
  O  O410  1  0.12343488  0.91795592  0.30256265  1
  O  O411  1  0.12752803  0.91205873  0.80847013  1
  O  O412  1  0.46187580  0.41574391  0.30221379  1
  O  O413  1  0.45194540  0.41312083  0.80554881  1
  O  O414  1  0.45060637  0.91321303  0.30203738  1
  O  O415  1  0.45364978  0.91615348  0.80436494  1
  O  O416  1  0.78957333  0.41400411  0.30699619  1
  O  O417  1  0.79352190  0.41755138  0.81134515  1
  O  O418  1  0.78931759  0.91758250  0.29971628  1
  O  O419  1  0.79077398  0.91459895  0.80748010  1
  O  O420  1  0.28799159  0.15880728  0.30027436  1
  O  O421  1  0.29004915  0.16992442  0.80656835  1
  O  O422  1  0.28634862  0.67030527  0.30418234  1
  O  O423  1  0.29096707  0.66585736  0.80551286  1
  O  O424  1  0.62808019  0.16526165  0.30379467  1
  O  O425  1  0.61999035  0.16469171  0.80427564  1
  O  O426  1  0.61906858  0.66682214  0.29968097  1
  O  O427  1  0.62297597  0.67028989  0.80940814  1
  O  O428  1  0.96719848  0.16688485  0.30427274  1
  O  O429  1  0.96906840  0.16715098  0.80407039  1
  O  O430  1  0.95470129  0.66722917  0.30260015  1
  O  O431  1  0.95996495  0.66802580  0.81154919  1
  F  F432  1  0.04460050  -0.00281627  0.20001967  1
  F  F433  1  0.04598764  -0.00531910  0.70416359  1
  F  F434  1  0.04094685  0.50428461  0.20184915  1
  F  F435  1  0.04620759  0.50302470  0.70714953  1
  F  F436  1  0.37059188  -0.00220077  0.19416929  1
  F  F437  1  0.37716259  -0.00221929  0.70038700  1
  F  F438  1  0.38052194  0.50713325  0.18880496  1
  F  F439  1  0.36347997  0.50278548  0.69717887  1
  F  F440  1  0.71153839  0.00024471  0.19908081  1
  F  F441  1  0.71534936  -0.00207566  0.70301093  1
  F  F442  1  0.71274365  0.49809785  0.20274616  1
  F  F443  1  0.71512723  0.50150875  0.70278785  1
  F  F444  1  0.20192470  0.25021854  0.19243293  1
  F  F445  1  0.21188998  0.25203979  0.70416263  1
  F  F446  1  0.20872761  0.75112066  0.19925143  1
  F  F447  1  0.21096459  0.74861047  0.70448663  1
  F  F448  1  0.55013651  0.25653158  0.19359904  1
  F  F449  1  0.54815312  0.24742395  0.70058697  1
  F  F450  1  0.54445407  0.75328980  0.20003958  1
  F  F451  1  0.54643673  0.75214155  0.70407634  1
  F  F452  1  0.88282022  0.26090088  0.19791793  1
  F  F453  1  0.88723256  0.26238689  0.70242947  1
  F  F454  1  0.87688393  0.75273634  0.20420049  1
  F  F455  1  0.88121416  0.74953255  0.70749925  1
  F  F456  1  0.28616907  -0.00188904  0.29422622  1
  F  F457  1  0.29120253  -0.00341875  0.79780664  1
  F  F458  1  0.28758159  0.50343917  0.29163059  1
  F  F459  1  0.28774606  0.50237208  0.80068988  1
  F  F460  1  0.62353008  0.00084652  0.29810886  1
  F  F461  1  0.61952480  0.00069210  0.79752191  1
  F  F462  1  0.61891917  0.49715152  0.29512233  1
  F  F463  1  0.63482610  0.50166904  0.80352628  1
  F  F464  1  0.95606298  0.00076915  0.29708705  1
  F  F465  1  0.95625471  -0.00384731  0.80301331  1
  F  F466  1  0.95483576  0.49848560  0.29986452  1
  F  F467  1  0.95724858  0.50155060  0.80347345  1
  F  F468  1  0.12355023  0.25098292  0.29484852  1
  F  F469  1  0.12548904  0.25247946  0.79921549  1
  F  F470  1  0.12167888  0.75235262  0.29591677  1
  F  F471  1  0.12424287  0.74887829  0.80213342  1
  F  F472  1  0.46194187  0.24807690  0.29735081  1
  F  F473  1  0.45356335  0.24719802  0.79895713  1
  F  F474  1  0.45309438  0.75434965  0.29548371  1
  F  F475  1  0.45480623  0.75235242  0.79748578  1
  F  F476  1  0.78147076  0.25752088  0.29965675  1
  F  F477  1  0.78392593  0.25730737  0.80570595  1
  F  F478  1  0.78680506  0.75159672  0.30022500  1
  F  F479  1  0.78883175  0.75284728  0.80125584  1
