# generated using pymatgen
data_K24Na3Li5Mg64Fe17Si79(O5F)48
_symmetry_space_group_name_H-M   'P 1'
_cell_length_a   16.08976145
_cell_length_b   18.58025708
_cell_length_c   20.55345646
_cell_angle_alpha   90.01136510
_cell_angle_beta   100.01188604
_cell_angle_gamma   89.99217612
_symmetry_Int_Tables_number   1
_chemical_formula_structural   K24Na3Li5Mg64Fe17Si79(O5F)48
_chemical_formula_sum   'K24 Na3 Li5 Mg64 Fe17 Si79 O240 F48'
_cell_volume   6050.92463087
_cell_formula_units_Z   1
loop_
 _symmetry_equiv_pos_site_id
 _symmetry_equiv_pos_as_xyz
  1  'x, y, z'
loop_
 _atom_site_type_symbol
 _atom_site_label
 _atom_site_symmetry_multiplicity
 _atom_site_fract_x
 _atom_site_fract_y
 _atom_site_fract_z
 _atom_site_occupancy
  K  K0  1  0.00228285  0.00377431  -0.00020158  1
  K  K1  1  -0.01681316  0.00398242  0.49553746  1
  K  K2  1  -0.00101551  0.50434231  0.00457899  1
  K  K3  1  -0.00901236  0.50070645  0.49450708  1
  K  K4  1  0.33651367  -0.00031842  0.00415306  1
  K  K5  1  0.33866383  0.00199093  0.49861687  1
  K  K6  1  0.33215104  0.50022616  0.00589765  1
  K  K7  1  0.33570803  0.49195607  0.49505373  1
  K  K8  1  0.66769553  0.00444848  0.00424962  1
  K  K9  1  0.68525675  0.00703012  0.50718848  1
  K  K10  1  0.67320851  0.50418404  0.00186440  1
  K  K11  1  0.67160912  0.50243340  0.49762049  1
  K  K12  1  0.15686079  0.23829228  0.00291934  1
  K  K13  1  0.16559317  0.24401477  0.50011939  1
  K  K14  1  0.16022001  0.75917939  0.01004249  1
  K  K15  1  0.16349859  0.75469013  0.48968882  1
  K  K16  1  0.50608726  0.24081315  -0.00234293  1
  K  K17  1  0.50154300  0.24237731  0.50442284  1
  K  K18  1  0.51050093  0.75641655  0.01254266  1
  K  K19  1  0.51444051  0.75805805  0.49402865  1
  K  K20  1  0.82579465  0.24345436  0.00175106  1
  K  K21  1  0.84170693  0.24159293  0.50252940  1
  K  K22  1  0.82801340  0.74793627  0.01014855  1
  K  K23  1  0.82049823  0.74905755  0.49051929  1
  Na  Na24  1  0.33001553  0.24892158  0.24623848  1
  Na  Na25  1  0.66380354  0.41755345  0.74533355  1
  Na  Na26  1  0.50172558  0.33070078  0.74344042  1
  Li  Li27  1  0.32618152  0.74799404  0.24579991  1
  Li  Li28  1  0.00020348  0.24698718  0.75310058  1
  Li  Li29  1  0.83892162  0.16182270  0.25449974  1
  Li  Li30  1  -0.00564332  0.08427872  0.25507990  1
  Li  Li31  1  0.17121619  0.67046193  0.24345681  1
  Mg  Mg32  1  0.16542185  0.50326854  0.24767802  1
  Mg  Mg33  1  0.66913702  0.75219880  0.74983082  1
  Mg  Mg34  1  0.00001704  0.75113642  0.75487051  1
  Mg  Mg35  1  0.33483131  0.24976316  0.74601165  1
  Mg  Mg36  1  0.83567884  0.00462809  0.25498602  1
  Mg  Mg37  1  0.00238468  0.75096326  0.25519223  1
  Mg  Mg38  1  0.49987020  0.00042265  0.24521028  1
  Mg  Mg39  1  0.66903692  0.24973140  0.74735233  1
  Mg  Mg40  1  0.66713367  0.24875687  0.24807418  1
  Mg  Mg41  1  0.66553523  0.74881521  0.24983130  1
  Mg  Mg42  1  0.16855671  0.49855842  0.74655161  1
  Mg  Mg43  1  0.50050982  0.49918448  0.74666042  1
  Mg  Mg44  1  -0.00323150  0.24528287  0.25130724  1
  Mg  Mg45  1  0.83418560  0.49758691  0.75011164  1
  Mg  Mg46  1  0.83308548  0.50122639  0.25201289  1
  Mg  Mg47  1  0.33346350  0.75044153  0.75097671  1
  Mg  Mg48  1  0.49968877  -0.00066916  0.74698232  1
  Mg  Mg49  1  0.49757814  0.50166677  0.24976579  1
  Mg  Mg50  1  0.16538953  -0.00030933  0.25464157  1
  Mg  Mg51  1  0.83489485  0.00198472  0.75119012  1
  Mg  Mg52  1  0.16337659  0.00088322  0.75616147  1
  Mg  Mg53  1  0.67168606  0.91641809  0.75089582  1
  Mg  Mg54  1  0.83662800  0.16601178  0.75227318  1
  Mg  Mg55  1  0.00212481  0.41366207  0.74932312  1
  Mg  Mg56  1  0.50140778  0.16540247  0.74726525  1
  Mg  Mg57  1  0.33186528  0.08427808  0.74998267  1
  Mg  Mg58  1  0.67105621  0.08536062  0.74946638  1
  Mg  Mg59  1  0.16580664  0.83526245  0.75566659  1
  Mg  Mg60  1  0.49688189  0.33267158  0.24859143  1
  Mg  Mg61  1  0.00076998  0.91906857  0.25644522  1
  Mg  Mg62  1  0.16844686  0.82971742  0.25259057  1
  Mg  Mg63  1  0.83502732  0.33060253  0.25317854  1
  Mg  Mg64  1  0.33240088  0.91237950  0.24788180  1
  Mg  Mg65  1  0.16399439  0.16711603  0.75267583  1
  Mg  Mg66  1  0.16755804  0.66613674  0.75053232  1
  Mg  Mg67  1  0.33133861  0.91571025  0.75181350  1
  Mg  Mg68  1  0.83448948  0.66498747  0.75109313  1
  Mg  Mg69  1  0.32801626  0.58805574  0.24800158  1
  Mg  Mg70  1  0.50177722  0.66623523  0.74882267  1
  Mg  Mg71  1  0.83510315  0.83668035  0.75218200  1
  Mg  Mg72  1  0.49762339  0.16543848  0.24497160  1
  Mg  Mg73  1  0.33138503  0.08348784  0.24748297  1
  Mg  Mg74  1  0.16771574  0.33243204  0.74694022  1
  Mg  Mg75  1  0.16261274  0.16414983  0.25300862  1
  Mg  Mg76  1  0.66448373  0.91680737  0.24799684  1
  Mg  Mg77  1  0.83448933  0.83526169  0.25239777  1
  Mg  Mg78  1  0.00025002  0.41550788  0.25157108  1
  Mg  Mg79  1  0.66724807  0.58618421  0.25144081  1
  Mg  Mg80  1  0.33622974  0.41490923  0.74398590  1
  Mg  Mg81  1  0.66704997  0.58341886  0.74753864  1
  Mg  Mg82  1  0.49698165  0.66774003  0.24892315  1
  Mg  Mg83  1  0.33465877  0.58407049  0.74865444  1
  Mg  Mg84  1  0.66682751  0.41627373  0.25179582  1
  Mg  Mg85  1  0.16462600  0.33207922  0.24833766  1
  Mg  Mg86  1  0.00092780  0.08816215  0.75421926  1
  Mg  Mg87  1  0.49721090  0.83328011  0.24721633  1
  Mg  Mg88  1  0.00218366  0.58327588  0.75132180  1
  Mg  Mg89  1  0.83261480  0.66553712  0.25462278  1
  Mg  Mg90  1  0.00225383  0.58701740  0.25015988  1
  Mg  Mg91  1  0.50126056  0.83454273  0.74951034  1
  Mg  Mg92  1  0.66609124  0.08547138  0.24612617  1
  Mg  Mg93  1  0.83512524  0.33159892  0.74905082  1
  Mg  Mg94  1  0.00056232  0.91619018  0.75471142  1
  Mg  Mg95  1  0.32938122  0.41738285  0.24745707  1
  Fe  Fe96  1  0.98087815  0.16287096  0.39139422  1
  Fe  Fe97  1  0.18671200  0.58435226  0.10772730  1
  Fe  Fe98  1  0.81177245  0.08676446  0.89435465  1
  Fe  Fe99  1  0.69510630  0.83231112  0.60955083  1
  Fe  Fe100  1  0.68774408  0.17268015  0.60740241  1
  Fe  Fe101  1  0.52221372  0.91720799  0.10686903  1
  Fe  Fe102  1  0.14486248  0.08956746  0.89506480  1
  Fe  Fe103  1  0.14225065  0.91651262  0.89724276  1
  Fe  Fe104  1  0.35560377  0.33162971  0.60296838  1
  Fe  Fe105  1  0.86418366  0.08670947  0.61030389  1
  Fe  Fe106  1  0.80626654  0.91451564  0.89481233  1
  Fe  Fe107  1  0.80826139  0.57958193  0.39416524  1
  Fe  Fe108  1  0.63370006  0.66821516  0.39139830  1
  Fe  Fe109  1  0.97798093  0.83709798  0.39352801  1
  Fe  Fe110  1  0.52170033  0.09074513  0.10417346  1
  Fe  Fe111  1  0.97114540  0.82551047  0.89572571  1
  Fe  Fe112  1  0.69301963  0.66188162  0.11006012  1
  Si  Si113  1  0.30993499  0.82941153  0.38512176  1
  Si  Si114  1  0.97457040  0.17696546  0.89237756  1
  Si  Si115  1  0.15117508  0.91711047  0.39136134  1
  Si  Si116  1  0.86345160  0.41533346  0.11702353  1
  Si  Si117  1  0.18874220  0.42249163  0.60804629  1
  Si  Si118  1  0.97964913  0.34220195  0.88621452  1
  Si  Si119  1  0.30783381  0.82793831  0.88791681  1
  Si  Si120  1  0.35368068  0.33560606  0.11347253  1
  Si  Si121  1  0.63726563  0.33086614  0.38392935  1
  Si  Si122  1  0.86664524  0.91403932  0.61141200  1
  Si  Si123  1  0.47879360  0.42029245  0.88316624  1
  Si  Si124  1  0.02365449  0.83922207  0.11944172  1
  Si  Si125  1  0.18975348  0.08091398  0.11609925  1
  Si  Si126  1  0.52248962  0.91584909  0.61215500  1
  Si  Si127  1  0.35770792  0.83359431  0.61484113  1
  Si  Si128  1  0.19108633  0.58785528  0.61331567  1
  Si  Si129  1  0.69520683  0.17298110  0.11159760  1
  Si  Si130  1  0.03592169  0.16894116  0.61402850  1
  Si  Si131  1  0.47791890  0.58268582  0.88412877  1
  Si  Si132  1  0.14124322  0.58201228  0.38415668  1
  Si  Si133  1  0.46908980  0.08400845  0.38311174  1
  Si  Si134  1  0.52175466  0.08003372  0.61188590  1
  Si  Si135  1  0.80728860  0.58118128  0.88574171  1
  Si  Si136  1  0.86239264  0.58121236  0.61648457  1
  Si  Si137  1  0.14857865  0.57929185  0.88412987  1
  Si  Si138  1  0.46774263  0.91534777  0.88356940  1
  Si  Si139  1  0.02268701  0.67492307  0.11502616  1
  Si  Si140  1  0.35929561  0.66252618  0.11131830  1
  Si  Si141  1  0.15017996  0.41562745  0.88394395  1
  Si  Si142  1  0.86106412  0.92187556  0.11857055  1
  Si  Si143  1  0.63739953  0.84021233  0.38567479  1
  Si  Si144  1  0.02506055  0.66858288  0.61617596  1
  Si  Si145  1  0.47187273  0.41563787  0.38403710  1
  Si  Si146  1  0.63550034  0.16616310  0.88804118  1
  Si  Si147  1  0.15078913  0.07944730  0.39143763  1
  Si  Si148  1  0.80198009  0.08709952  0.38573167  1
  Si  Si149  1  0.30275352  0.66539861  0.38218226  1
  Si  Si150  1  0.69312798  0.33952129  0.11501810  1
  Si  Si151  1  0.64231447  0.66864534  0.88375577  1
  Si  Si152  1  0.69049710  0.34046866  0.60975486  1
  Si  Si153  1  0.35164474  0.16874021  0.10986959  1
  Si  Si154  1  0.31134784  0.17249284  0.88494848  1
  Si  Si155  1  0.80923679  0.40824222  0.38862727  1
  Si  Si156  1  0.02879791  0.33581161  0.61381829  1
  Si  Si157  1  0.80276340  0.92082731  0.38715500  1
  Si  Si158  1  0.86102760  0.41511007  0.61355063  1
  Si  Si159  1  0.02425594  0.16139602  0.11839377  1
  Si  Si160  1  0.18455501  0.41427850  0.11019459  1
  Si  Si161  1  0.35470060  0.16035061  0.61069625  1
  Si  Si162  1  0.14222479  0.41925807  0.38452900  1
  Si  Si163  1  0.98057677  0.33302913  0.38801455  1
  Si  Si164  1  0.52024342  0.41355360  0.11382339  1
  Si  Si165  1  0.64334401  0.33045275  0.88411230  1
  Si  Si166  1  0.98103398  0.65572522  0.88927079  1
  Si  Si167  1  0.52229082  0.58409425  0.61148033  1
  Si  Si168  1  0.80991008  0.41507946  0.88624193  1
  Si  Si169  1  0.69779522  0.83506070  0.11186867  1
  Si  Si170  1  0.46879388  0.91886973  0.38355111  1
  Si  Si171  1  0.63446275  0.16571337  0.38253514  1
  Si  Si172  1  0.35517594  0.82908740  0.11210145  1
  Si  Si173  1  0.02403351  0.32547279  0.11607343  1
  Si  Si174  1  0.47027506  0.08148121  0.88214616  1
  Si  Si175  1  0.52370475  0.42243051  0.60752258  1
  Si  Si176  1  0.19288785  0.91450710  0.61679606  1
  Si  Si177  1  0.19417484  0.07818194  0.61657930  1
  Si  Si178  1  0.98021412  0.66454789  0.39191174  1
  Si  Si179  1  0.30612291  0.16735075  0.38492919  1
  Si  Si180  1  0.35830175  0.66870749  0.61338030  1
  Si  Si181  1  0.31593794  0.33576069  0.88290653  1
  Si  Si182  1  0.85781382  0.08435416  0.11952429  1
  Si  Si183  1  0.46443705  0.58192315  0.38700724  1
  Si  Si184  1  0.30397339  0.33443882  0.38269147  1
  Si  Si185  1  0.19181058  0.91483873  0.11750806  1
  Si  Si186  1  0.52263510  0.57900334  0.11139378  1
  Si  Si187  1  0.03113064  0.83175276  0.61694832  1
  Si  Si188  1  0.31310430  0.66443918  0.88505112  1
  Si  Si189  1  0.63246798  0.83465106  0.88747902  1
  Si  Si190  1  0.86564463  0.58076012  0.11320692  1
  Si  Si191  1  0.69194395  0.66124132  0.61303787  1
  O  O192  1  0.26356378  0.12215938  0.08427924  1
  O  O193  1  0.27877462  0.10049663  0.58646646  1
  O  O194  1  0.28377039  0.61174799  0.07388620  1
  O  O195  1  0.27241196  0.62206900  0.58467143  1
  O  O196  1  0.61184878  0.13562657  0.07041057  1
  O  O197  1  0.59620412  0.10820702  0.57556972  1
  O  O198  1  0.60025586  0.60216128  0.07566501  1
  O  O199  1  0.60767297  0.61111388  0.58568163  1
  O  O200  1  0.93906398  0.11583527  0.08863012  1
  O  O201  1  0.95662359  0.12504445  0.57510486  1
  O  O202  1  0.94064023  0.62366070  0.08407891  1
  O  O203  1  0.94103000  0.62028139  0.58789334  1
  O  O204  1  0.10369214  0.35878959  0.08503916  1
  O  O205  1  0.09849089  0.38151229  0.58025284  1
  O  O206  1  0.10507126  0.87002630  0.08927366  1
  O  O207  1  0.11579489  0.85900861  0.58837236  1
  O  O208  1  0.43701740  0.36401148  0.08229743  1
  O  O209  1  0.45104592  0.36860613  0.57003708  1
  O  O210  1  0.42764926  0.85840522  0.07326046  1
  O  O211  1  0.43799186  0.86463171  0.58494880  1
  O  O212  1  0.76829545  0.38412013  0.08642460  1
  O  O213  1  0.77289169  0.37619116  0.58105023  1
  O  O214  1  0.78487689  0.86693396  0.08856361  1
  O  O215  1  0.79360984  0.85758531  0.57872860  1
  O  O216  1  0.27012985  0.38426181  0.08281107  1
  O  O217  1  0.26135840  0.39213158  0.57054899  1
  O  O218  1  0.26672351  0.87556487  0.08588836  1
  O  O219  1  0.27518622  0.88385946  0.58642001  1
  O  O220  1  0.60283324  0.38072950  0.08502657  1
  O  O221  1  0.61590094  0.40206284  0.58675276  1
  O  O222  1  0.62059761  0.88563424  0.07749332  1
  O  O223  1  0.59787957  0.88852537  0.57615592  1
  O  O224  1  0.93467078  0.36782425  0.08682892  1
  O  O225  1  0.93688335  0.37371290  0.58402280  1
  O  O226  1  0.94563128  0.89394285  0.09091835  1
  O  O227  1  0.95531782  0.88568228  0.58702419  1
  O  O228  1  0.10126567  0.12326168  0.08709549  1
  O  O229  1  0.12048845  0.13557774  0.58715191  1
  O  O230  1  0.09811029  0.64912071  0.07761951  1
  O  O231  1  0.10695647  0.63679234  0.58651281  1
  O  O232  1  0.42399512  0.14625980  0.06875167  1
  O  O233  1  0.43698530  0.12821738  0.58275988  1
  O  O234  1  0.44393499  0.63331782  0.08211486  1
  O  O235  1  0.43945095  0.63656908  0.58398588  1
  O  O236  1  0.77864158  0.13689898  0.08718229  1
  O  O237  1  0.77405188  0.14026037  0.56707767  1
  O  O238  1  0.77750209  0.61241449  0.07426808  1
  O  O239  1  0.77345391  0.62162294  0.58795355  1
  O  O240  1  0.07349090  0.10245644  0.42753397  1
  O  O241  1  0.05333694  0.12869426  0.92979463  1
  O  O242  1  0.06141110  0.60883520  0.41743011  1
  O  O243  1  0.06230874  0.59939561  0.91202349  1
  O  O244  1  0.39538367  0.12572373  0.41519698  1
  O  O245  1  0.38946135  0.11527478  0.91058093  1
  O  O246  1  0.37790668  0.60842137  0.41388691  1
  O  O247  1  0.39501704  0.61298497  0.91323639  1
  O  O248  1  0.71849583  0.12041652  0.41343177  1
  O  O249  1  0.71407734  0.12110239  0.92633660  1
  O  O250  1  0.72267676  0.61390370  0.43471477  1
  O  O251  1  0.73012070  0.62435074  0.91304351  1
  O  O252  1  0.22524270  0.36906117  0.41474046  1
  O  O253  1  0.23315603  0.36558466  0.91345788  1
  O  O254  1  0.23288945  0.86341389  0.41901440  1
  O  O255  1  0.22841269  0.84458951  0.92211474  1
  O  O256  1  0.56031993  0.37252865  0.41301140  1
  O  O257  1  0.56587040  0.37521850  0.91136809  1
  O  O258  1  0.55708943  0.87881871  0.41323631  1
  O  O259  1  0.54277082  0.85821450  0.91167084  1
  O  O260  1  0.89393589  0.35874129  0.41482114  1
  O  O261  1  0.90263641  0.38028761  0.91944103  1
  O  O262  1  0.88172361  0.87339153  0.42392750  1
  O  O263  1  0.87147044  0.83597780  0.92707660  1
  O  O264  1  0.05790998  0.39262370  0.41321736  1
  O  O265  1  0.06666299  0.39026750  0.91397216  1
  O  O266  1  0.07443223  0.89380405  0.42823302  1
  O  O267  1  0.05139526  0.89016036  0.93601039  1
  O  O268  1  0.39261798  0.37735356  0.41244106  1
  O  O269  1  0.39782805  0.38701523  0.91348557  1
  O  O270  1  0.39531313  0.87663754  0.41588354  1
  O  O271  1  0.38532834  0.88553104  0.91239618  1
  O  O272  1  0.72769875  0.36873900  0.41417575  1
  O  O273  1  0.73406798  0.37197656  0.91562933  1
  O  O274  1  0.71706450  0.89336897  0.41353749  1
  O  O275  1  0.70181809  0.88982127  0.92270295  1
  O  O276  1  0.23280326  0.13256538  0.42151290  1
  O  O277  1  0.23387111  0.15672524  0.92229311  1
  O  O278  1  0.22027085  0.63619118  0.41315879  1
  O  O279  1  0.22949723  0.63244807  0.91224893  1
  O  O280  1  0.55673768  0.12681410  0.41202574  1
  O  O281  1  0.55005780  0.13253649  0.91257501  1
  O  O282  1  0.53906137  0.63168162  0.42500853  1
  O  O283  1  0.56291574  0.63024356  0.91218483  1
  O  O284  1  0.88188650  0.13328286  0.42158363  1
  O  O285  1  0.89113521  0.15977670  0.92411092  1
  O  O286  1  0.90526345  0.63371801  0.42758677  1
  O  O287  1  0.89935293  0.61692895  0.91595682  1
  O  O288  1  0.18131400  -0.00219658  0.08827408  1
  O  O289  1  0.17036562  -0.00415996  0.58787237  1
  O  O290  1  0.15884992  0.48958509  0.07329074  1
  O  O291  1  0.17158306  0.50755814  0.58305102  1
  O  O292  1  0.49901328  0.00354204  0.06292080  1
  O  O293  1  0.49282603  -0.00271636  0.58669275  1
  O  O294  1  0.49735811  0.49491934  0.08474017  1
  O  O295  1  0.49905728  0.50555734  0.57734484  1
  O  O296  1  0.83836240  0.00276815  0.08820057  1
  O  O297  1  0.84731221  -0.00810581  0.57696043  1
  O  O298  1  0.87040017  0.49605267  0.08671760  1
  O  O299  1  0.85807814  0.49909799  0.58639099  1
  O  O300  1  0.01156117  0.24345907  0.08633650  1
  O  O301  1  0.02926309  0.25353525  0.58594813  1
  O  O302  1  -0.00169057  0.75867038  0.08941384  1
  O  O303  1  0.00998877  0.75000905  0.58679199  1
  O  O304  1  0.32748607  0.25382019  0.08863128  1
  O  O305  1  0.32888642  0.23575812  0.57333985  1
  O  O306  1  0.33674457  0.74551807  0.08537946  1
  O  O307  1  0.33934453  0.75118364  0.58551491  1
  O  O308  1  0.69265397  0.25853262  0.08422627  1
  O  O309  1  0.66065058  0.26680509  0.57080776  1
  O  O310  1  0.68288824  0.75585079  0.07712554  1
  O  O311  1  0.67342671  0.73754058  0.57693055  1
  O  O312  1  0.18496414  -0.00190358  0.41695069  1
  O  O313  1  0.18452101  0.00335423  0.93285057  1
  O  O314  1  0.16635832  0.50023720  0.41472240  1
  O  O315  1  0.17605823  0.49784699  0.91126467  1
  O  O316  1  0.47273209  0.00175339  0.41339819  1
  O  O317  1  0.48702071  -0.00177277  0.91003925  1
  O  O318  1  0.47952889  0.49728906  0.41422168  1
  O  O319  1  0.49573741  0.50187351  0.91559146  1
  O  O320  1  0.81437374  0.00414748  0.41497282  1
  O  O321  1  0.84627548  0.00012681  0.93461949  1
  O  O322  1  0.82580081  0.48369819  0.42695220  1
  O  O323  1  0.80792134  0.49866196  0.91568170  1
  O  O324  1  0.31819066  0.25164768  0.41033309  1
  O  O325  1  0.34431889  0.25499361  0.90966549  1
  O  O326  1  0.32467497  0.74669803  0.41481766  1
  O  O327  1  0.34022113  0.74513802  0.91212918  1
  O  O328  1  0.64006321  0.24831489  0.41233208  1
  O  O329  1  0.64376698  0.25020085  0.91853069  1
  O  O330  1  0.65188803  0.76390647  0.42309346  1
  O  O331  1  0.65062719  0.75009649  0.91399734  1
  O  O332  1  1.01079840  0.25815786  0.42350984  1
  O  O333  1  0.99963409  0.26233683  0.91707882  1
  O  O334  1  1.00865897  0.74305519  0.42307509  1
  O  O335  1  1.00736036  0.73000486  0.92563441  1
  O  O336  1  0.20831879  0.08221549  0.19629470  1
  O  O337  1  0.21206197  0.07954837  0.69680820  1
  O  O338  1  0.21024164  0.58023028  0.19770076  1
  O  O339  1  0.21104781  0.58619405  0.69391284  1
  O  O340  1  0.54339839  0.08446445  0.19679716  1
  O  O341  1  0.54151257  0.08090357  0.69294198  1
  O  O342  1  0.54138285  0.57938434  0.19226436  1
  O  O343  1  0.53978488  0.58617947  0.69217959  1
  O  O344  1  0.87397618  0.08197366  0.19815117  1
  O  O345  1  0.88264547  0.08496614  0.70223844  1
  O  O346  1  0.87888357  0.58206533  0.19389581  1
  O  O347  1  0.88091471  0.58226288  0.69699639  1
  O  O348  1  0.04154422  0.33204558  0.19609867  1
  O  O349  1  0.04901827  0.34079250  0.69324042  1
  O  O350  1  0.04419693  0.83674401  0.19937543  1
  O  O351  1  0.04835837  0.82856571  0.69702944  1
  O  O352  1  0.37810143  0.34254789  0.19250735  1
  O  O353  1  0.36613632  0.33236407  0.69296127  1
  O  O354  1  0.37729794  0.83540061  0.19196587  1
  O  O355  1  0.37551514  0.83200595  0.69539306  1
  O  O356  1  0.70930155  0.33736297  0.19510852  1
  O  O357  1  0.71661513  0.32965104  0.68890764  1
  O  O358  1  0.71138242  0.83351715  0.19358544  1
  O  O359  1  0.71170463  0.83181242  0.70123055  1
  O  O360  1  0.20508996  0.41544638  0.19113599  1
  O  O361  1  0.20935391  0.41998425  0.68928605  1
  O  O362  1  0.20955059  0.91654787  0.19770167  1
  O  O363  1  0.21262123  0.91385653  0.69697659  1
  O  O364  1  0.54129445  0.41494093  0.19418365  1
  O  O365  1  0.53245338  0.42724734  0.68604078  1
  O  O366  1  0.54309177  0.91665254  0.19934779  1
  O  O367  1  0.54123306  0.91389975  0.69325877  1
  O  O368  1  0.87747678  0.41568024  0.19724039  1
  O  O369  1  0.87894628  0.41651894  0.69397034  1
  O  O370  1  0.87681369  0.92044621  0.19875772  1
  O  O371  1  0.88084833  0.91530489  0.69269171  1
  O  O372  1  0.04472616  0.16643191  0.19742013  1
  O  O373  1  0.04831033  0.16656853  0.69381216  1
  O  O374  1  0.03754111  0.66988698  0.19506296  1
  O  O375  1  0.04501238  0.66579597  0.69677176  1
  O  O376  1  0.37795092  0.15919105  0.18925291  1
  O  O377  1  0.37406623  0.16343355  0.69159299  1
  O  O378  1  0.37924521  0.65981841  0.19138282  1
  O  O379  1  0.37623168  0.66758723  0.69402548  1
  O  O380  1  0.70273485  0.17046131  0.19110116  1
  O  O381  1  0.71266448  0.16748494  0.69937647  1
  O  O382  1  0.71309391  0.66619224  0.20086722  1
  O  O383  1  0.71003074  0.66524313  0.69418255  1
  O  O384  1  0.13213612  0.08218258  0.31143625  1
  O  O385  1  0.12322500  0.08549461  0.80249078  1
  O  O386  1  0.11925184  0.57807334  0.30506286  1
  O  O387  1  0.12874841  0.58161045  0.80339780  1
  O  O388  1  0.45209541  0.08376407  0.30312409  1
  O  O389  1  0.45463195  0.08042444  0.80155479  1
  O  O390  1  0.45323573  0.58208471  0.30615861  1
  O  O391  1  0.45670783  0.58542474  0.80362487  1
  O  O392  1  0.78367340  0.08444072  0.30573388  1
  O  O393  1  0.78845475  0.08268568  0.80245088  1
  O  O394  1  0.78901559  0.58029479  0.30174846  1
  O  O395  1  0.79105163  0.58228010  0.80545230  1
  O  O396  1  0.28333505  0.34061873  0.30359007  1
  O  O397  1  0.29190420  0.33766342  0.80287245  1
  O  O398  1  0.29000596  0.83503361  0.30603127  1
  O  O399  1  0.29088056  0.82994834  0.80631081  1
  O  O400  1  0.62068704  0.33379114  0.30344799  1
  O  O401  1  0.63050716  0.32590216  0.80610360  1
  O  O402  1  0.62173755  0.83457855  0.30503385  1
  O  O403  1  0.61908876  0.83272317  0.80629759  1
  O  O404  1  0.95976624  0.33402777  0.30701124  1
  O  O405  1  0.95738782  0.34213223  0.80677545  1
  O  O406  1  0.95532381  0.83451228  0.30231511  1
  O  O407  1  0.95612048  0.83101856  0.80198736  1
  O  O408  1  0.12353030  0.41706947  0.30405354  1
  O  O409  1  0.12923729  0.41702904  0.80348421  1
  O  O410  1  0.12832815  0.91539949  0.31074426  1
  O  O411  1  0.12340627  0.91560524  0.80340668  1
  O  O412  1  0.45502522  0.41587058  0.30373500  1
  O  O413  1  0.45393372  0.42568375  0.80427773  1
  O  O414  1  0.45190395  0.91837450  0.30369954  1
  O  O415  1  0.45342896  0.91504900  0.80272208  1
  O  O416  1  0.79049135  0.41409447  0.30749890  1
  O  O417  1  0.79972649  0.41708163  0.80702002  1
  O  O418  1  0.78796155  0.91791448  0.30620669  1
  O  O419  1  0.79050990  0.91812713  0.80148170  1
  O  O420  1  0.28532099  0.15982665  0.30593714  1
  O  O421  1  0.29051066  0.16837777  0.80394279  1
  O  O422  1  0.28987043  0.66638651  0.30367728  1
  O  O423  1  0.29257594  0.66447611  0.80415928  1
  O  O424  1  0.61986799  0.16808852  0.30248630  1
  O  O425  1  0.62118998  0.16496565  0.80739460  1
  O  O426  1  0.61737895  0.66568254  0.29929537  1
  O  O427  1  0.62393130  0.66763922  0.80317861  1
  O  O428  1  0.95719799  0.16843119  0.30327612  1
  O  O429  1  0.95916031  0.16950152  0.81208283  1
  O  O430  1  0.95820835  0.66441553  0.31020741  1
  O  O431  1  0.95971775  0.66089251  0.80804123  1
  F  F432  1  0.04858076  -0.00332008  0.20684872  1
  F  F433  1  0.04549162  -0.00132803  0.70291660  1
  F  F434  1  0.04229213  0.49821878  0.20104593  1
  F  F435  1  0.04685881  0.50133730  0.70141015  1
  F  F436  1  0.37557772  -0.00090467  0.19981287  1
  F  F437  1  0.37621200  -0.00276019  0.70121985  1
  F  F438  1  0.37765012  0.49988793  0.20196479  1
  F  F439  1  0.37608818  0.50492447  0.69847915  1
  F  F440  1  0.71274879  0.00040957  0.20265553  1
  F  F441  1  0.70948459  -0.00052882  0.69914429  1
  F  F442  1  0.71092807  0.49648286  0.20183242  1
  F  F443  1  0.71997113  0.51019582  0.69811736  1
  F  F444  1  0.19631283  0.24785009  0.19854730  1
  F  F445  1  0.21196843  0.24894389  0.70075572  1
  F  F446  1  0.20761633  0.75559266  0.19787155  1
  F  F447  1  0.21313374  0.74891570  0.70309311  1
  F  F448  1  0.54456600  0.25272751  0.19811888  1
  F  F449  1  0.55099761  0.23775191  0.69524787  1
  F  F450  1  0.54459001  0.75098751  0.19821698  1
  F  F451  1  0.54433788  0.74976859  0.70122403  1
  F  F452  1  0.88018638  0.25878063  0.19867511  1
  F  F453  1  0.88148520  0.25110765  0.70430554  1
  F  F454  1  0.87846869  0.74788550  0.20582175  1
  F  F455  1  0.88107043  0.74397299  0.70321926  1
  F  F456  1  0.29034014  -0.00118318  0.29718850  1
  F  F457  1  0.29018945  -0.00076867  0.79910204  1
  F  F458  1  0.28731046  0.49786804  0.29799427  1
  F  F459  1  0.28862732  0.50060330  0.79448468  1
  F  F460  1  0.62048444  0.00199925  0.29811301  1
  F  F461  1  0.61830899  -0.00110862  0.79490766  1
  F  F462  1  0.61866570  0.49810442  0.29753730  1
  F  F463  1  0.61640204  0.51171268  0.79970874  1
  F  F464  1  0.95297822  -0.00295791  0.30597786  1
  F  F465  1  0.95749539  -0.00062245  0.80046789  1
  F  F466  1  0.95497913  0.49948702  0.29788326  1
  F  F467  1  0.95826979  0.49953447  0.79741105  1
  F  F468  1  0.12121752  0.25133462  0.30072547  1
  F  F469  1  0.12793112  0.25463377  0.79855717  1
  F  F470  1  0.12076945  0.75332032  0.30282257  1
  F  F471  1  0.12423007  0.74560104  0.79989472  1
  F  F472  1  0.46409204  0.24910239  0.29819246  1
  F  F473  1  0.45036246  0.23925963  0.79787646  1
  F  F474  1  0.45818797  0.75093419  0.29667300  1
  F  F475  1  0.45491631  0.74865497  0.79665293  1
  F  F476  1  0.78225552  0.25531346  0.29921647  1
  F  F477  1  0.79022741  0.25328330  0.79956301  1
  F  F478  1  0.78750016  0.75246439  0.30100598  1
  F  F479  1  0.78844436  0.74395737  0.79919258  1
