# generated using pymatgen
data_K24Na3Li5Mg64Fe17Si79(O5F)48
_symmetry_space_group_name_H-M   'P 1'
_cell_length_a   16.08645180
_cell_length_b   18.57532480
_cell_length_c   20.54741348
_cell_angle_alpha   90.01525135
_cell_angle_beta   100.01099164
_cell_angle_gamma   89.96892845
_symmetry_Int_Tables_number   1
_chemical_formula_structural   K24Na3Li5Mg64Fe17Si79(O5F)48
_chemical_formula_sum   'K24 Na3 Li5 Mg64 Fe17 Si79 O240 F48'
_cell_volume   6046.31164732
_cell_formula_units_Z   1
loop_
 _symmetry_equiv_pos_site_id
 _symmetry_equiv_pos_as_xyz
  1  'x, y, z'
loop_
 _atom_site_type_symbol
 _atom_site_label
 _atom_site_symmetry_multiplicity
 _atom_site_fract_x
 _atom_site_fract_y
 _atom_site_fract_z
 _atom_site_occupancy
  K  K0  1  0.00108702  -0.00284214  0.00079285  1
  K  K1  1  0.00450646  0.00566235  0.48889636  1
  K  K2  1  -0.00028250  0.49425033  0.00199931  1
  K  K3  1  -0.01540335  0.49730580  0.49659838  1
  K  K4  1  0.33390305  0.00096639  0.00396289  1
  K  K5  1  0.32926770  -0.00918795  0.48964187  1
  K  K6  1  0.33720069  0.50843974  -0.00213532  1
  K  K7  1  0.33688051  0.49935054  0.49980184  1
  K  K8  1  0.67257266  -0.00105818  0.00922446  1
  K  K9  1  0.66335122  -0.00226789  0.49360753  1
  K  K10  1  0.65924824  0.49214655  0.00086397  1
  K  K11  1  0.66986179  0.49954419  0.48689576  1
  K  K12  1  0.15389701  0.24819544  -0.00421664  1
  K  K13  1  0.15519463  0.25003809  0.49332706  1
  K  K14  1  0.16840719  0.74734740  0.00407457  1
  K  K15  1  0.16397850  0.75039797  0.49071937  1
  K  K16  1  0.51671056  0.25004993  0.00335011  1
  K  K17  1  0.50730771  0.25159021  0.49795198  1
  K  K18  1  0.50260528  0.75119483  0.00726559  1
  K  K19  1  0.50359705  0.74425803  0.48323298  1
  K  K20  1  0.83249855  0.25133883  0.00497131  1
  K  K21  1  0.83643522  0.26234133  0.49344067  1
  K  K22  1  0.82909803  0.75480830  0.00257160  1
  K  K23  1  0.82426331  0.74223117  0.48810993  1
  Na  Na24  1  0.83511106  0.50036970  0.25333259  1
  Na  Na25  1  0.49674049  0.66774127  0.24835914  1
  Na  Na26  1  0.33117566  0.57735763  0.75130533  1
  Li  Li27  1  -0.00551746  0.24879062  0.25374779  1
  Li  Li28  1  0.49887771  -0.00161689  0.24670377  1
  Li  Li29  1  0.16987117  0.83463303  0.25487673  1
  Li  Li30  1  0.33845222  0.58675631  0.24798479  1
  Li  Li31  1  0.33319810  0.41929618  0.75032216  1
  Mg  Mg32  1  0.83274908  -0.00043596  0.75309463  1
  Mg  Mg33  1  -0.00082644  0.74875424  0.75011343  1
  Mg  Mg34  1  0.66469406  0.25026022  0.75044319  1
  Mg  Mg35  1  0.16705849  -0.00192298  0.25693021  1
  Mg  Mg36  1  0.00663826  0.75036358  0.25238077  1
  Mg  Mg37  1  0.17064957  0.50051304  0.24979795  1
  Mg  Mg38  1  0.49760129  0.50170254  0.25038397  1
  Mg  Mg39  1  0.33229360  0.75181530  0.25081757  1
  Mg  Mg40  1  0.49819231  0.00153694  0.74946482  1
  Mg  Mg41  1  0.33335303  0.25257688  0.74841444  1
  Mg  Mg42  1  0.66753732  0.24886687  0.25105752  1
  Mg  Mg43  1  0.83322511  0.50148361  0.74771883  1
  Mg  Mg44  1  0.49488318  0.49677707  0.74919350  1
  Mg  Mg45  1  0.16777228  0.49953165  0.75052011  1
  Mg  Mg46  1  -0.00125815  0.25036692  0.75082166  1
  Mg  Mg47  1  0.33052167  0.74799427  0.74833213  1
  Mg  Mg48  1  0.66419297  0.75085151  0.75029085  1
  Mg  Mg49  1  0.83477913  0.00005153  0.24869316  1
  Mg  Mg50  1  0.16563552  0.00217839  0.75188585  1
  Mg  Mg51  1  0.66603228  0.75011130  0.24516520  1
  Mg  Mg52  1  0.33250537  0.24950058  0.25256071  1
  Mg  Mg53  1  0.66793529  0.91631623  0.75163178  1
  Mg  Mg54  1  0.83356141  0.66586016  0.24781805  1
  Mg  Mg55  1  0.49836273  0.83387770  0.74885349  1
  Mg  Mg56  1  0.66493073  0.08247837  0.25021388  1
  Mg  Mg57  1  0.16342326  0.33210638  0.25241030  1
  Mg  Mg58  1  0.83352944  0.83387866  0.24797071  1
  Mg  Mg59  1  0.83529713  0.83519829  0.75270174  1
  Mg  Mg60  1  0.83345956  0.33655501  0.74982350  1
  Mg  Mg61  1  0.17375285  0.66767446  0.24884931  1
  Mg  Mg62  1  -0.00058717  0.41634102  0.74893400  1
  Mg  Mg63  1  0.00072782  0.08629135  0.25430810  1
  Mg  Mg64  1  0.33260115  0.91680106  0.25250769  1
  Mg  Mg65  1  0.49550855  0.66387940  0.74894073  1
  Mg  Mg66  1  0.33410764  0.08233652  0.25282469  1
  Mg  Mg67  1  0.83538797  0.33287650  0.25209916  1
  Mg  Mg68  1  0.00394870  0.58353988  0.25002674  1
  Mg  Mg69  1  0.00029665  0.41574387  0.25242043  1
  Mg  Mg70  1  0.00111676  0.58454558  0.74840395  1
  Mg  Mg71  1  0.00498250  0.91470557  0.25197526  1
  Mg  Mg72  1  0.50192063  0.16714227  0.75033684  1
  Mg  Mg73  1  0.16955323  0.33590851  0.74776351  1
  Mg  Mg74  1  0.66516666  0.41537536  0.25131424  1
  Mg  Mg75  1  0.33357976  0.41755272  0.25263229  1
  Mg  Mg76  1  0.66575532  0.58377329  0.24812572  1
  Mg  Mg77  1  0.16648652  0.66309569  0.74979692  1
  Mg  Mg78  1  0.50075140  0.33279755  0.25223406  1
  Mg  Mg79  1  0.50030749  0.33471915  0.75059024  1
  Mg  Mg80  1  0.33296067  0.08628925  0.75028874  1
  Mg  Mg81  1  0.66659014  0.41528728  0.74972406  1
  Mg  Mg82  1  0.16432958  0.16714667  0.25722426  1
  Mg  Mg83  1  0.83406365  0.66728162  0.74824394  1
  Mg  Mg84  1  0.00214057  0.91589923  0.75205391  1
  Mg  Mg85  1  0.66827472  0.08441024  0.75356955  1
  Mg  Mg86  1  0.16594549  0.16643521  0.75176921  1
  Mg  Mg87  1  0.83450220  0.16668192  0.25055935  1
  Mg  Mg88  1  0.49827134  0.83681999  0.24785938  1
  Mg  Mg89  1  0.33242228  0.91657645  0.74831149  1
  Mg  Mg90  1  0.83491770  0.16633615  0.75324856  1
  Mg  Mg91  1  0.00102445  0.08559585  0.75300794  1
  Mg  Mg92  1  0.66341112  0.91645524  0.24726704  1
  Mg  Mg93  1  0.66409275  0.58432849  0.74856980  1
  Mg  Mg94  1  0.50045397  0.16306245  0.25200338  1
  Mg  Mg95  1  0.16819560  0.83340237  0.74993752  1
  Fe  Fe96  1  0.14210402  0.08453720  0.89291608  1
  Fe  Fe97  1  0.81177262  0.91294605  0.89124255  1
  Fe  Fe98  1  0.96648615  0.16903044  0.89286339  1
  Fe  Fe99  1  0.97482381  0.66417337  0.88846906  1
  Fe  Fe100  1  0.64725316  0.33425271  0.89093723  1
  Fe  Fe101  1  0.52820674  0.57929261  0.10744295  1
  Fe  Fe102  1  0.64273902  0.32746175  0.39187611  1
  Fe  Fe103  1  0.30783654  0.67028922  0.88927613  1
  Fe  Fe104  1  0.85687504  0.41797345  0.60753211  1
  Fe  Fe105  1  0.14581215  0.91216255  0.39346129  1
  Fe  Fe106  1  0.69441212  0.16477202  0.11159967  1
  Fe  Fe107  1  0.14072518  0.57842404  0.89114237  1
  Fe  Fe108  1  0.64108304  0.66838742  0.38891560  1
  Fe  Fe109  1  0.97253634  0.17052436  0.39208796  1
  Fe  Fe110  1  0.35551830  0.67022561  0.10852256  1
  Fe  Fe111  1  0.68852282  0.83362219  0.10815738  1
  Fe  Fe112  1  0.64282165  0.16163502  0.89018832  1
  Si  Si113  1  0.68897697  0.83580866  0.61330828  1
  Si  Si114  1  0.86748203  0.08086036  0.11355146  1
  Si  Si115  1  0.35970263  0.33430919  0.61345707  1
  Si  Si116  1  0.46986184  0.08407960  0.38736039  1
  Si  Si117  1  0.19362323  0.57751749  0.11408274  1
  Si  Si118  1  0.86281942  0.41772038  0.11655512  1
  Si  Si119  1  0.35519585  0.32951539  0.11711095  1
  Si  Si120  1  0.51878803  0.91981972  0.11242931  1
  Si  Si121  1  0.80994706  0.58624507  0.38659726  1
  Si  Si122  1  0.69378489  0.33747510  0.11458999  1
  Si  Si123  1  0.85827817  0.91633806  0.61370012  1
  Si  Si124  1  0.85806427  0.08254344  0.61405966  1
  Si  Si125  1  0.80496903  0.07934244  0.88847319  1
  Si  Si126  1  0.47525154  0.57819952  0.88447690  1
  Si  Si127  1  0.19173531  0.92250290  0.11953082  1
  Si  Si128  1  0.19009595  0.41289745  0.11602328  1
  Si  Si129  1  0.97746272  0.34004169  0.88751837  1
  Si  Si130  1  0.02955448  0.33094250  0.61031910  1
  Si  Si131  1  0.46997591  0.91992207  0.88221160  1
  Si  Si132  1  0.02555965  0.83577481  0.61292805  1
  Si  Si133  1  0.35853998  0.16875030  0.61240025  1
  Si  Si134  1  0.52314410  0.58361796  0.61188638  1
  Si  Si135  1  0.35136774  0.84008013  0.11297228  1
  Si  Si136  1  0.14741333  0.91527068  0.88587899  1
  Si  Si137  1  0.14653144  0.08438464  0.39462108  1
  Si  Si138  1  0.19095531  0.08489868  0.12035626  1
  Si  Si139  1  0.85581998  0.59027558  0.60857466  1
  Si  Si140  1  0.14542456  0.58561185  0.38488423  1
  Si  Si141  1  0.47380551  0.41401117  0.88591230  1
  Si  Si142  1  0.52398533  0.41704343  0.61279906  1
  Si  Si143  1  0.03370062  0.66621285  0.11488809  1
  Si  Si144  1  0.31077836  0.33125592  0.88142612  1
  Si  Si145  1  0.14926318  0.41136690  0.88471321  1
  Si  Si146  1  0.02578825  0.67007916  0.60976557  1
  Si  Si147  1  0.52194496  0.91684900  0.61252233  1
  Si  Si148  1  0.80911362  0.91524237  0.38435708  1
  Si  Si149  1  0.47097463  0.57681085  0.38870622  1
  Si  Si150  1  0.03027135  0.16795227  0.12019043  1
  Si  Si151  1  0.64123218  0.15653379  0.38991770  1
  Si  Si152  1  0.97218682  0.83008915  0.38871434  1
  Si  Si153  1  0.98458536  0.83108928  0.88768972  1
  Si  Si154  1  0.47270409  0.91889934  0.38482048  1
  Si  Si155  1  0.31149993  0.83539207  0.88393870  1
  Si  Si156  1  0.19245979  0.91804546  0.61372739  1
  Si  Si157  1  0.46940806  0.08440591  0.88527518  1
  Si  Si158  1  0.51927168  0.41134120  0.11402110  1
  Si  Si159  1  0.30918419  0.17014866  0.88557129  1
  Si  Si160  1  0.19282364  0.41658639  0.61182595  1
  Si  Si161  1  0.18733366  0.58246377  0.60978553  1
  Si  Si162  1  0.31610308  0.82811049  0.38994055  1
  Si  Si163  1  0.80746518  0.41741036  0.38738563  1
  Si  Si164  1  0.02583371  0.16436792  0.61358962  1
  Si  Si165  1  0.86999004  0.58540791  0.11454789  1
  Si  Si166  1  0.19384631  0.08381184  0.61344219  1
  Si  Si167  1  0.35649480  0.66677509  0.61118604  1
  Si  Si168  1  0.31046943  0.66414161  0.38593542  1
  Si  Si169  1  0.69955000  0.66048688  0.10712037  1
  Si  Si170  1  0.64020609  0.84066918  0.38713231  1
  Si  Si171  1  0.97664087  0.34095822  0.38916504  1
  Si  Si172  1  0.81146900  0.42757533  0.88612581  1
  Si  Si173  1  0.02505755  0.33223296  0.11758677  1
  Si  Si174  1  0.68768494  0.67023203  0.61274069  1
  Si  Si175  1  0.97765712  0.66403026  0.38487792  1
  Si  Si176  1  0.80738006  0.07865451  0.38812925  1
  Si  Si177  1  0.52017544  0.08481316  0.11422326  1
  Si  Si178  1  0.63308104  0.66580367  0.88315341  1
  Si  Si179  1  0.30903353  0.17032208  0.38893412  1
  Si  Si180  1  0.14135755  0.42113533  0.38577945  1
  Si  Si181  1  0.63336959  0.83304604  0.88590727  1
  Si  Si182  1  0.35675801  0.83166855  0.61159725  1
  Si  Si183  1  0.69101214  0.16320421  0.61444683  1
  Si  Si184  1  0.68761207  0.32998427  0.61130315  1
  Si  Si185  1  0.86737295  0.91478857  0.11331428  1
  Si  Si186  1  0.47034140  0.41330198  0.39023062  1
  Si  Si187  1  0.52268828  0.08235673  0.61304221  1
  Si  Si188  1  0.35495012  0.16560624  0.11754779  1
  Si  Si189  1  0.03222924  0.83133342  0.11784474  1
  Si  Si190  1  0.30314899  0.33502238  0.38689609  1
  Si  Si191  1  0.80186700  0.59212988  0.88323955  1
  O  O192  1  0.27327642  0.11394345  0.09005653  1
  O  O193  1  0.26905527  0.12650871  0.58329090  1
  O  O194  1  0.27005637  0.60135186  0.07830332  1
  O  O195  1  0.26698849  0.62408322  0.58272882  1
  O  O196  1  0.59425148  0.11434267  0.07721180  1
  O  O197  1  0.60379619  0.11702833  0.58491200  1
  O  O198  1  0.62919546  0.60206138  0.07642145  1
  O  O199  1  0.59985479  0.62630227  0.58316733  1
  O  O200  1  0.94985352  0.11817349  0.08836185  1
  O  O201  1  0.93626856  0.12193703  0.58513610  1
  O  O202  1  0.94910323  0.62000525  0.08347926  1
  O  O203  1  0.93218887  0.63577217  0.58070045  1
  O  O204  1  0.10598173  0.36410531  0.08620607  1
  O  O205  1  0.11012932  0.36705430  0.58075861  1
  O  O206  1  0.11107057  0.87033042  0.08986681  1
  O  O207  1  0.10096308  0.88025576  0.58455968  1
  O  O208  1  0.43926259  0.35424866  0.08832025  1
  O  O209  1  0.43462794  0.37589125  0.58205441  1
  O  O210  1  0.43242710  0.87357622  0.08360777  1
  O  O211  1  0.43433702  0.87289300  0.58257508  1
  O  O212  1  0.77024955  0.38260724  0.08667435  1
  O  O213  1  0.75911248  0.36411358  0.57491639  1
  O  O214  1  0.78226770  0.87548067  0.07770190  1
  O  O215  1  0.76785760  0.87483151  0.58471744  1
  O  O216  1  0.27172653  0.37896989  0.08730204  1
  O  O217  1  0.27254295  0.37845980  0.58317889  1
  O  O218  1  0.27294466  0.89781763  0.08680109  1
  O  O219  1  0.26790832  0.87528066  0.58400701  1
  O  O220  1  0.60382083  0.37952939  0.08764077  1
  O  O221  1  0.59717328  0.37217091  0.58332829  1
  O  O222  1  0.59299045  0.89081302  0.07453264  1
  O  O223  1  0.60188004  0.88109780  0.58306125  1
  O  O224  1  0.93870857  0.37665833  0.08457612  1
  O  O225  1  0.94596776  0.37230371  0.57415900  1
  O  O226  1  0.94693759  0.87579666  0.08541005  1
  O  O227  1  0.93439705  0.87532507  0.58325001  1
  O  O228  1  0.11301029  0.13883461  0.09023089  1
  O  O229  1  0.10193058  0.12098590  0.58454586  1
  O  O230  1  0.11066929  0.62885473  0.08486426  1
  O  O231  1  0.09892411  0.62631565  0.57718858  1
  O  O232  1  0.43447170  0.13459725  0.08661090  1
  O  O233  1  0.43607610  0.12784802  0.58288441  1
  O  O234  1  0.44805141  0.64602257  0.07114509  1
  O  O235  1  0.43296670  0.62448957  0.58121190  1
  O  O236  1  0.78339534  0.12094305  0.07697537  1
  O  O237  1  0.76866360  0.12440035  0.58375914  1
  O  O238  1  0.78778701  0.63238463  0.08176078  1
  O  O239  1  0.76775963  0.63731438  0.58314375  1
  O  O240  1  0.07171547  0.11914073  0.42830698  1
  O  O241  1  0.05128138  0.10728233  0.93271433  1
  O  O242  1  0.06607490  0.62114493  0.41493336  1
  O  O243  1  0.04102227  0.58888617  0.92434572  1
  O  O244  1  0.39680880  0.12751734  0.42004992  1
  O  O245  1  0.38061730  0.10694899  0.91018846  1
  O  O246  1  0.38813638  0.61063259  0.41792326  1
  O  O247  1  0.39323842  0.60110687  0.91390230  1
  O  O248  1  0.71761235  0.09761535  0.41379897  1
  O  O249  1  0.71294842  0.08103247  0.91157318  1
  O  O250  1  0.74374135  0.62223918  0.42817015  1
  O  O251  1  0.71259547  0.61211084  0.90928136  1
  O  O252  1  0.22274042  0.36951802  0.41644820  1
  O  O253  1  0.22310922  0.34922655  0.90975450  1
  O  O254  1  0.24398870  0.85872043  0.42907575  1
  O  O255  1  0.22280440  0.85542779  0.90992403  1
  O  O256  1  0.54792713  0.36344415  0.42523402  1
  O  O257  1  0.54720818  0.36098125  0.92270131  1
  O  O258  1  0.56654271  0.88727362  0.41672939  1
  O  O259  1  0.54530860  0.86218316  0.90962603  1
  O  O260  1  0.89882449  0.37943881  0.41874502  1
  O  O261  1  0.90025697  0.38418752  0.91340824  1
  O  O262  1  0.88622352  0.85990120  0.41476961  1
  O  O263  1  0.90243782  0.85053062  0.92055975  1
  O  O264  1  0.06055973  0.39263593  0.41677469  1
  O  O265  1  0.06412465  0.38661551  0.91401961  1
  O  O266  1  0.05147876  0.87497130  0.42775617  1
  O  O267  1  0.06023793  0.89174828  0.91188217  1
  O  O268  1  0.38490588  0.38340513  0.41798797  1
  O  O269  1  0.38410450  0.39012112  0.91035181  1
  O  O270  1  0.40493603  0.87262452  0.41991422  1
  O  O271  1  0.38199911  0.90020878  0.90795703  1
  O  O272  1  0.73658831  0.38498131  0.42654366  1
  O  O273  1  0.73593483  0.40029912  0.92204981  1
  O  O274  1  0.72694403  0.88805701  0.41505275  1
  O  O275  1  0.71113934  0.88202520  0.92028976  1
  O  O276  1  0.23229937  0.13514758  0.42033581  1
  O  O277  1  0.22889451  0.15353550  0.92032183  1
  O  O278  1  0.22815271  0.63373823  0.41723632  1
  O  O279  1  0.21497762  0.64981986  0.92706808  1
  O  O280  1  0.56022536  0.12107768  0.41992804  1
  O  O281  1  0.53996770  0.13968296  0.91905352  1
  O  O282  1  0.55229717  0.62321121  0.42374926  1
  O  O283  1  0.55400350  0.63386860  0.91395150  1
  O  O284  1  0.87985273  0.13101265  0.42662662  1
  O  O285  1  0.86211495  0.14806508  0.91764749  1
  O  O286  1  0.90360634  0.62364766  0.41621906  1
  O  O287  1  0.86792658  0.65287931  0.91472158  1
  O  O288  1  0.16706309  0.00440244  0.08987673  1
  O  O289  1  0.19049953  0.00074518  0.58447537  1
  O  O290  1  0.16820008  0.49379673  0.08739783  1
  O  O291  1  0.18242203  0.49926301  0.57934001  1
  O  O292  1  0.49382441  0.00311065  0.08687634  1
  O  O293  1  0.50976869  -0.00040826  0.58285178  1
  O  O294  1  0.49341321  0.48531335  0.07537123  1
  O  O295  1  0.51766362  0.50041802  0.58290758  1
  O  O296  1  0.86725747  -0.00215618  0.08556427  1
  O  O297  1  0.84939674  -0.00071866  0.58406997  1
  O  O298  1  0.86067981  0.50100759  0.08833627  1
  O  O299  1  0.84619849  0.51313158  0.57200769  1
  O  O300  1  0.01166711  0.24947899  0.08969796  1
  O  O301  1  0.02357236  0.24589070  0.58312860  1
  O  O302  1  0.02331464  0.74932741  0.08640139  1
  O  O303  1  0.02413579  0.75406771  0.58139664  1
  O  O304  1  0.33170691  0.24729295  0.08896066  1
  O  O305  1  0.35114049  0.25098507  0.58180698  1
  O  O306  1  0.32318214  0.76485178  0.07741722  1
  O  O307  1  0.34732208  0.74994524  0.57979350  1
  O  O308  1  0.68612242  0.25966880  0.07917146  1
  O  O309  1  0.67271019  0.24485550  0.58548264  1
  O  O310  1  0.67828356  0.73957490  0.07358431  1
  O  O311  1  0.67536876  0.75356718  0.58378674  1
  O  O312  1  0.16947866  0.00594852  0.42785847  1
  O  O313  1  0.18141922  -0.00932872  0.91920487  1
  O  O314  1  0.16232464  0.50322698  0.41492580  1
  O  O315  1  0.18381065  0.48561797  0.91903809  1
  O  O316  1  0.47056956  0.00129827  0.41637063  1
  O  O317  1  0.49503042  0.00098671  0.91041601  1
  O  O318  1  0.48244019  0.49475082  0.42190480  1
  O  O319  1  0.50058205  0.49632820  0.91273976  1
  O  O320  1  0.83246109  -0.00440168  0.41591113  1
  O  O321  1  0.85219689  0.00475483  0.91659179  1
  O  O322  1  0.82342000  0.50194284  0.41083495  1
  O  O323  1  0.83210044  0.51157362  0.91071714  1
  O  O324  1  0.31981482  0.25329771  0.41771383  1
  O  O325  1  0.34559501  0.25099306  0.91017191  1
  O  O326  1  0.33459391  0.74441387  0.41809135  1
  O  O327  1  0.35203522  0.76288856  0.91725894  1
  O  O328  1  0.66345076  0.23263207  0.42704541  1
  O  O329  1  0.68478706  0.24689218  0.92740688  1
  O  O330  1  0.64974879  0.76413913  0.42515930  1
  O  O331  1  0.64887697  0.74866192  0.91113932  1
  O  O332  1  0.99479000  0.26449383  0.42639022  1
  O  O333  1  0.99057080  0.26381073  0.92527463  1
  O  O334  1  0.98493669  0.74578411  0.41602160  1
  O  O335  1  1.02329540  0.75435129  0.91470323  1
  O  O336  1  0.20985609  0.08524707  0.20085921  1
  O  O337  1  0.21228129  0.08416695  0.69349844  1
  O  O338  1  0.20659837  0.57993446  0.19421502  1
  O  O339  1  0.19796770  0.58232505  0.68831056  1
  O  O340  1  0.54240460  0.08733609  0.19445657  1
  O  O341  1  0.53930757  0.08143758  0.69289383  1
  O  O342  1  0.54771368  0.57427618  0.19744647  1
  O  O343  1  0.54202089  0.58501709  0.69184045  1
  O  O344  1  0.87877315  0.08135809  0.19430998  1
  O  O345  1  0.87507881  0.08157936  0.69411540  1
  O  O346  1  0.88699233  0.58990265  0.19405175  1
  O  O347  1  0.87316022  0.58586195  0.68915606  1
  O  O348  1  0.04562590  0.33614901  0.19708442  1
  O  O349  1  0.04391340  0.33209376  0.69119266  1
  O  O350  1  0.04253149  0.83140518  0.19718977  1
  O  O351  1  0.04255926  0.83540439  0.69310829  1
  O  O352  1  0.37321642  0.33072922  0.19777703  1
  O  O353  1  0.37978855  0.32892444  0.69242783  1
  O  O354  1  0.37254631  0.83838082  0.19378207  1
  O  O355  1  0.37600428  0.83425285  0.69180271  1
  O  O356  1  0.71196655  0.33385443  0.19513234  1
  O  O357  1  0.70926525  0.33300649  0.69191128  1
  O  O358  1  0.71295238  0.83509922  0.19981317  1
  O  O359  1  0.70563544  0.83450731  0.69324119  1
  O  O360  1  0.20936717  0.41217198  0.19643789  1
  O  O361  1  0.20463947  0.41699370  0.69086143  1
  O  O362  1  0.21241579  0.92326326  0.19889709  1
  O  O363  1  0.21011993  0.91814399  0.69388850  1
  O  O364  1  0.53742805  0.41310116  0.19493203  1
  O  O365  1  0.54329323  0.41730251  0.69257722  1
  O  O366  1  0.54279456  0.91682729  0.19249976  1
  O  O367  1  0.54057480  0.91645016  0.69272210  1
  O  O368  1  0.88362215  0.41090335  0.19558155  1
  O  O369  1  0.87695140  0.41737877  0.69914281  1
  O  O370  1  0.88151327  0.91523538  0.19454688  1
  O  O371  1  0.87772436  0.91614118  0.69372400  1
  O  O372  1  0.04876662  0.16510613  0.19972156  1
  O  O373  1  0.04350518  0.16592573  0.69340695  1
  O  O374  1  0.04844720  0.66634488  0.19534804  1
  O  O375  1  0.04331339  0.66968311  0.68950207  1
  O  O376  1  0.37417795  0.16654085  0.19802932  1
  O  O377  1  0.37635307  0.16636341  0.69264738  1
  O  O378  1  0.36386115  0.67128504  0.19626530  1
  O  O379  1  0.37959692  0.67295236  0.68994011  1
  O  O380  1  0.71143942  0.16504366  0.20346457  1
  O  O381  1  0.71148271  0.16346772  0.69440485  1
  O  O382  1  0.71586281  0.66532720  0.18851606  1
  O  O383  1  0.70586461  0.66914008  0.69307454  1
  O  O384  1  0.12658484  0.08430202  0.31319442  1
  O  O385  1  0.12252836  0.08406667  0.79940270  1
  O  O386  1  0.12771890  0.58395673  0.30502049  1
  O  O387  1  0.11986733  0.58246545  0.79758030  1
  O  O388  1  0.45189257  0.08825421  0.30821154  1
  O  O389  1  0.45423335  0.08365498  0.80343158  1
  O  O390  1  0.45364798  0.57292106  0.31005329  1
  O  O391  1  0.46705554  0.58105797  0.80446890  1
  O  O392  1  0.79252110  0.08004046  0.30752699  1
  O  O393  1  0.79035548  0.08177927  0.80530037  1
  O  O394  1  0.78855912  0.59308688  0.30728986  1
  O  O395  1  0.78575712  0.58774318  0.80150815  1
  O  O396  1  0.28785425  0.33238362  0.30680020  1
  O  O397  1  0.28914963  0.32882160  0.80151094  1
  O  O398  1  0.29544966  0.83447442  0.31045549  1
  O  O399  1  0.29166756  0.83622664  0.80212008  1
  O  O400  1  0.62076693  0.32995941  0.30044400  1
  O  O401  1  0.62268079  0.33352530  0.79776553  1
  O  O402  1  0.62214898  0.83763264  0.30708792  1
  O  O403  1  0.61936501  0.83410518  0.80415960  1
  O  O404  1  0.95725099  0.33836159  0.30925525  1
  O  O405  1  0.95818514  0.33439681  0.80614006  1
  O  O406  1  0.95809191  0.83245631  0.30812499  1
  O  O407  1  0.95988154  0.83405617  0.80521191  1
  O  O408  1  0.12522264  0.41744846  0.30585239  1
  O  O409  1  0.12308522  0.41303724  0.80350726  1
  O  O410  1  0.12159907  0.91726968  0.30363938  1
  O  O411  1  0.12649382  0.91654654  0.80391038  1
  O  O412  1  0.45439674  0.41158742  0.30954743  1
  O  O413  1  0.46136196  0.41397117  0.80555156  1
  O  O414  1  0.45387948  0.91805411  0.30566257  1
  O  O415  1  0.45480091  0.91823966  0.80095987  1
  O  O416  1  0.78542645  0.40770184  0.30839703  1
  O  O417  1  0.78931553  0.42083312  0.80489403  1
  O  O418  1  0.79297902  0.91703704  0.30433779  1
  O  O419  1  0.78749542  0.91549155  0.79837000  1
  O  O420  1  0.29110115  0.16788234  0.30870959  1
  O  O421  1  0.29006013  0.16767979  0.80382410  1
  O  O422  1  0.28925936  0.66815948  0.30712844  1
  O  O423  1  0.28203549  0.67559337  0.79800637  1
  O  O424  1  0.62049555  0.16265392  0.30951913  1
  O  O425  1  0.62069421  0.16626571  0.79692688  1
  O  O426  1  0.63345509  0.66987873  0.29976035  1
  O  O427  1  0.61902009  0.66806597  0.80201343  1
  O  O428  1  0.95264853  0.16441304  0.30198986  1
  O  O429  1  0.95528366  0.16757356  0.79952642  1
  O  O430  1  0.96009395  0.66566665  0.30492526  1
  O  O431  1  0.95320445  0.66676568  0.79486385  1
  F  F432  1  0.04671427  0.00363482  0.20529680  1
  F  F433  1  0.04447146  -0.00159686  0.69990048  1
  F  F434  1  0.04817527  0.49892469  0.20197364  1
  F  F435  1  0.04210574  0.49768903  0.69842782  1
  F  F436  1  0.37203817  0.00216314  0.20377178  1
  F  F437  1  0.37715274  0.00127085  0.69855152  1
  F  F438  1  0.37834466  0.49147428  0.20202984  1
  F  F439  1  0.38546202  0.49281745  0.69176972  1
  F  F440  1  0.71402333  0.00030152  0.20096512  1
  F  F441  1  0.70908051  0.00104582  0.69967405  1
  F  F442  1  0.70331244  0.49724577  0.20254156  1
  F  F443  1  0.71035927  0.50163349  0.69949153  1
  F  F444  1  0.21136649  0.24846640  0.20504417  1
  F  F445  1  0.21157369  0.24775291  0.69856124  1
  F  F446  1  0.21068419  0.75263226  0.20442869  1
  F  F447  1  0.21015296  0.75680603  0.69401656  1
  F  F448  1  0.54198052  0.24648768  0.20318182  1
  F  F449  1  0.54164935  0.24900635  0.69630947  1
  F  F450  1  0.54922258  0.76320970  0.19682865  1
  F  F451  1  0.54416103  0.75175796  0.69916564  1
  F  F452  1  0.87313933  0.25095391  0.20142592  1
  F  F453  1  0.87718109  0.25137663  0.70020872  1
  F  F454  1  0.88432307  0.75062373  0.20341859  1
  F  F455  1  0.87536705  0.75505619  0.69835096  1
  F  F456  1  0.28941105  0.00232110  0.30484720  1
  F  F457  1  0.28895112  0.00087225  0.79451882  1
  F  F458  1  0.28355741  0.49129530  0.30333981  1
  F  F459  1  0.28075313  0.48855926  0.79976821  1
  F  F460  1  0.62535501  -0.00062601  0.29752147  1
  F  F461  1  0.61744521  -0.00163486  0.79435161  1
  F  F462  1  0.62047236  0.49574861  0.30277073  1
  F  F463  1  0.62062663  0.50065959  0.79357362  1
  F  F464  1  0.95499182  -0.00152812  0.29898507  1
  F  F465  1  0.95549215  -0.00092091  0.79571001  1
  F  F466  1  0.97177766  0.50195433  0.30367363  1
  F  F467  1  0.95345647  0.50220290  0.79487214  1
  F  F468  1  0.13003775  0.25154257  0.30597202  1
  F  F469  1  0.12106854  0.25156888  0.79426747  1
  F  F470  1  0.12112215  0.74204552  0.30434609  1
  F  F471  1  0.12015715  0.75162682  0.79195405  1
  F  F472  1  0.45310073  0.24839239  0.30036651  1
  F  F473  1  0.45414269  0.24857747  0.79522310  1
  F  F474  1  0.45126360  0.76286350  0.30154595  1
  F  F475  1  0.45416178  0.75127713  0.79428427  1
  F  F476  1  0.78885144  0.25000795  0.30164725  1
  F  F477  1  0.78752613  0.25220915  0.79455369  1
  F  F478  1  0.79220413  0.75034774  0.29699079  1
  F  F479  1  0.78477733  0.75122497  0.79422467  1
