# generated using pymatgen
data_K24Na3Li5Mg64Fe17Si79(O5F)48
_symmetry_space_group_name_H-M   'P 1'
_cell_length_a   16.09266051
_cell_length_b   18.58504352
_cell_length_c   20.55447533
_cell_angle_alpha   89.98844335
_cell_angle_beta   100.01169278
_cell_angle_gamma   90.04572811
_symmetry_Int_Tables_number   1
_chemical_formula_structural   K24Na3Li5Mg64Fe17Si79(O5F)48
_chemical_formula_sum   'K24 Na3 Li5 Mg64 Fe17 Si79 O240 F48'
_cell_volume   6053.87584456
_cell_formula_units_Z   1
loop_
 _symmetry_equiv_pos_site_id
 _symmetry_equiv_pos_as_xyz
  1  'x, y, z'
loop_
 _atom_site_type_symbol
 _atom_site_label
 _atom_site_symmetry_multiplicity
 _atom_site_fract_x
 _atom_site_fract_y
 _atom_site_fract_z
 _atom_site_occupancy
  K  K0  1  0.00902745  0.01053773  0.00911279  1
  K  K1  1  -0.00847740  0.00145453  0.49545566  1
  K  K2  1  -0.00113079  0.50033505  0.00187921  1
  K  K3  1  -0.00387133  0.50249931  0.50037229  1
  K  K4  1  0.32027027  0.00866505  0.00594894  1
  K  K5  1  0.32648597  0.00935323  0.48911013  1
  K  K6  1  0.33271994  0.49338671  -0.00143104  1
  K  K7  1  0.32971877  0.50631573  0.49770031  1
  K  K8  1  0.67959698  -0.00379332  0.00476388  1
  K  K9  1  0.67042235  0.00387936  0.48447485  1
  K  K10  1  0.66534494  0.50108986  0.00210102  1
  K  K11  1  0.67556681  0.49858986  0.49913926  1
  K  K12  1  0.16214613  0.25256290  0.00453866  1
  K  K13  1  0.15579553  0.25136520  0.49652159  1
  K  K14  1  0.16296887  0.74750319  0.00512166  1
  K  K15  1  0.15986078  0.74395236  0.49644406  1
  K  K16  1  0.49694528  0.26061216  0.00391853  1
  K  K17  1  0.50337449  0.25119074  0.49432808  1
  K  K18  1  0.50647723  0.74748607  0.00633875  1
  K  K19  1  0.50069821  0.74357645  0.49171682  1
  K  K20  1  0.83670481  0.24324608  -0.00266714  1
  K  K21  1  0.83293396  0.25571242  0.49481941  1
  K  K22  1  0.84168921  0.73737736  0.01158095  1
  K  K23  1  0.82891229  0.75254429  0.49345122  1
  Na  Na24  1  0.66722707  0.24990359  0.24583406  1
  Na  Na25  1  0.83285250  0.33275642  0.76020284  1
  Na  Na26  1  0.00159915  0.91976814  0.74262913  1
  Li  Li27  1  0.32907392  0.24713187  0.24532210  1
  Li  Li28  1  -0.00163275  0.74993962  0.25103339  1
  Li  Li29  1  0.33209090  0.58077252  0.74870256  1
  Li  Li30  1  0.67139606  0.41229305  0.75902731  1
  Li  Li31  1  0.17303386  0.16914858  0.24292556  1
  Mg  Mg32  1  0.50188132  -0.00018905  0.74899612  1
  Mg  Mg33  1  0.82930044  0.49864165  0.75235785  1
  Mg  Mg34  1  0.83502030  0.49847455  0.25007864  1
  Mg  Mg35  1  0.50088724  0.49916284  0.25436393  1
  Mg  Mg36  1  0.50011530  0.00227912  0.24967971  1
  Mg  Mg37  1  0.16687983  0.49932253  0.25527913  1
  Mg  Mg38  1  0.83154884  0.00049063  0.25031362  1
  Mg  Mg39  1  0.16774978  0.50153063  0.75048517  1
  Mg  Mg40  1  0.66821461  0.25253630  0.75408064  1
  Mg  Mg41  1  0.33150167  0.74968442  0.25488883  1
  Mg  Mg42  1  0.33282252  0.25186978  0.74930097  1
  Mg  Mg43  1  0.00255549  0.75041020  0.74591354  1
  Mg  Mg44  1  -0.00023628  0.25085667  0.74789118  1
  Mg  Mg45  1  0.00454411  0.24922290  0.24924344  1
  Mg  Mg46  1  0.83516676  -0.00148228  0.74712359  1
  Mg  Mg47  1  0.66590114  0.75366737  0.25325319  1
  Mg  Mg48  1  0.16764768  0.00337146  0.24785100  1
  Mg  Mg49  1  0.49834020  0.49826210  0.75107493  1
  Mg  Mg50  1  0.33443665  0.74692665  0.74814815  1
  Mg  Mg51  1  0.16743053  0.00121165  0.74346345  1
  Mg  Mg52  1  0.66708421  0.74584767  0.75154629  1
  Mg  Mg53  1  0.83285147  0.33499267  0.24986861  1
  Mg  Mg54  1  0.49897416  0.33232099  0.25129318  1
  Mg  Mg55  1  0.83414786  0.83457972  0.25203827  1
  Mg  Mg56  1  0.83549568  0.16500758  0.74863826  1
  Mg  Mg57  1  0.16536813  0.66717692  0.25489323  1
  Mg  Mg58  1  0.00100971  0.58578052  0.74879407  1
  Mg  Mg59  1  0.33476542  0.08465065  0.74630125  1
  Mg  Mg60  1  0.49895711  0.66233679  0.75125984  1
  Mg  Mg61  1  0.50106132  0.83223522  0.74866248  1
  Mg  Mg62  1  0.33287937  0.41390431  0.25433201  1
  Mg  Mg63  1  0.83513301  0.66410952  0.75024993  1
  Mg  Mg64  1  0.66907260  0.57820658  0.75323769  1
  Mg  Mg65  1  -0.00059680  0.41665242  0.75155528  1
  Mg  Mg66  1  0.16657703  0.83381994  0.74410461  1
  Mg  Mg67  1  -0.00192106  0.58518698  0.25069477  1
  Mg  Mg68  1  0.16909054  0.32889803  0.25103150  1
  Mg  Mg69  1  0.50061681  0.66645586  0.25813209  1
  Mg  Mg70  1  0.16511750  0.16689344  0.74402170  1
  Mg  Mg71  1  0.83577569  0.83204457  0.74803988  1
  Mg  Mg72  1  0.66334653  0.08517222  0.24786030  1
  Mg  Mg73  1  0.33076332  0.09008655  0.24682796  1
  Mg  Mg74  1  -0.00041486  0.91437127  0.25109581  1
  Mg  Mg75  1  0.16299941  0.33673920  0.74986075  1
  Mg  Mg76  1  0.16439009  0.83315114  0.25197213  1
  Mg  Mg77  1  0.50302832  0.16716764  0.75148866  1
  Mg  Mg78  1  0.33440743  0.91534981  0.74693996  1
  Mg  Mg79  1  0.33252524  0.41853584  0.75084802  1
  Mg  Mg80  1  0.50069993  0.83644157  0.25315206  1
  Mg  Mg81  1  0.83602590  0.66755873  0.24981634  1
  Mg  Mg82  1  0.66899443  0.41604715  0.25069529  1
  Mg  Mg83  1  0.50392455  0.33555317  0.75220350  1
  Mg  Mg84  1  0.66924466  0.58625865  0.25459813  1
  Mg  Mg85  1  0.33292265  0.58381194  0.25793082  1
  Mg  Mg86  1  0.33218775  0.91760886  0.25035143  1
  Mg  Mg87  1  0.66453549  0.91664441  0.25205638  1
  Mg  Mg88  1  0.00015734  0.08536062  0.74480649  1
  Mg  Mg89  1  0.00301544  0.08441085  0.24587238  1
  Mg  Mg90  1  0.49708077  0.16934001  0.24525231  1
  Mg  Mg91  1  0.66914770  0.08415156  0.75043056  1
  Mg  Mg92  1  0.83296024  0.16711424  0.24732277  1
  Mg  Mg93  1  -0.00094079  0.41555977  0.25041141  1
  Mg  Mg94  1  0.66868855  0.91378675  0.74889382  1
  Mg  Mg95  1  0.16747830  0.66481380  0.74664348  1
  Fe  Fe96  1  0.81330429  0.58495356  0.89201551  1
  Fe  Fe97  1  0.51501359  0.08061874  0.10633304  1
  Fe  Fe98  1  0.02424417  0.66734449  0.60588991  1
  Fe  Fe99  1  0.85527827  0.58225114  0.11067565  1
  Fe  Fe100  1  0.85760196  0.40966173  0.10838447  1
  Fe  Fe101  1  0.80927409  0.91807526  0.39272983  1
  Fe  Fe102  1  0.81128613  0.41765084  0.39363308  1
  Fe  Fe103  1  0.51587753  0.91278982  0.10918394  1
  Fe  Fe104  1  0.30987605  0.66932974  0.39534714  1
  Fe  Fe105  1  0.68785301  0.15502513  0.10500627  1
  Fe  Fe106  1  0.13759625  0.41934888  0.89117823  1
  Fe  Fe107  1  0.97203446  0.32915815  0.89303400  1
  Fe  Fe108  1  0.02264483  0.16762160  0.60545008  1
  Fe  Fe109  1  0.64121154  0.33542028  0.89312599  1
  Fe  Fe110  1  0.68652057  0.32941604  0.10684853  1
  Fe  Fe111  1  0.19529846  0.08659424  0.10842403  1
  Fe  Fe112  1  0.63282891  0.83381348  0.39553695  1
  Si  Si113  1  0.13850845  0.91868997  0.38545866  1
  Si  Si114  1  0.81363520  0.58925137  0.38962086  1
  Si  Si115  1  0.52821342  0.08268380  0.61401336  1
  Si  Si116  1  0.02264278  0.34004732  0.60909873  1
  Si  Si117  1  0.36432999  0.16732329  0.61323235  1
  Si  Si118  1  0.86382693  0.91194764  0.11474390  1
  Si  Si119  1  0.14068997  0.08216523  0.38358099  1
  Si  Si120  1  0.19326032  0.57870546  0.11969730  1
  Si  Si121  1  0.30685570  0.67115230  0.88272376  1
  Si  Si122  1  0.47197674  0.08936459  0.38558967  1
  Si  Si123  1  0.64156015  0.83132854  0.88468474  1
  Si  Si124  1  0.81027763  0.08973745  0.38724728  1
  Si  Si125  1  0.68947638  0.33216132  0.61659777  1
  Si  Si126  1  0.35516386  0.66128658  0.12126252  1
  Si  Si127  1  0.03093699  0.33437860  0.11539632  1
  Si  Si128  1  0.19529777  0.91679251  0.60984561  1
  Si  Si129  1  0.86364825  0.07934771  0.11083004  1
  Si  Si130  1  0.30980123  0.16555298  0.88135928  1
  Si  Si131  1  0.81095663  0.91024441  0.88401254  1
  Si  Si132  1  0.46657592  0.41693571  0.88761750  1
  Si  Si133  1  0.85472950  0.41861303  0.61661308  1
  Si  Si134  1  0.46481365  0.92399575  0.38927747  1
  Si  Si135  1  0.52246591  0.58904405  0.12002232  1
  Si  Si136  1  0.98093777  0.83541030  0.88123648  1
  Si  Si137  1  0.69033101  0.83027622  0.61371683  1
  Si  Si138  1  0.52396664  0.42444476  0.11539303  1
  Si  Si139  1  0.36014216  0.34189161  0.11795999  1
  Si  Si140  1  0.98016688  0.67337486  0.88680923  1
  Si  Si141  1  0.97706111  0.15779797  0.88592084  1
  Si  Si142  1  0.30439332  0.84005770  0.38864739  1
  Si  Si143  1  0.14157074  0.41561933  0.38781188  1
  Si  Si144  1  0.47556066  0.08256791  0.88319704  1
  Si  Si145  1  0.14594324  0.58910673  0.88751701  1
  Si  Si146  1  0.63498958  0.66481684  0.88814248  1
  Si  Si147  1  0.31167149  0.83412151  0.88285659  1
  Si  Si148  1  0.85202050  0.08012045  0.60915013  1
  Si  Si149  1  0.02897194  0.82987888  0.11716389  1
  Si  Si150  1  0.64527260  0.16251270  0.88653662  1
  Si  Si151  1  0.19404521  0.41601083  0.11942083  1
  Si  Si152  1  0.36058857  0.83149922  0.61196788  1
  Si  Si153  1  0.19466271  0.41675430  0.61310643  1
  Si  Si154  1  0.36397221  0.66652849  0.61486637  1
  Si  Si155  1  0.68869948  0.66530658  0.61506329  1
  Si  Si156  1  0.19204644  0.91375519  0.11289766  1
  Si  Si157  1  0.47818868  0.57632639  0.39300500  1
  Si  Si158  1  0.97647875  0.66949514  0.38417397  1
  Si  Si159  1  0.47687577  0.91740174  0.88315156  1
  Si  Si160  1  0.85229399  0.91523278  0.61256911  1
  Si  Si161  1  0.63847799  0.16755749  0.38434350  1
  Si  Si162  1  0.19749458  0.58221237  0.61190480  1
  Si  Si163  1  0.68775137  0.67243178  0.11656986  1
  Si  Si164  1  0.30335003  0.33025524  0.88483500  1
  Si  Si165  1  0.36067192  0.17708748  0.10861708  1
  Si  Si166  1  0.64241722  0.66186043  0.39232921  1
  Si  Si167  1  0.85372984  0.58247963  0.61158549  1
  Si  Si168  1  0.69191918  0.83761325  0.11352573  1
  Si  Si169  1  0.52619842  0.58083604  0.61510269  1
  Si  Si170  1  0.30507210  0.16816044  0.38370026  1
  Si  Si171  1  0.35353293  0.82317724  0.11621295  1
  Si  Si172  1  0.19859473  0.08311998  0.60806754  1
  Si  Si173  1  0.47102894  0.41118235  0.38932218  1
  Si  Si174  1  0.52616470  0.91637849  0.61314851  1
  Si  Si175  1  0.80557752  0.42037760  0.89109378  1
  Si  Si176  1  0.35994784  0.33307433  0.61409252  1
  Si  Si177  1  0.97702174  0.83301817  0.38770162  1
  Si  Si178  1  0.97972967  0.32976121  0.38745919  1
  Si  Si179  1  0.46776059  0.58326343  0.88377026  1
  Si  Si180  1  0.52441695  0.41589563  0.61502797  1
  Si  Si181  1  0.13741468  0.58164457  0.39057228  1
  Si  Si182  1  0.69103203  0.16765739  0.61330131  1
  Si  Si183  1  0.63682966  0.33473176  0.38902235  1
  Si  Si184  1  0.02581373  0.16906393  0.11275100  1
  Si  Si185  1  0.30397234  0.33244765  0.38777382  1
  Si  Si186  1  0.14840992  0.91744734  0.88005084  1
  Si  Si187  1  0.03236203  0.66360757  0.11574226  1
  Si  Si188  1  0.02488789  0.83745000  0.60757249  1
  Si  Si189  1  0.80865875  0.07543603  0.88295980  1
  Si  Si190  1  0.97773344  0.16611012  0.38260692  1
  Si  Si191  1  0.14534702  0.08109849  0.88088878  1
  O  O192  1  0.28098412  0.12963317  0.07073470  1
  O  O193  1  0.27993864  0.12188533  0.58161642  1
  O  O194  1  0.28023752  0.60303241  0.09266579  1
  O  O195  1  0.27802890  0.62254828  0.58554381  1
  O  O196  1  0.61039348  0.08627166  0.06872595  1
  O  O197  1  0.60377625  0.12201163  0.58357160  1
  O  O198  1  0.60018770  0.62516535  0.08927454  1
  O  O199  1  0.60260731  0.62016737  0.58462408  1
  O  O200  1  0.94614305  0.11432700  0.08428908  1
  O  O201  1  0.92677640  0.11013179  0.57363075  1
  O  O202  1  0.95282098  0.61807311  0.07916801  1
  O  O203  1  0.92539559  0.61464473  0.57357065  1
  O  O204  1  0.12150914  0.35715120  0.09149596  1
  O  O205  1  0.10114258  0.38411038  0.58204899  1
  O  O206  1  0.10664773  0.86480910  0.08495738  1
  O  O207  1  0.10220757  0.88357105  0.58056680  1
  O  O208  1  0.43778561  0.37757446  0.08581376  1
  O  O209  1  0.43454377  0.37441124  0.58264118  1
  O  O210  1  0.43307915  0.83917310  0.08073690  1
  O  O211  1  0.43719953  0.87451089  0.58390811  1
  O  O212  1  0.78367546  0.33907121  0.07152004  1
  O  O213  1  0.76948439  0.36965648  0.58833325  1
  O  O214  1  0.77901944  0.86424030  0.08567608  1
  O  O215  1  0.77091038  0.86261371  0.58403651  1
  O  O216  1  0.27875623  0.39475944  0.08950633  1
  O  O217  1  0.26765844  0.36903674  0.58395798  1
  O  O218  1  0.27048650  0.87241526  0.08576652  1
  O  O219  1  0.26990187  0.87026137  0.58238676  1
  O  O220  1  0.59994225  0.40017443  0.07954242  1
  O  O221  1  0.60097437  0.37583202  0.58448328  1
  O  O222  1  0.61692588  0.88839653  0.07680149  1
  O  O223  1  0.60469075  0.87781335  0.58540919  1
  O  O224  1  0.96316093  0.39210879  0.08160475  1
  O  O225  1  0.93457200  0.38647599  0.58422210  1
  O  O226  1  0.94139048  0.87257089  0.08507226  1
  O  O227  1  0.93787011  0.88717345  0.58676199  1
  O  O228  1  0.09952800  0.14145257  0.07432865  1
  O  O229  1  0.11458869  0.12322205  0.57275340  1
  O  O230  1  0.11864051  0.63476696  0.08785273  1
  O  O231  1  0.11330567  0.62072920  0.57293944  1
  O  O232  1  0.44224188  0.15763221  0.07534986  1
  O  O233  1  0.44185681  0.12745488  0.58429908  1
  O  O234  1  0.43915823  0.63896216  0.09046697  1
  O  O235  1  0.44011442  0.62606471  0.58480103  1
  O  O236  1  0.78405350  0.12152365  0.07060641  1
  O  O237  1  0.76560212  0.12761712  0.58194702  1
  O  O238  1  0.76343153  0.64527867  0.08147834  1
  O  O239  1  0.76548094  0.62861490  0.58462822  1
  O  O240  1  0.06066308  0.11622839  0.41410447  1
  O  O241  1  0.06156802  0.10548237  0.90990544  1
  O  O242  1  0.05267948  0.61359503  0.41580265  1
  O  O243  1  0.06461036  0.62482282  0.91516381  1
  O  O244  1  0.39565068  0.12881926  0.41803379  1
  O  O245  1  0.39265558  0.11526250  0.90942477  1
  O  O246  1  0.40957942  0.61697421  0.42887309  1
  O  O247  1  0.38788256  0.62005189  0.91271891  1
  O  O248  1  0.72915301  0.12814929  0.41496457  1
  O  O249  1  0.72657579  0.10753666  0.91035635  1
  O  O250  1  0.73359576  0.62326297  0.41996255  1
  O  O251  1  0.71613339  0.62127271  0.92333208  1
  O  O252  1  0.22981229  0.37370723  0.42019324  1
  O  O253  1  0.22498161  0.35077277  0.91975211  1
  O  O254  1  0.22044260  0.86983076  0.41660451  1
  O  O255  1  0.23117261  0.86804075  0.91242361  1
  O  O256  1  0.55378117  0.36373378  0.42071765  1
  O  O257  1  0.54277440  0.36816935  0.92352330  1
  O  O258  1  0.53831649  0.87348781  0.42811426  1
  O  O259  1  0.56507151  0.87475727  0.91188537  1
  O  O260  1  0.90600101  0.35862597  0.42481370  1
  O  O261  1  0.86615796  0.35076265  0.91383916  1
  O  O262  1  0.90341633  0.85864567  0.42664407  1
  O  O263  1  0.89995490  0.86837448  0.91213398  1
  O  O264  1  0.06692301  0.37514212  0.41843694  1
  O  O265  1  0.05324897  0.39247558  0.93567905  1
  O  O266  1  0.05984661  0.88503815  0.41604088  1
  O  O267  1  0.06364849  0.88783270  0.90657800  1
  O  O268  1  0.39281546  0.37368445  0.41953518  1
  O  O269  1  0.38080932  0.38629993  0.91285383  1
  O  O270  1  0.37583376  0.90195558  0.41439273  1
  O  O271  1  0.39746703  0.88079572  0.91133767  1
  O  O272  1  0.71795082  0.37835608  0.42762492  1
  O  O273  1  0.71833115  0.40814257  0.92094476  1
  O  O274  1  0.72549651  0.88474585  0.43667412  1
  O  O275  1  0.73269459  0.87065164  0.91301006  1
  O  O276  1  0.22825282  0.12674856  0.41457285  1
  O  O277  1  0.22824163  0.13161309  0.90973601  1
  O  O278  1  0.21855797  0.62627967  0.42794511  1
  O  O279  1  0.22458589  0.64659996  0.91403917  1
  O  O280  1  0.56147013  0.13000245  0.41803197  1
  O  O281  1  0.56147870  0.12635713  0.91165427  1
  O  O282  1  0.57288673  0.60889220  0.41962203  1
  O  O283  1  0.55042810  0.63283954  0.91479630  1
  O  O284  1  0.89475753  0.14076807  0.41331444  1
  O  O285  1  0.89746505  0.11570767  0.91295046  1
  O  O286  1  0.89264117  0.64587020  0.41481838  1
  O  O287  1  0.90195399  0.65139376  0.92174153  1
  O  O288  1  0.17789550  -0.00991079  0.07517325  1
  O  O289  1  0.20099326  -0.00120381  0.58141378  1
  O  O290  1  0.16777279  0.49772905  0.09073799  1
  O  O291  1  0.20110678  0.49828808  0.58385409  1
  O  O292  1  0.46516100  -0.00507614  0.07240406  1
  O  O293  1  0.51675466  -0.00033083  0.58535543  1
  O  O294  1  0.49947625  0.50867028  0.09006852  1
  O  O295  1  0.51588861  0.49879627  0.58454526  1
  O  O296  1  0.85710742  -0.00631595  0.08361803  1
  O  O297  1  0.82894299  -0.00363276  0.58326237  1
  O  O298  1  0.81710373  0.49700360  0.07290121  1
  O  O299  1  0.83247527  0.49928817  0.58453382  1
  O  O300  1  0.00417674  0.25279537  0.08733679  1
  O  O301  1  0.01272229  0.26287376  0.57155963  1
  O  O302  1  0.01989671  0.74763074  0.08775978  1
  O  O303  1  0.01255288  0.76189931  0.56841320  1
  O  O304  1  0.33722558  0.26261011  0.08624692  1
  O  O305  1  0.35711884  0.24986988  0.58449298  1
  O  O306  1  0.32142988  0.74000725  0.09283929  1
  O  O307  1  0.35704061  0.74912414  0.58339920  1
  O  O308  1  0.64265844  0.24239384  0.07460209  1
  O  O309  1  0.67794307  0.24962588  0.58297835  1
  O  O310  1  0.66664766  0.75473588  0.08746162  1
  O  O311  1  0.67339314  0.74804891  0.58569297  1
  O  O312  1  0.15592036  0.00051492  0.41636967  1
  O  O313  1  0.16774473  -0.00087918  0.90994248  1
  O  O314  1  0.14922020  0.49766018  0.41820826  1
  O  O315  1  0.17329008  0.51366633  0.92319493  1
  O  O316  1  0.48107733  0.00776818  0.41709648  1
  O  O317  1  0.48801304  -0.00037797  0.91052746  1
  O  O318  1  0.48278881  0.49247734  0.42055259  1
  O  O319  1  0.47718371  0.50169310  0.91475331  1
  O  O320  1  0.82906873  0.01398986  0.42545618  1
  O  O321  1  0.81901114  -0.00753327  0.91287653  1
  O  O322  1  0.83631814  0.51260928  0.42567751  1
  O  O323  1  0.85008211  0.49505787  0.92409285  1
  O  O324  1  0.31017099  0.24973233  0.41737314  1
  O  O325  1  0.33223792  0.24671336  0.90916393  1
  O  O326  1  0.33123744  0.76470643  0.42583718  1
  O  O327  1  0.33019715  0.75303311  0.91292774  1
  O  O328  1  0.64650523  0.24974641  0.41456982  1
  O  O329  1  0.66713736  0.23857232  0.92118924  1
  O  O330  1  0.64061089  0.73796521  0.42934880  1
  O  O331  1  0.64231536  0.75022679  0.91460312  1
  O  O332  1  1.00301129  0.24630759  0.41266880  1
  O  O333  1  0.99535680  0.23220116  0.92463679  1
  O  O334  1  1.00587365  0.75004914  0.41230034  1
  O  O335  1  1.00737844  0.75666272  0.91390695  1
  O  O336  1  0.21295812  0.08105490  0.19842421  1
  O  O337  1  0.21532704  0.08371279  0.68917965  1
  O  O338  1  0.21068071  0.58056497  0.20001538  1
  O  O339  1  0.20797022  0.58330787  0.69186703  1
  O  O340  1  0.54131238  0.08328693  0.19939627  1
  O  O341  1  0.54470266  0.08191174  0.69445972  1
  O  O342  1  0.54136646  0.58685538  0.20054087  1
  O  O343  1  0.54295343  0.58309396  0.69507824  1
  O  O344  1  0.87870001  0.08012472  0.19181926  1
  O  O345  1  0.87299228  0.08096886  0.69012848  1
  O  O346  1  0.87768095  0.58344456  0.20282372  1
  O  O347  1  0.87700653  0.58641180  0.69206075  1
  O  O348  1  0.04688312  0.33429972  0.19653267  1
  O  O349  1  0.04421796  0.33451504  0.68929622  1
  O  O350  1  0.04599786  0.83499052  0.19661392  1
  O  O351  1  0.04940928  0.82830606  0.68711414  1
  O  O352  1  0.37906983  0.34213250  0.19747071  1
  O  O353  1  0.37713915  0.33258877  0.69434795  1
  O  O354  1  0.37348112  0.83018595  0.19733588  1
  O  O355  1  0.37874260  0.83363910  0.69267083  1
  O  O356  1  0.71524006  0.34270442  0.19661791  1
  O  O357  1  0.70243880  0.32756579  0.69468949  1
  O  O358  1  0.70965137  0.83527198  0.19412308  1
  O  O359  1  0.70732846  0.83134361  0.69432787  1
  O  O360  1  0.21162526  0.41854459  0.19985329  1
  O  O361  1  0.21252827  0.41545689  0.69311929  1
  O  O362  1  0.20922069  0.91510474  0.19400636  1
  O  O363  1  0.21410204  0.91652936  0.69048008  1
  O  O364  1  0.54141624  0.42126254  0.19646037  1
  O  O365  1  0.53514708  0.41658937  0.69394812  1
  O  O366  1  0.54074167  0.91681075  0.20164394  1
  O  O367  1  0.54356763  0.91545140  0.69390800  1
  O  O368  1  0.88182489  0.41665058  0.20117093  1
  O  O369  1  0.87907445  0.42331151  0.69542092  1
  O  O370  1  0.87976838  0.91495604  0.19470548  1
  O  O371  1  0.86408921  0.91521761  0.69209695  1
  O  O372  1  0.04217353  0.16679240  0.19294176  1
  O  O373  1  0.04555249  0.16737393  0.69706730  1
  O  O374  1  0.04950549  0.66157420  0.19573017  1
  O  O375  1  0.04602010  0.66765663  0.69806028  1
  O  O376  1  0.37602562  0.16667346  0.18888232  1
  O  O377  1  0.37997001  0.16612958  0.69353323  1
  O  O378  1  0.37739852  0.66320365  0.20149312  1
  O  O379  1  0.38227150  0.67089056  0.69428814  1
  O  O380  1  0.71788252  0.15606116  0.19591245  1
  O  O381  1  0.70827566  0.16380117  0.69340731  1
  O  O382  1  0.70629604  0.66971496  0.19759243  1
  O  O383  1  0.70638484  0.66737968  0.69515010  1
  O  O384  1  0.12035926  0.07856344  0.30474757  1
  O  O385  1  0.12890545  0.08171408  0.80063329  1
  O  O386  1  0.12477281  0.58287019  0.30997056  1
  O  O387  1  0.12715654  0.58647400  0.80650593  1
  O  O388  1  0.45263768  0.08703971  0.30597438  1
  O  O389  1  0.45727939  0.08200309  0.80195965  1
  O  O390  1  0.45743717  0.58105518  0.31212331  1
  O  O391  1  0.45530725  0.58340266  0.80415135  1
  O  O392  1  0.79292665  0.08419384  0.30703760  1
  O  O393  1  0.79031565  0.07678817  0.80228926  1
  O  O394  1  0.79060394  0.58709747  0.30908318  1
  O  O395  1  0.78926814  0.58730320  0.79991338  1
  O  O396  1  0.28682086  0.33733187  0.30889268  1
  O  O397  1  0.28826313  0.33202399  0.80346153  1
  O  O398  1  0.28786497  0.83521951  0.30769950  1
  O  O399  1  0.29382833  0.83432707  0.80213583  1
  O  O400  1  0.61722122  0.34316420  0.30980863  1
  O  O401  1  0.61826084  0.32893008  0.80208406  1
  O  O402  1  0.62112249  0.83280009  0.30353830  1
  O  O403  1  0.62375406  0.83272078  0.80387050  1
  O  O404  1  0.96209290  0.33289236  0.30731938  1
  O  O405  1  0.97155686  0.33111373  0.80275808  1
  O  O406  1  0.95538015  0.83781749  0.30778695  1
  O  O407  1  0.95558081  0.82945070  0.80212683  1
  O  O408  1  0.12537905  0.41582582  0.30777557  1
  O  O409  1  0.12318476  0.41950667  0.79842103  1
  O  O410  1  0.12308326  0.91792204  0.30523001  1
  O  O411  1  0.13743986  0.91755624  0.80068444  1
  O  O412  1  0.45466024  0.41588119  0.30935511  1
  O  O413  1  0.45301541  0.41617948  0.80650620  1
  O  O414  1  0.45246396  0.91922366  0.30871908  1
  O  O415  1  0.45843716  0.91580332  0.80216658  1
  O  O416  1  0.78917401  0.41955977  0.30326800  1
  O  O417  1  0.78611128  0.42819868  0.81098474  1
  O  O418  1  0.78895339  0.91709357  0.30059572  1
  O  O419  1  0.79005071  0.91242237  0.80358669  1
  O  O420  1  0.29200606  0.16682993  0.30554086  1
  O  O421  1  0.29096531  0.16475378  0.80043372  1
  O  O422  1  0.28836866  0.66684733  0.30400829  1
  O  O423  1  0.28820899  0.67187948  0.80299613  1
  O  O424  1  0.61686186  0.16189840  0.30591305  1
  O  O425  1  0.62322232  0.16199795  0.80490527  1
  O  O426  1  0.62329675  0.66598631  0.31125602  1
  O  O427  1  0.62018964  0.66679463  0.80686834  1
  O  O428  1  0.96007286  0.16387099  0.30263844  1
  O  O429  1  0.95718310  0.16198394  0.80514664  1
  O  O430  1  0.95771794  0.66680860  0.30484049  1
  O  O431  1  0.95933214  0.67026293  0.80574301  1
  F  F432  1  0.04529248  -0.00292214  0.20023357  1
  F  F433  1  0.05256567  0.01029181  0.69269947  1
  F  F434  1  0.04888086  0.50066665  0.20647709  1
  F  F435  1  0.04636682  0.50372555  0.70036170  1
  F  F436  1  0.37670339  0.00011760  0.20458473  1
  F  F437  1  0.38192820  -0.00093327  0.69828812  1
  F  F438  1  0.37835547  0.50183222  0.20910696  1
  F  F439  1  0.38008865  0.49563749  0.69942302  1
  F  F440  1  0.71089950  -0.00076462  0.20316600  1
  F  F441  1  0.70885798  -0.00213967  0.70082536  1
  F  F442  1  0.70908717  0.50640851  0.20489683  1
  F  F443  1  0.71073699  0.50432985  0.69774843  1
  F  F444  1  0.21179013  0.25499736  0.19971180  1
  F  F445  1  0.21449196  0.25021069  0.69807172  1
  F  F446  1  0.21145322  0.75070747  0.20345845  1
  F  F447  1  0.21592930  0.75165931  0.69784315  1
  F  F448  1  0.53210871  0.25451478  0.19787017  1
  F  F449  1  0.54212647  0.24582927  0.69970876  1
  F  F450  1  0.54223804  0.74680013  0.20643673  1
  F  F451  1  0.54552302  0.74926708  0.70208451  1
  F  F452  1  0.88393604  0.24974178  0.20274692  1
  F  F453  1  0.88182038  0.23894387  0.69733820  1
  F  F454  1  0.87444736  0.75227536  0.20211709  1
  F  F455  1  0.87735264  0.74918366  0.69970824  1
  F  F456  1  0.28723927  -0.00146002  0.29998247  1
  F  F457  1  0.29133268  0.00022896  0.79280557  1
  F  F458  1  0.28872196  0.49922992  0.30507090  1
  F  F459  1  0.28711283  0.49851520  0.79755118  1
  F  F460  1  0.62226431  0.00115129  0.30234001  1
  F  F461  1  0.62189406  -0.00310090  0.79711712  1
  F  F462  1  0.62054979  0.50302599  0.30104197  1
  F  F463  1  0.61364229  0.50532526  0.80000163  1
  F  F464  1  0.95550533  0.00089366  0.29606146  1
  F  F465  1  0.95206473  0.00737582  0.79593590  1
  F  F466  1  0.96021620  0.50008089  0.30267970  1
  F  F467  1  0.95611822  0.50462639  0.79627970  1
  F  F468  1  0.12068814  0.25327481  0.30218794  1
  F  F469  1  0.12669300  0.24870251  0.79488547  1
  F  F470  1  0.12691738  0.75095657  0.30206913  1
  F  F471  1  0.12568158  0.75419711  0.79574502  1
  F  F472  1  0.45798980  0.25010615  0.30080030  1
  F  F473  1  0.45248624  0.24808134  0.79670246  1
  F  F474  1  0.45322954  0.75055935  0.30267823  1
  F  F475  1  0.45577960  0.75191578  0.79809441  1
  F  F476  1  0.80413379  0.24956185  0.30242176  1
  F  F477  1  0.78341499  0.23229074  0.80204699  1
  F  F478  1  0.78746789  0.75056821  0.29932392  1
  F  F479  1  0.78747430  0.75143371  0.79686276  1
