# generated using pymatgen
data_K24Na3Li5Mg64Fe17Si79(O5F)48
_symmetry_space_group_name_H-M   'P 1'
_cell_length_a   16.09294723
_cell_length_b   18.58745638
_cell_length_c   20.54864985
_cell_angle_alpha   89.98506235
_cell_angle_beta   100.01809106
_cell_angle_gamma   90.01302004
_symmetry_Int_Tables_number   1
_chemical_formula_structural   K24Na3Li5Mg64Fe17Si79(O5F)48
_chemical_formula_sum   'K24 Na3 Li5 Mg64 Fe17 Si79 O240 F48'
_cell_volume   6052.93592315
_cell_formula_units_Z   1
loop_
 _symmetry_equiv_pos_site_id
 _symmetry_equiv_pos_as_xyz
  1  'x, y, z'
loop_
 _atom_site_type_symbol
 _atom_site_label
 _atom_site_symmetry_multiplicity
 _atom_site_fract_x
 _atom_site_fract_y
 _atom_site_fract_z
 _atom_site_occupancy
  K  K0  1  -0.00064120  -0.00580077  -0.00607999  1
  K  K1  1  0.00044148  -0.00353543  0.50166851  1
  K  K2  1  -0.00348412  0.50906702  -0.00577383  1
  K  K3  1  0.00190252  0.50044963  0.50495253  1
  K  K4  1  0.34889366  0.01065276  0.00164141  1
  K  K5  1  0.34474483  -0.00479383  0.49966679  1
  K  K6  1  0.34380780  0.50011795  -0.00485398  1
  K  K7  1  0.33376158  0.50132388  0.50292220  1
  K  K8  1  0.64559456  0.00587826  -0.00593653  1
  K  K9  1  0.66196381  -0.00523258  0.50056953  1
  K  K10  1  0.65636578  0.50101633  -0.00615565  1
  K  K11  1  0.66582602  0.49506031  0.49785160  1
  K  K12  1  0.17884353  0.24463318  -0.00250938  1
  K  K13  1  0.17220049  0.24722728  0.50175668  1
  K  K14  1  0.16793093  0.75933929  -0.00912080  1
  K  K15  1  0.17208143  0.75394867  0.51092984  1
  K  K16  1  0.49141108  0.24151187  -0.00612542  1
  K  K17  1  0.50347654  0.24750102  0.50074235  1
  K  K18  1  0.49518201  0.75786303  -0.00714085  1
  K  K19  1  0.49883196  0.75456662  0.50257636  1
  K  K20  1  0.82570263  0.24751630  -0.00260609  1
  K  K21  1  0.82569242  0.25322995  0.50053438  1
  K  K22  1  0.82761974  0.74539916  -0.01694545  1
  K  K23  1  0.83398643  0.75410961  0.50582838  1
  Na  Na24  1  0.67156136  0.75164482  0.75969210  1
  Na  Na25  1  0.33565011  0.91558073  0.25134753  1
  Na  Na26  1  0.16511399  0.33041914  0.74601574  1
  Li  Li27  1  0.33810846  0.75360748  0.25289191  1
  Li  Li28  1  0.33547566  0.75213090  0.74749109  1
  Li  Li29  1  0.83293897  0.83089898  0.75720144  1
  Li  Li30  1  0.50028864  0.16440104  0.75089796  1
  Li  Li31  1  0.67105985  0.58372894  0.25738475  1
  Mg  Mg32  1  0.50334805  0.50248982  0.25272222  1
  Mg  Mg33  1  0.33625159  0.24928691  0.75160597  1
  Mg  Mg34  1  0.16674221  -0.00163251  0.74550188  1
  Mg  Mg35  1  0.83106255  0.50067210  0.25329902  1
  Mg  Mg36  1  0.83153796  0.50165340  0.75165001  1
  Mg  Mg37  1  0.66471099  0.24798432  0.74988106  1
  Mg  Mg38  1  0.33384132  0.25137556  0.24989016  1
  Mg  Mg39  1  0.83312765  -0.00398704  0.74886502  1
  Mg  Mg40  1  -0.00056712  0.74962338  0.24932624  1
  Mg  Mg41  1  0.16542952  0.49690237  0.74655848  1
  Mg  Mg42  1  -0.00006246  0.24803133  0.25275502  1
  Mg  Mg43  1  0.50004448  0.50252537  0.75587353  1
  Mg  Mg44  1  -0.00342990  0.75203024  0.74874450  1
  Mg  Mg45  1  0.83193578  0.00049356  0.25296187  1
  Mg  Mg46  1  -0.00080110  0.24889519  0.74497533  1
  Mg  Mg47  1  0.66759568  0.74504994  0.25339299  1
  Mg  Mg48  1  0.16641163  0.50121724  0.25104944  1
  Mg  Mg49  1  0.16819243  -0.00081771  0.24824414  1
  Mg  Mg50  1  0.50008549  -0.00034765  0.24856118  1
  Mg  Mg51  1  0.49921264  0.00142081  0.74835940  1
  Mg  Mg52  1  0.66541965  0.25055224  0.25238379  1
  Mg  Mg53  1  0.82956735  0.16461797  0.74633881  1
  Mg  Mg54  1  0.49906398  0.83225290  0.75274873  1
  Mg  Mg55  1  0.66313157  0.08578720  0.74880946  1
  Mg  Mg56  1  0.66516109  0.91297079  0.25078471  1
  Mg  Mg57  1  0.66708347  0.08400537  0.25244957  1
  Mg  Mg58  1  -0.00223128  0.91291574  0.74683853  1
  Mg  Mg59  1  0.00038155  0.08450943  0.25347319  1
  Mg  Mg60  1  0.50205186  0.33604263  0.25174423  1
  Mg  Mg61  1  0.17032759  0.83161798  0.24800111  1
  Mg  Mg62  1  0.16563829  0.66726197  0.74527041  1
  Mg  Mg63  1  0.33510686  0.41693867  0.25279123  1
  Mg  Mg64  1  0.66886088  0.91580755  0.75254485  1
  Mg  Mg65  1  0.83321615  0.66828658  0.75552686  1
  Mg  Mg66  1  0.66889912  0.41833404  0.25401368  1
  Mg  Mg67  1  0.33240286  0.58589882  0.75097348  1
  Mg  Mg68  1  -0.00196623  0.08217108  0.74449772  1
  Mg  Mg69  1  0.66757091  0.58579977  0.75463559  1
  Mg  Mg70  1  0.16652983  0.83231258  0.74457919  1
  Mg  Mg71  1  0.33323282  0.91434986  0.74813604  1
  Mg  Mg72  1  0.00090449  0.91626984  0.24842834  1
  Mg  Mg73  1  0.33416622  0.58706126  0.24950745  1
  Mg  Mg74  1  0.33658683  0.08490139  0.74848132  1
  Mg  Mg75  1  0.49791572  0.66974993  0.75339914  1
  Mg  Mg76  1  0.83321933  0.83319604  0.24983276  1
  Mg  Mg77  1  0.83167560  0.66370591  0.25211116  1
  Mg  Mg78  1  0.16899012  0.66870217  0.24874523  1
  Mg  Mg79  1  0.50067637  0.66665371  0.25049468  1
  Mg  Mg80  1  -0.00060285  0.58468050  0.25135769  1
  Mg  Mg81  1  0.16618575  0.16679944  0.74638635  1
  Mg  Mg82  1  -0.00148660  0.58453526  0.74944161  1
  Mg  Mg83  1  0.16898167  0.16437947  0.24999684  1
  Mg  Mg84  1  0.66687106  0.41562682  0.75392377  1
  Mg  Mg85  1  0.83249751  0.33375348  0.74726213  1
  Mg  Mg86  1  0.49926700  0.16528858  0.25015224  1
  Mg  Mg87  1  0.83454737  0.16501174  0.25364210  1
  Mg  Mg88  1  0.50071072  0.33289265  0.75429769  1
  Mg  Mg89  1  0.49758734  0.83136384  0.25086223  1
  Mg  Mg90  1  0.83414678  0.33396280  0.25342812  1
  Mg  Mg91  1  -0.00181280  0.41506712  0.74510691  1
  Mg  Mg92  1  0.00062865  0.41569870  0.25146422  1
  Mg  Mg93  1  0.33476205  0.41601425  0.75074310  1
  Mg  Mg94  1  0.33585174  0.08447275  0.24813824  1
  Mg  Mg95  1  0.16867687  0.33399673  0.25106018  1
  Fe  Fe96  1  0.36207062  0.83225802  0.61167851  1
  Fe  Fe97  1  0.02558369  0.83283848  0.60623014  1
  Fe  Fe98  1  0.81277388  0.58403460  0.39254521  1
  Fe  Fe99  1  0.30482342  0.33508390  0.39055004  1
  Fe  Fe100  1  0.69004249  0.16705976  0.60774566  1
  Fe  Fe101  1  0.01868796  0.33200891  0.60441897  1
  Fe  Fe102  1  0.47858578  0.91511824  0.39090152  1
  Fe  Fe103  1  0.63839969  0.67062966  0.89567853  1
  Fe  Fe104  1  0.97334397  0.83515237  0.88920854  1
  Fe  Fe105  1  0.53016372  0.08067098  0.11026175  1
  Fe  Fe106  1  0.35655245  0.17153741  0.10864807  1
  Fe  Fe107  1  0.64231291  0.33440502  0.39157255  1
  Fe  Fe108  1  0.97809001  0.16783839  0.39408592  1
  Fe  Fe109  1  0.47506332  0.41674773  0.89275731  1
  Fe  Fe110  1  0.47364343  0.08557607  0.88765617  1
  Fe  Fe111  1  0.80913902  0.57964159  0.89453024  1
  Fe  Fe112  1  0.80393808  0.08099285  0.39318684  1
  Si  Si113  1  0.30112272  0.16930907  0.88506034  1
  Si  Si114  1  0.69470554  0.66537042  0.11644768  1
  Si  Si115  1  0.81538245  0.40994978  0.88833688  1
  Si  Si116  1  0.81619094  0.41578998  0.39041398  1
  Si  Si117  1  0.85330759  0.58620790  0.61595144  1
  Si  Si118  1  0.85971048  0.58123261  0.11521668  1
  Si  Si119  1  0.85649244  0.91847068  0.11398464  1
  Si  Si120  1  0.52442735  0.90705006  0.11120656  1
  Si  Si121  1  0.30198752  0.82838239  0.38583103  1
  Si  Si122  1  0.19175916  0.57780469  0.61285586  1
  Si  Si123  1  0.86232518  0.08421132  0.11499095  1
  Si  Si124  1  0.86120300  0.41587560  0.11588266  1
  Si  Si125  1  0.97642874  0.32852693  0.88323791  1
  Si  Si126  1  0.69410097  0.33591955  0.11611081  1
  Si  Si127  1  0.02777882  0.16497343  0.11403423  1
  Si  Si128  1  0.13603114  0.41706617  0.88273868  1
  Si  Si129  1  0.47365494  0.58824092  0.38571496  1
  Si  Si130  1  0.69426851  0.82912620  0.11431733  1
  Si  Si131  1  0.02193663  0.83344314  0.11280130  1
  Si  Si132  1  0.46774500  0.59014090  0.89156104  1
  Si  Si133  1  0.80523042  0.92304831  0.89019481  1
  Si  Si134  1  0.02148063  0.16127158  0.60981477  1
  Si  Si135  1  0.35663020  0.66291976  0.61384409  1
  Si  Si136  1  0.68890618  0.33793316  0.61440450  1
  Si  Si137  1  0.52789610  0.42068864  0.11552230  1
  Si  Si138  1  0.35985055  0.16791147  0.61485721  1
  Si  Si139  1  0.52568164  0.58595791  0.11551847  1
  Si  Si140  1  0.69898508  0.16993534  0.11359296  1
  Si  Si141  1  0.19543134  0.92254304  0.60709132  1
  Si  Si142  1  0.97967316  0.67136736  0.38710710  1
  Si  Si143  1  0.13898982  0.57952798  0.88335809  1
  Si  Si144  1  0.81377030  0.90973012  0.38710438  1
  Si  Si145  1  0.14458804  0.92078433  0.88517895  1
  Si  Si146  1  0.64704797  0.33170868  0.88976655  1
  Si  Si147  1  0.18848118  0.42152824  0.11419190  1
  Si  Si148  1  0.30383290  0.33478093  0.88667436  1
  Si  Si149  1  0.47245497  0.42355002  0.39016532  1
  Si  Si150  1  0.30325014  0.83221295  0.88212668  1
  Si  Si151  1  0.52741223  0.42106643  0.61797471  1
  Si  Si152  1  0.64767805  0.16717603  0.88778715  1
  Si  Si153  1  0.64082691  0.84390363  0.88982739  1
  Si  Si154  1  0.63551313  0.16421285  0.38834899  1
  Si  Si155  1  0.35707309  0.82712812  0.11398869  1
  Si  Si156  1  0.13468894  0.42015754  0.38639062  1
  Si  Si157  1  0.98014537  0.66603465  0.88946695  1
  Si  Si158  1  0.02688184  0.33166310  0.11484260  1
  Si  Si159  1  0.29767116  0.66621408  0.88240121  1
  Si  Si160  1  0.18846096  0.91262079  0.11262627  1
  Si  Si161  1  0.02327459  0.66048585  0.61108391  1
  Si  Si162  1  0.97951762  0.83334416  0.38244354  1
  Si  Si163  1  0.14388192  0.07735121  0.38608828  1
  Si  Si164  1  0.63997451  0.66380636  0.38771264  1
  Si  Si165  1  0.02221811  0.66810773  0.11382939  1
  Si  Si166  1  0.85326153  0.42232049  0.61222015  1
  Si  Si167  1  0.47258207  0.08453275  0.38706406  1
  Si  Si168  1  0.36517738  0.33335229  0.61502164  1
  Si  Si169  1  0.14163968  0.58494062  0.38482636  1
  Si  Si170  1  0.19820477  0.41413203  0.61083793  1
  Si  Si171  1  0.19288015  0.08822273  0.61290027  1
  Si  Si172  1  0.69136580  0.66932712  0.61784022  1
  Si  Si173  1  0.97805242  0.33515820  0.38607920  1
  Si  Si174  1  0.85616952  0.91774182  0.61114359  1
  Si  Si175  1  0.35710700  0.34364047  0.11212251  1
  Si  Si176  1  0.30608184  0.66553090  0.38473434  1
  Si  Si177  1  0.14250536  0.91394462  0.38284093  1
  Si  Si178  1  0.47060294  0.91481036  0.88787955  1
  Si  Si179  1  0.18815868  0.58577898  0.11331812  1
  Si  Si180  1  0.18958828  0.07916401  0.10950211  1
  Si  Si181  1  0.97649823  0.16494662  0.88125051  1
  Si  Si182  1  0.35742207  0.66359706  0.11284196  1
  Si  Si183  1  0.81223976  0.08572876  0.88571470  1
  Si  Si184  1  0.52251788  0.07992774  0.61149607  1
  Si  Si185  1  0.30686891  0.16401557  0.38667698  1
  Si  Si186  1  0.52517655  0.58524388  0.61686508  1
  Si  Si187  1  0.69667046  0.83586795  0.61974964  1
  Si  Si188  1  0.85900746  0.08029421  0.61131382  1
  Si  Si189  1  0.13978405  0.08355266  0.88022257  1
  Si  Si190  1  0.64705185  0.82753743  0.38847945  1
  Si  Si191  1  0.53030657  0.91482999  0.61460974  1
  O  O192  1  0.25989841  0.11488136  0.07320579  1
  O  O193  1  0.27022107  0.12750006  0.58310955  1
  O  O194  1  0.26876572  0.61853908  0.08354893  1
  O  O195  1  0.27212286  0.61261089  0.58450202  1
  O  O196  1  0.62234915  0.12196860  0.07720962  1
  O  O197  1  0.59435406  0.11207938  0.57318331  1
  O  O198  1  0.60227324  0.62874098  0.08747871  1
  O  O199  1  0.60437087  0.62291569  0.58734756  1
  O  O200  1  0.94111779  0.12029994  0.08456009  1
  O  O201  1  0.95059598  0.09756229  0.58781712  1
  O  O202  1  0.93586392  0.62250444  0.08487119  1
  O  O203  1  0.93678549  0.61197557  0.58543198  1
  O  O204  1  0.10438290  0.37170904  0.08510688  1
  O  O205  1  0.11935023  0.36516294  0.57733975  1
  O  O206  1  0.10050116  0.86797939  0.08136434  1
  O  O207  1  0.11479346  0.87536037  0.57176474  1
  O  O208  1  0.43670867  0.38379038  0.08469746  1
  O  O209  1  0.44531727  0.37087273  0.58733004  1
  O  O210  1  0.43502763  0.86323775  0.08207563  1
  O  O211  1  0.45818837  0.86121217  0.57793812  1
  O  O212  1  0.77096653  0.37686434  0.08589656  1
  O  O213  1  0.76903184  0.37328666  0.58562401  1
  O  O214  1  0.76821318  0.87566587  0.08559288  1
  O  O215  1  0.77487086  0.86431596  0.58427025  1
  O  O216  1  0.27223688  0.39520505  0.08576902  1
  O  O217  1  0.28269374  0.38200935  0.58360873  1
  O  O218  1  0.26774705  0.87208737  0.08596986  1
  O  O219  1  0.27689788  0.89793622  0.57608589  1
  O  O220  1  0.60505399  0.37834857  0.08760946  1
  O  O221  1  0.60897948  0.39252673  0.58821385  1
  O  O222  1  0.60088779  0.86120382  0.08377333  1
  O  O223  1  0.61740355  0.88885194  0.58849407  1
  O  O224  1  0.93716759  0.37321964  0.08599559  1
  O  O225  1  0.92874595  0.39700020  0.57499604  1
  O  O226  1  0.93557105  0.88009744  0.08500689  1
  O  O227  1  0.93053945  0.88955509  0.57331427  1
  O  O228  1  0.10049180  0.12396810  0.08159662  1
  O  O229  1  0.10850836  0.13549121  0.58379888  1
  O  O230  1  0.10213963  0.63243314  0.08440556  1
  O  O231  1  0.10237411  0.61894909  0.58328829  1
  O  O232  1  0.44115199  0.13563823  0.06871508  1
  O  O233  1  0.43380879  0.12554178  0.58438619  1
  O  O234  1  0.43464670  0.62416532  0.08188745  1
  O  O235  1  0.43773000  0.62690109  0.58440710  1
  O  O236  1  0.78370133  0.13756428  0.08668157  1
  O  O237  1  0.78926069  0.13777454  0.57794266  1
  O  O238  1  0.76829584  0.61864200  0.08783661  1
  O  O239  1  0.77181492  0.63755364  0.58541813  1
  O  O240  1  0.06524601  0.09902767  0.42088045  1
  O  O241  1  0.05585545  0.11126574  0.90983461  1
  O  O242  1  0.06152137  0.61837576  0.41402081  1
  O  O243  1  0.05866708  0.60765526  0.91465384  1
  O  O244  1  0.38527655  0.10897746  0.41319666  1
  O  O245  1  0.38102260  0.12436772  0.92116465  1
  O  O246  1  0.38937834  0.61603125  0.41437676  1
  O  O247  1  0.37855404  0.61759787  0.91541198  1
  O  O248  1  0.69797885  0.09873261  0.41716215  1
  O  O249  1  0.73527061  0.12130619  0.91750804  1
  O  O250  1  0.71102384  0.60759471  0.42236293  1
  O  O251  1  0.72292824  0.60884898  0.93723338  1
  O  O252  1  0.20603757  0.36562169  0.42170771  1
  O  O253  1  0.21656470  0.36549590  0.91074537  1
  O  O254  1  0.21475790  0.85553767  0.41341085  1
  O  O255  1  0.22943101  0.87250962  0.91545027  1
  O  O256  1  0.54852031  0.37179632  0.42467892  1
  O  O257  1  0.57294135  0.36217501  0.92613655  1
  O  O258  1  0.57301897  0.85693495  0.42528154  1
  O  O259  1  0.55700091  0.87056270  0.92027862  1
  O  O260  1  0.88994647  0.35325002  0.41240259  1
  O  O261  1  0.89308239  0.35133396  0.91432922  1
  O  O262  1  0.89427408  0.85356514  0.41117276  1
  O  O263  1  0.88081583  0.87142219  0.92627728  1
  O  O264  1  0.04323722  0.40338991  0.40861683  1
  O  O265  1  0.05544293  0.38255430  0.91335560  1
  O  O266  1  0.05473255  0.89135674  0.40943892  1
  O  O267  1  0.06865809  0.89490716  0.92174754  1
  O  O268  1  0.38686621  0.40547387  0.41934020  1
  O  O269  1  0.38189086  0.37999737  0.92744916  1
  O  O270  1  0.37909866  0.87957684  0.41854396  1
  O  O271  1  0.39373295  0.86909504  0.91401650  1
  O  O272  1  0.73520830  0.39405079  0.42331922  1
  O  O273  1  0.73387345  0.37797357  0.91768021  1
  O  O274  1  0.73432220  0.87347757  0.41571778  1
  O  O275  1  0.71684847  0.90303367  0.91744824  1
  O  O276  1  0.22461386  0.12974109  0.41407018  1
  O  O277  1  0.21484600  0.13949089  0.91032350  1
  O  O278  1  0.22617915  0.63108559  0.41535177  1
  O  O279  1  0.21887198  0.63136324  0.91423520  1
  O  O280  1  0.54229016  0.14859423  0.41027930  1
  O  O281  1  0.57347567  0.13581530  0.92331970  1
  O  O282  1  0.55041608  0.64359766  0.41450297  1
  O  O283  1  0.53739682  0.64741639  0.92619145  1
  O  O284  1  0.88377105  0.14786654  0.43013883  1
  O  O285  1  0.89623153  0.13629192  0.91404130  1
  O  O286  1  0.90169659  0.65129443  0.42292397  1
  O  O287  1  0.90460809  0.63725829  0.92565104  1
  O  O288  1  0.17429766  -0.00525477  0.08234307  1
  O  O289  1  0.17667047  0.00757382  0.58221125  1
  O  O290  1  0.16759705  0.50353757  0.08451462  1
  O  O291  1  0.18274455  0.49691743  0.58002910  1
  O  O292  1  0.51820573  -0.01508091  0.07679885  1
  O  O293  1  0.50517597  -0.00372872  0.58490511  1
  O  O294  1  0.52459091  0.50322124  0.08538884  1
  O  O295  1  0.51092454  0.50263413  0.58691776  1
  O  O296  1  0.84813984  0.00156499  0.08488502  1
  O  O297  1  0.82890775  -0.00016143  0.58303949  1
  O  O298  1  0.85843235  0.49836188  0.08651344  1
  O  O299  1  0.82693838  0.50537288  0.58725763  1
  O  O300  1  0.01846845  0.24877920  0.08533913  1
  O  O301  1  -0.00871384  0.23665429  0.57476710  1
  O  O302  1  0.00780173  0.75040846  0.08475943  1
  O  O303  1  0.01058683  0.73697661  0.57358184  1
  O  O304  1  0.33607635  0.26764936  0.07593682  1
  O  O305  1  0.35437667  0.25112287  0.58456980  1
  O  O306  1  0.34279959  0.74503320  0.08065394  1
  O  O307  1  0.33602571  0.73906859  0.57711873  1
  O  O308  1  0.69006021  0.25426233  0.08525583  1
  O  O309  1  0.66562477  0.26201588  0.57843355  1
  O  O310  1  0.69722498  0.74693039  0.08489366  1
  O  O311  1  0.67528094  0.75260647  0.59081219  1
  O  O312  1  0.17212025  -0.00588716  0.41037542  1
  O  O313  1  0.16744827  0.00446864  0.91139235  1
  O  O314  1  0.15884954  0.50301398  0.41292319  1
  O  O315  1  0.15750365  0.49782945  0.91519294  1
  O  O316  1  0.50164582  0.00961076  0.42402357  1
  O  O317  1  0.47788855  -0.00781923  0.92415055  1
  O  O318  1  0.49837718  0.50784306  0.41502390  1
  O  O319  1  0.48872529  0.51138975  0.92587959  1
  O  O320  1  0.83942437  -0.01394705  0.42113083  1
  O  O321  1  0.83118460  0.00604391  0.91903666  1
  O  O322  1  0.85442513  0.49220588  0.42032121  1
  O  O323  1  0.84445795  0.48478952  0.92420615  1
  O  O324  1  0.32945183  0.24108041  0.42250614  1
  O  O325  1  0.30992749  0.25158397  0.91482557  1
  O  O326  1  0.32101980  0.74577393  0.41673912  1
  O  O327  1  0.30806700  0.74900729  0.91155591  1
  O  O328  1  0.66805660  0.24055269  0.42211290  1
  O  O329  1  0.67113242  0.24936359  0.91631114  1
  O  O330  1  0.66883114  0.74476609  0.41601162  1
  O  O331  1  0.66927081  0.76681130  0.92268668  1
  O  O332  1  1.02023266  0.26197768  0.41792272  1
  O  O333  1  1.00153509  0.24629839  0.91104108  1
  O  O334  1  1.01319506  0.75374324  0.40933288  1
  O  O335  1  1.01157138  0.74342478  0.92156334  1
  O  O336  1  0.20696723  0.08263501  0.19038857  1
  O  O337  1  0.21077596  0.08444106  0.69337752  1
  O  O338  1  0.20731040  0.58457638  0.19363240  1
  O  O339  1  0.20821068  0.58068490  0.69317808  1
  O  O340  1  0.54785168  0.08359664  0.20220391  1
  O  O341  1  0.54528149  0.08087544  0.69137796  1
  O  O342  1  0.53771158  0.58444671  0.19480286  1
  O  O343  1  0.54176542  0.58273341  0.69688454  1
  O  O344  1  0.87988929  0.08115781  0.19485314  1
  O  O345  1  0.87500191  0.08224645  0.69276765  1
  O  O346  1  0.88027677  0.58294690  0.19524266  1
  O  O347  1  0.87606477  0.58374543  0.69608377  1
  O  O348  1  0.04458622  0.33323639  0.19514980  1
  O  O349  1  0.03105265  0.33218426  0.69442951  1
  O  O350  1  0.04033215  0.83309191  0.19304994  1
  O  O351  1  0.04600182  0.83270831  0.69738923  1
  O  O352  1  0.37731275  0.33995950  0.19294947  1
  O  O353  1  0.37860765  0.33288956  0.69496894  1
  O  O354  1  0.38039572  0.82396857  0.19219708  1
  O  O355  1  0.37961379  0.83522378  0.70171388  1
  O  O356  1  0.71344851  0.33471955  0.19611334  1
  O  O357  1  0.70879858  0.33516154  0.69558647  1
  O  O358  1  0.71219141  0.83087589  0.19489483  1
  O  O359  1  0.71589800  0.84048730  0.69832347  1
  O  O360  1  0.20551713  0.42031618  0.19436277  1
  O  O361  1  0.21655625  0.42165821  0.69059756  1
  O  O362  1  0.19893130  0.91505677  0.19171085  1
  O  O363  1  0.20897362  0.91849088  0.68876932  1
  O  O364  1  0.54308998  0.42006646  0.19551455  1
  O  O365  1  0.54455976  0.41908304  0.69804324  1
  O  O366  1  0.54546669  0.90960930  0.19171281  1
  O  O367  1  0.54427799  0.91644420  0.69540124  1
  O  O368  1  0.87956137  0.41557901  0.19609803  1
  O  O369  1  0.87318997  0.41867766  0.69349274  1
  O  O370  1  0.87632240  0.91661960  0.19443464  1
  O  O371  1  0.87926279  0.92179446  0.69088371  1
  O  O372  1  0.04561667  0.16588532  0.19417406  1
  O  O373  1  0.04148454  0.16447280  0.69105564  1
  O  O374  1  0.04137309  0.66615527  0.19419998  1
  O  O375  1  0.04264715  0.66325528  0.69194554  1
  O  O376  1  0.37687647  0.16998203  0.20094761  1
  O  O377  1  0.37371629  0.16835015  0.69415299  1
  O  O378  1  0.37692281  0.66190603  0.19228575  1
  O  O379  1  0.37634109  0.66143405  0.69385470  1
  O  O380  1  0.71265256  0.16968413  0.19425316  1
  O  O381  1  0.70965860  0.16679638  0.69962934  1
  O  O382  1  0.71324413  0.66916860  0.19580687  1
  O  O383  1  0.71315344  0.66081209  0.69635241  1
  O  O384  1  0.12352871  0.08148202  0.30453730  1
  O  O385  1  0.12137000  0.08214322  0.79996808  1
  O  O386  1  0.12316408  0.58539189  0.30386066  1
  O  O387  1  0.12268550  0.58100416  0.80300571  1
  O  O388  1  0.45560909  0.08172450  0.30623543  1
  O  O389  1  0.45421114  0.08193523  0.79769587  1
  O  O390  1  0.45492351  0.58569552  0.30518621  1
  O  O391  1  0.45213845  0.58506945  0.81008649  1
  O  O392  1  0.78872601  0.08250511  0.29965519  1
  O  O393  1  0.79392733  0.08372816  0.80573068  1
  O  O394  1  0.79424853  0.58333551  0.30158517  1
  O  O395  1  0.78929534  0.58114488  0.80255614  1
  O  O396  1  0.28761934  0.33494377  0.29814404  1
  O  O397  1  0.29815237  0.33476829  0.80732475  1
  O  O398  1  0.28163662  0.82468858  0.30665764  1
  O  O399  1  0.28305098  0.83654127  0.80288895  1
  O  O400  1  0.62242986  0.33506798  0.29938611  1
  O  O401  1  0.62612187  0.33376716  0.80879059  1
  O  O402  1  0.62780376  0.82945646  0.30711161  1
  O  O403  1  0.61821639  0.84517113  0.81016942  1
  O  O404  1  0.95900389  0.33365859  0.30426036  1
  O  O405  1  0.95562962  0.33140725  0.80335653  1
  O  O406  1  0.95827615  0.83356374  0.30155426  1
  O  O407  1  0.95697836  0.83461285  0.79942198  1
  O  O408  1  0.12284078  0.41862837  0.30485536  1
  O  O409  1  0.11574928  0.42297688  0.80370867  1
  O  O410  1  0.12295578  0.91444079  0.30203974  1
  O  O411  1  0.12584600  0.91859914  0.80444837  1
  O  O412  1  0.45699403  0.42047218  0.30818304  1
  O  O413  1  0.45608249  0.41745348  0.80134254  1
  O  O414  1  0.46944269  0.91619153  0.30104885  1
  O  O415  1  0.45489603  0.91847521  0.80746690  1
  O  O416  1  0.79426169  0.41594280  0.30828038  1
  O  O417  1  0.79378674  0.41342960  0.80728475  1
  O  O418  1  0.79264996  0.91277809  0.30560348  1
  O  O419  1  0.78947074  0.92360404  0.81023772  1
  O  O420  1  0.28758068  0.16796991  0.30551564  1
  O  O421  1  0.28770984  0.16669270  0.80459464  1
  O  O422  1  0.28632174  0.66257933  0.30485823  1
  O  O423  1  0.28188028  0.66321661  0.80297488  1
  O  O424  1  0.62308266  0.16825145  0.30657864  1
  O  O425  1  0.62936283  0.16669176  0.80793188  1
  O  O426  1  0.62188834  0.66600138  0.30728692  1
  O  O427  1  0.61522880  0.65754713  0.80604647  1
  O  O428  1  0.95653303  0.16635869  0.30039969  1
  O  O429  1  0.95487184  0.16486587  0.80116772  1
  O  O430  1  0.95909480  0.66748880  0.30567916  1
  O  O431  1  0.96160900  0.66426020  0.80808349  1
  F  F432  1  0.04364344  0.00080608  0.20106260  1
  F  F433  1  0.04594786  -0.00112452  0.69956888  1
  F  F434  1  0.04528465  0.50069820  0.20135443  1
  F  F435  1  0.04338795  0.50107159  0.69857926  1
  F  F436  1  0.38257482  0.00951137  0.19511037  1
  F  F437  1  0.37663634  -0.00115186  0.69932764  1
  F  F438  1  0.37840899  0.50097708  0.20363996  1
  F  F439  1  0.37924823  0.50250268  0.70343315  1
  F  F440  1  0.71325170  -0.00537473  0.20089135  1
  F  F441  1  0.71207738  0.00163528  0.70401380  1
  F  F442  1  0.71658659  0.49184444  0.19926203  1
  F  F443  1  0.70937839  0.49706260  0.70447451  1
  F  F444  1  0.20889005  0.24967563  0.19909486  1
  F  F445  1  0.21880142  0.24134936  0.69775703  1
  F  F446  1  0.19938003  0.74808567  0.19433757  1
  F  F447  1  0.20478998  0.74843749  0.69561689  1
  F  F448  1  0.54430092  0.25103274  0.20101466  1
  F  F449  1  0.54692328  0.25632878  0.70308351  1
  F  F450  1  0.54857844  0.74785436  0.20220301  1
  F  F451  1  0.53434922  0.75021212  0.70086257  1
  F  F452  1  0.87918628  0.25212261  0.20123709  1
  F  F453  1  0.87536865  0.24906572  0.70056136  1
  F  F454  1  0.87896652  0.74862829  0.20156491  1
  F  F455  1  0.88110271  0.73911723  0.69871616  1
  F  F456  1  0.28245583  0.00975373  0.29711236  1
  F  F457  1  0.28633159  0.00043338  0.79445323  1
  F  F458  1  0.28638430  0.50279074  0.29661659  1
  F  F459  1  0.28558806  0.49974626  0.79764068  1
  F  F460  1  0.62517370  -0.00427366  0.29683640  1
  F  F461  1  0.62053493  0.00295487  0.79768252  1
  F  F462  1  0.62096190  0.49874284  0.29942686  1
  F  F463  1  0.62216538  0.49795945  0.80175011  1
  F  F464  1  0.95563387  -0.00268070  0.29712587  1
  F  F465  1  0.95602454  0.00116954  0.79582689  1
  F  F466  1  0.95698622  0.50044211  0.29647852  1
  F  F467  1  0.95479590  0.49853442  0.79576841  1
  F  F468  1  0.12262463  0.24935291  0.29584033  1
  F  F469  1  0.11454889  0.23839938  0.79926679  1
  F  F470  1  0.11861159  0.74887367  0.29578123  1
  F  F471  1  0.12190757  0.74723248  0.79612442  1
  F  F472  1  0.45482478  0.25482670  0.29780822  1
  F  F473  1  0.45364485  0.25343226  0.80200733  1
  F  F474  1  0.45912988  0.74706834  0.29924848  1
  F  F475  1  0.45635662  0.74998385  0.80360057  1
  F  F476  1  0.78855433  0.25049195  0.29760415  1
  F  F477  1  0.79007315  0.25130820  0.79770829  1
  F  F478  1  0.79098073  0.75017819  0.29830353  1
  F  F479  1  0.80559981  0.74647548  0.81058968  1
