# generated using pymatgen
data_K24Na3Li5Mg64Fe17Si79(O5F)48
_symmetry_space_group_name_H-M   'P 1'
_cell_length_a   16.09017442
_cell_length_b   18.58329767
_cell_length_c   20.55406278
_cell_angle_alpha   89.98720646
_cell_angle_beta   100.01005321
_cell_angle_gamma   90.03110672
_symmetry_Int_Tables_number   1
_chemical_formula_structural   K24Na3Li5Mg64Fe17Si79(O5F)48
_chemical_formula_sum   'K24 Na3 Li5 Mg64 Fe17 Si79 O240 F48'
_cell_volume   6052.28209375
_cell_formula_units_Z   1
loop_
 _symmetry_equiv_pos_site_id
 _symmetry_equiv_pos_as_xyz
  1  'x, y, z'
loop_
 _atom_site_type_symbol
 _atom_site_label
 _atom_site_symmetry_multiplicity
 _atom_site_fract_x
 _atom_site_fract_y
 _atom_site_fract_z
 _atom_site_occupancy
  K  K0  1  -0.00400216  0.00551301  0.00235113  1
  K  K1  1  -0.00473779  -0.00546458  0.49155859  1
  K  K2  1  -0.00296933  0.49083016  0.00717182  1
  K  K3  1  -0.01206274  0.50356740  0.49284320  1
  K  K4  1  0.33700269  0.00158730  -0.00287500  1
  K  K5  1  0.33847217  0.00671005  0.50500879  1
  K  K6  1  0.32568315  0.49835343  -0.00136541  1
  K  K7  1  0.32946168  0.49486787  0.49925785  1
  K  K8  1  0.66434106  0.00425261  0.00337611  1
  K  K9  1  0.66125301  0.00062935  0.49833365  1
  K  K10  1  0.67015359  0.49547620  0.00360556  1
  K  K11  1  0.68654251  0.50330501  0.50104085  1
  K  K12  1  0.16329435  0.24720587  0.00279547  1
  K  K13  1  0.16541510  0.25749657  0.49456997  1
  K  K14  1  0.16765948  0.75244573  0.00287868  1
  K  K15  1  0.15984436  0.75551271  0.49775107  1
  K  K16  1  0.49467360  0.24887512  0.00208805  1
  K  K17  1  0.50230965  0.24290799  0.50371985  1
  K  K18  1  0.49684559  0.75535543  -0.00375124  1
  K  K19  1  0.50366499  0.74918509  0.50210646  1
  K  K20  1  0.84233888  0.25329920  0.00383071  1
  K  K21  1  0.83610182  0.25156428  0.49875974  1
  K  K22  1  0.83465158  0.75395734  0.00719168  1
  K  K23  1  0.84858524  0.73820747  0.49637626  1
  Na  Na24  1  0.50039152  0.00048986  0.75360977  1
  Na  Na25  1  0.66455878  0.08069014  0.24735723  1
  Na  Na26  1  0.83375827  0.33189735  0.75340241  1
  Li  Li27  1  0.32633944  0.25234976  0.24788251  1
  Li  Li28  1  0.16643724  0.50112019  0.74778783  1
  Li  Li29  1  0.50051862  0.66584990  0.74987612  1
  Li  Li30  1  0.17033204  0.33079162  0.24449824  1
  Li  Li31  1  -0.00497786  0.91349213  0.24524296  1
  Mg  Mg32  1  0.16584662  -0.00030527  0.25001635  1
  Mg  Mg33  1  0.16507962  0.49474952  0.24940990  1
  Mg  Mg34  1  0.66392294  0.74713671  0.74627013  1
  Mg  Mg35  1  0.83722009  0.50075340  0.74732149  1
  Mg  Mg36  1  0.66668676  0.75029510  0.25060239  1
  Mg  Mg37  1  0.33333196  0.25024601  0.75094280  1
  Mg  Mg38  1  0.00373741  0.25052322  0.25435909  1
  Mg  Mg39  1  0.33218299  0.75105875  0.24763242  1
  Mg  Mg40  1  0.33639742  0.74822632  0.75241628  1
  Mg  Mg41  1  0.83090746  -0.00044999  0.75053472  1
  Mg  Mg42  1  0.16760416  0.00017417  0.75200893  1
  Mg  Mg43  1  0.66527017  0.25058351  0.75205151  1
  Mg  Mg44  1  0.83303327  0.49849291  0.25225286  1
  Mg  Mg45  1  -0.00270866  0.24953619  0.75268904  1
  Mg  Mg46  1  0.00294391  0.74874496  0.74364209  1
  Mg  Mg47  1  0.66655893  0.24847340  0.24973761  1
  Mg  Mg48  1  -0.00106298  0.75446424  0.24948425  1
  Mg  Mg49  1  0.49782962  0.49876035  0.25102341  1
  Mg  Mg50  1  0.83554996  -0.00225328  0.25035931  1
  Mg  Mg51  1  0.50146662  0.50160465  0.75031559  1
  Mg  Mg52  1  0.49974605  0.00015428  0.24886865  1
  Mg  Mg53  1  0.66682044  0.41452515  0.25305809  1
  Mg  Mg54  1  0.83292850  0.16576917  0.75113656  1
  Mg  Mg55  1  0.49982536  0.82981637  0.75011715  1
  Mg  Mg56  1  0.32873275  0.41182699  0.24851945  1
  Mg  Mg57  1  0.67037707  0.41610757  0.75258956  1
  Mg  Mg58  1  0.33189343  0.41843685  0.75163745  1
  Mg  Mg59  1  0.66648056  0.58386031  0.25070643  1
  Mg  Mg60  1  0.49712480  0.66574980  0.24974307  1
  Mg  Mg61  1  0.32816884  0.58213440  0.24665649  1
  Mg  Mg62  1  0.66458119  0.08480776  0.75237237  1
  Mg  Mg63  1  0.50222917  0.16601828  0.75025997  1
  Mg  Mg64  1  0.33258686  0.08758861  0.25033498  1
  Mg  Mg65  1  0.83400516  0.83562859  0.24856627  1
  Mg  Mg66  1  0.16378288  0.83671124  0.24967528  1
  Mg  Mg67  1  0.83296357  0.83266100  0.74560317  1
  Mg  Mg68  1  0.33456287  0.58317769  0.75005124  1
  Mg  Mg69  1  0.00010013  0.08042232  0.25341810  1
  Mg  Mg70  1  0.66686378  0.91538108  0.25010515  1
  Mg  Mg71  1  0.49527252  0.33157722  0.25108225  1
  Mg  Mg72  1  0.00144996  0.41721870  0.74907202  1
  Mg  Mg73  1  0.66380603  0.91507763  0.74599609  1
  Mg  Mg74  1  0.50378790  0.33529393  0.75275738  1
  Mg  Mg75  1  0.33152862  0.91645599  0.24709381  1
  Mg  Mg76  1  0.83298073  0.66520733  0.25032125  1
  Mg  Mg77  1  0.16629708  0.16630274  0.75259440  1
  Mg  Mg78  1  0.00409057  0.58327826  0.74438702  1
  Mg  Mg79  1  0.16276169  0.66649221  0.24596481  1
  Mg  Mg80  1  -0.00157698  0.08490364  0.75256130  1
  Mg  Mg81  1  0.00072572  0.91617732  0.74778504  1
  Mg  Mg82  1  0.83244969  0.16500316  0.25261050  1
  Mg  Mg83  1  0.00093220  0.41193031  0.25153727  1
  Mg  Mg84  1  0.66767628  0.58456243  0.74791095  1
  Mg  Mg85  1  0.17004211  0.83342867  0.74921154  1
  Mg  Mg86  1  0.49781176  0.83452771  0.24795738  1
  Mg  Mg87  1  0.16880253  0.17056541  0.25263361  1
  Mg  Mg88  1  0.16563579  0.33628293  0.75086289  1
  Mg  Mg89  1  0.16773633  0.66345676  0.74677228  1
  Mg  Mg90  1  0.33514794  0.08439062  0.75016810  1
  Mg  Mg91  1  0.33685246  0.91540869  0.75291426  1
  Mg  Mg92  1  0.49695714  0.16809141  0.24964567  1
  Mg  Mg93  1  0.83551467  0.33299322  0.25324767  1
  Mg  Mg94  1  0.83647910  0.66523874  0.74465538  1
  Mg  Mg95  1  -0.00180200  0.58366813  0.24865333  1
  Fe  Fe96  1  0.30896598  0.83275215  0.89044604  1
  Fe  Fe97  1  0.86340333  0.57865521  0.60646419  1
  Fe  Fe98  1  0.03454979  0.67081937  0.60394607  1
  Fe  Fe99  1  0.97880944  0.83838827  0.38925971  1
  Fe  Fe100  1  0.96842039  0.16726582  0.89257405  1
  Fe  Fe101  1  0.97951952  0.32941984  0.39514827  1
  Fe  Fe102  1  0.36020134  0.83337226  0.10965137  1
  Fe  Fe103  1  0.69301814  0.83565623  0.11115328  1
  Fe  Fe104  1  0.02886506  0.83868991  0.10955214  1
  Fe  Fe105  1  0.65197085  0.33826175  0.89421441  1
  Fe  Fe106  1  0.19232691  0.41108729  0.10967300  1
  Fe  Fe107  1  0.52280151  0.08144891  0.60705048  1
  Fe  Fe108  1  0.47388310  0.08910942  0.89239703  1
  Fe  Fe109  1  0.64738607  0.16860726  0.89279848  1
  Fe  Fe110  1  0.85794186  0.41417538  0.11238139  1
  Fe  Fe111  1  0.80477918  0.58512560  0.38884653  1
  Fe  Fe112  1  0.68609923  0.16740886  0.11068846  1
  Si  Si113  1  0.52660153  0.91756282  0.11301860  1
  Si  Si114  1  0.52190809  0.90825191  0.61026589  1
  Si  Si115  1  0.14185294  0.58444537  0.88310039  1
  Si  Si116  1  0.14540282  0.41926331  0.38867251  1
  Si  Si117  1  0.63467581  0.33169775  0.38746081  1
  Si  Si118  1  0.85788729  0.08516371  0.11546016  1
  Si  Si119  1  0.31039014  0.83266860  0.38593729  1
  Si  Si120  1  0.02749571  0.16255818  0.61566962  1
  Si  Si121  1  0.98017237  0.67180749  0.88262666  1
  Si  Si122  1  0.47215164  0.91958950  0.38538805  1
  Si  Si123  1  0.52814844  0.58403012  0.61393583  1
  Si  Si124  1  0.35736930  0.16832889  0.11577118  1
  Si  Si125  1  0.35683441  0.82667621  0.61376867  1
  Si  Si126  1  0.19366809  0.08479820  0.61543992  1
  Si  Si127  1  0.02712386  0.32853442  0.61528703  1
  Si  Si128  1  0.02574557  0.32626682  0.11362994  1
  Si  Si129  1  0.47370704  0.41494677  0.88820841  1
  Si  Si130  1  0.35380255  0.66253254  0.11233411  1
  Si  Si131  1  0.68597194  0.66581558  0.11266447  1
  Si  Si132  1  0.68789546  0.33229055  0.61479735  1
  Si  Si133  1  0.85577359  0.92105809  0.61276138  1
  Si  Si134  1  0.35396347  0.17273704  0.61120616  1
  Si  Si135  1  0.47714782  0.57981806  0.88399498  1
  Si  Si136  1  0.68591138  0.33362327  0.11533024  1
  Si  Si137  1  0.52529419  0.41913378  0.61345685  1
  Si  Si138  1  0.51429606  0.07917867  0.11414106  1
  Si  Si139  1  0.20068031  0.58196345  0.61133393  1
  Si  Si140  1  0.13813383  0.91742016  0.88530428  1
  Si  Si141  1  0.98156610  0.66668733  0.38586210  1
  Si  Si142  1  0.36524601  0.33421585  0.11249560  1
  Si  Si143  1  0.35760342  0.33813745  0.61501717  1
  Si  Si144  1  0.18620287  0.58093243  0.11167537  1
  Si  Si145  1  0.30506586  0.66753064  0.38307969  1
  Si  Si146  1  0.02180645  0.66798143  0.11139049  1
  Si  Si147  1  0.80353017  0.91690442  0.39049356  1
  Si  Si148  1  0.52236272  0.58151624  0.11597038  1
  Si  Si149  1  0.97819606  0.33862805  0.88846537  1
  Si  Si150  1  0.81399902  0.43037494  0.88691890  1
  Si  Si151  1  0.52731696  0.41784962  0.11800359  1
  Si  Si152  1  0.69280147  0.16682580  0.61108814  1
  Si  Si153  1  0.81474988  0.59187587  0.88383444  1
  Si  Si154  1  0.19727637  0.92409746  0.11047048  1
  Si  Si155  1  0.19058228  0.41655538  0.61538587  1
  Si  Si156  1  0.64400922  0.66348121  0.88326115  1
  Si  Si157  1  0.63936994  0.16795891  0.38611657  1
  Si  Si158  1  0.36208049  0.66231459  0.61557817  1
  Si  Si159  1  0.85927010  0.92124784  0.11096259  1
  Si  Si160  1  0.30073185  0.16901832  0.88773515  1
  Si  Si161  1  0.85792802  0.08606828  0.61450669  1
  Si  Si162  1  0.80332828  0.07317766  0.88753958  1
  Si  Si163  1  0.63183023  0.66960236  0.38783001  1
  Si  Si164  1  0.31176110  0.66198310  0.88719002  1
  Si  Si165  1  0.85913402  0.40993453  0.61224542  1
  Si  Si166  1  0.02555893  0.84334773  0.60994680  1
  Si  Si167  1  0.30896773  0.33408853  0.38503826  1
  Si  Si168  1  0.97480191  0.83452502  0.88051895  1
  Si  Si169  1  0.19698483  0.91986429  0.61488909  1
  Si  Si170  1  0.14899354  0.08283432  0.38792951  1
  Si  Si171  1  0.15273700  0.92023404  0.38958060  1
  Si  Si172  1  0.64179788  0.82850981  0.88330786  1
  Si  Si173  1  0.13796072  0.08229337  0.88704544  1
  Si  Si174  1  0.30420792  0.33607308  0.88536247  1
  Si  Si175  1  0.80776720  0.08259674  0.38757256  1
  Si  Si176  1  0.48009172  0.91449568  0.88867904  1
  Si  Si177  1  0.19071784  0.08865057  0.11708336  1
  Si  Si178  1  0.85519371  0.58458666  0.11249050  1
  Si  Si179  1  0.47148147  0.41691848  0.38660417  1
  Si  Si180  1  0.14378600  0.58238538  0.38306434  1
  Si  Si181  1  0.02358689  0.16301376  0.12014439  1
  Si  Si182  1  0.69242667  0.66701640  0.60948245  1
  Si  Si183  1  0.80326502  0.41135493  0.39197763  1
  Si  Si184  1  0.69143850  0.83311836  0.61091889  1
  Si  Si185  1  0.97903877  0.15754448  0.39183753  1
  Si  Si186  1  0.47352415  0.08504166  0.38652065  1
  Si  Si187  1  0.46802776  0.58276695  0.38473316  1
  Si  Si188  1  0.63513153  0.83545930  0.38604370  1
  Si  Si189  1  0.13941034  0.41967807  0.88409063  1
  Si  Si190  1  0.30918176  0.16985511  0.38714126  1
  Si  Si191  1  0.80769543  0.90895726  0.88158147  1
  O  O192  1  0.26876390  0.12507696  0.08608441  1
  O  O193  1  0.26106889  0.13406118  0.58396700  1
  O  O194  1  0.27387451  0.60783988  0.08607849  1
  O  O195  1  0.28914087  0.60426242  0.58388163  1
  O  O196  1  0.59666086  0.10107955  0.08382921  1
  O  O197  1  0.61579772  0.11926927  0.57173929  1
  O  O198  1  0.60622881  0.60834207  0.08699308  1
  O  O199  1  0.60338946  0.62299229  0.58186576  1
  O  O200  1  0.94857821  0.10606683  0.09109488  1
  O  O201  1  0.93946370  0.11973884  0.58599909  1
  O  O202  1  0.93902285  0.61589992  0.08444551  1
  O  O203  1  0.94603091  0.61493407  0.56435931  1
  O  O204  1  0.10869987  0.34277717  0.08038546  1
  O  O205  1  0.10429842  0.36976613  0.58633118  1
  O  O206  1  0.12418423  0.87009142  0.07488605  1
  O  O207  1  0.10347934  0.88757192  0.58375197  1
  O  O208  1  0.45293211  0.36150426  0.08649733  1
  O  O209  1  0.43558390  0.37669369  0.58461401  1
  O  O210  1  0.46186285  0.85423195  0.08210668  1
  O  O211  1  0.43767469  0.85652293  0.58206587  1
  O  O212  1  0.76657221  0.35360288  0.08158638  1
  O  O213  1  0.77067460  0.36348843  0.58711623  1
  O  O214  1  0.78694614  0.86498125  0.07545960  1
  O  O215  1  0.77063099  0.87340409  0.58311402  1
  O  O216  1  0.29011961  0.38451525  0.07471909  1
  O  O217  1  0.27013075  0.38151038  0.58385361  1
  O  O218  1  0.28368362  0.90762685  0.08220232  1
  O  O219  1  0.27062318  0.87423639  0.58526132  1
  O  O220  1  0.61429192  0.39863882  0.09176071  1
  O  O221  1  0.60182070  0.37948012  0.58254001  1
  O  O222  1  0.61262909  0.90725471  0.08325099  1
  O  O223  1  0.60334955  0.87420395  0.57921297  1
  O  O224  1  0.95044213  0.37896148  0.07763312  1
  O  O225  1  0.93527518  0.36338443  0.58499366  1
  O  O226  1  0.94334670  0.90488436  0.07905907  1
  O  O227  1  0.93893572  0.89199557  0.58472664  1
  O  O228  1  0.10743944  0.13804280  0.08952530  1
  O  O229  1  0.10019191  0.11802235  0.58498016  1
  O  O230  1  0.10721078  0.63666612  0.08524090  1
  O  O231  1  0.13075128  0.63599555  0.57286314  1
  O  O232  1  0.43237021  0.13052528  0.08288108  1
  O  O233  1  0.42263017  0.13510345  0.57379161  1
  O  O234  1  0.43900778  0.63020220  0.08622857  1
  O  O235  1  0.44492003  0.63371823  0.58525868  1
  O  O236  1  0.78710300  0.14127174  0.08076392  1
  O  O237  1  0.77888706  0.13795916  0.58349603  1
  O  O238  1  0.77208811  0.63721926  0.08660401  1
  O  O239  1  0.76404951  0.63208394  0.57460668  1
  O  O240  1  0.06435389  0.10648160  0.41790741  1
  O  O241  1  0.05965857  0.10426049  0.92204953  1
  O  O242  1  0.06122897  0.60982188  0.41163588  1
  O  O243  1  0.06274256  0.62221612  0.91323840  1
  O  O244  1  0.39810864  0.12624744  0.41755393  1
  O  O245  1  0.37473217  0.11867240  0.92492832  1
  O  O246  1  0.38683126  0.61659084  0.41363588  1
  O  O247  1  0.39666210  0.61227284  0.91429875  1
  O  O248  1  0.73134743  0.12925361  0.41419069  1
  O  O249  1  0.71681683  0.08701192  0.91462730  1
  O  O250  1  0.71468163  0.62826877  0.42348751  1
  O  O251  1  0.73197023  0.62014831  0.91458457  1
  O  O252  1  0.23269035  0.37210917  0.41672378  1
  O  O253  1  0.22524275  0.37327921  0.91401754  1
  O  O254  1  0.23639833  0.86910386  0.42041266  1
  O  O255  1  0.20903632  0.86231102  0.92014669  1
  O  O256  1  0.55676598  0.37113510  0.41685880  1
  O  O257  1  0.55041364  0.36628444  0.92423226  1
  O  O258  1  0.56086795  0.87910227  0.41648719  1
  O  O259  1  0.56295532  0.86007309  0.91416207  1
  O  O260  1  0.88213254  0.36163509  0.42538042  1
  O  O261  1  0.89800908  0.38019431  0.91243662  1
  O  O262  1  0.88829613  0.87788597  0.42771698  1
  O  O263  1  0.88840171  0.85547429  0.90840873  1
  O  O264  1  0.07415688  0.38876728  0.42848994  1
  O  O265  1  0.06225230  0.38845272  0.91825828  1
  O  O266  1  0.07550682  0.89458763  0.42441873  1
  O  O267  1  0.04723124  0.89434960  0.90821643  1
  O  O268  1  0.39480417  0.38050476  0.41858455  1
  O  O269  1  0.38688647  0.38565306  0.91394563  1
  O  O270  1  0.39795760  0.87659536  0.41584718  1
  O  O271  1  0.40351031  0.88791414  0.92582831  1
  O  O272  1  0.71951181  0.37582738  0.41893002  1
  O  O273  1  0.73628987  0.40887631  0.92299637  1
  O  O274  1  0.72264549  0.87695672  0.41709771  1
  O  O275  1  0.72806224  0.87466084  0.91144654  1
  O  O276  1  0.23000862  0.13533395  0.41916696  1
  O  O277  1  0.21379427  0.14058340  0.91259183  1
  O  O278  1  0.22394986  0.63636053  0.41253277  1
  O  O279  1  0.23047344  0.62523468  0.91504165  1
  O  O280  1  0.56499323  0.12317501  0.41670757  1
  O  O281  1  0.55201010  0.15585242  0.92991011  1
  O  O282  1  0.54898389  0.63324924  0.41466478  1
  O  O283  1  0.56457762  0.62597450  0.91235507  1
  O  O284  1  0.89977890  0.11801422  0.42174977  1
  O  O285  1  0.87834586  0.12487049  0.92472507  1
  O  O286  1  0.90271689  0.63767231  0.41799487  1
  O  O287  1  0.89539716  0.64579520  0.91164153  1
  O  O288  1  0.17044408  0.00812359  0.08648336  1
  O  O289  1  0.19913210  0.00265880  0.58605420  1
  O  O290  1  0.16059530  0.50473243  0.07643397  1
  O  O291  1  0.17944682  0.49807245  0.58487806  1
  O  O292  1  0.48450168  -0.00314256  0.08940895  1
  O  O293  1  0.50186430  -0.01450117  0.57527378  1
  O  O294  1  0.49950485  0.49918817  0.08928274  1
  O  O295  1  0.51378630  0.50158497  0.58228190  1
  O  O296  1  0.83073731  0.00450608  0.08642218  1
  O  O297  1  0.83884283  0.00381818  0.58405075  1
  O  O298  1  0.83234398  0.50776650  0.07745313  1
  O  O299  1  0.84566240  0.48450034  0.57201839  1
  O  O300  1  -0.00368751  0.24238158  0.09027746  1
  O  O301  1  0.02457034  0.24513929  0.58649058  1
  O  O302  1  0.00048676  0.74459343  0.07545533  1
  O  O303  1  0.01389273  0.76743188  0.57284633  1
  O  O304  1  0.34819173  0.25048786  0.08549143  1
  O  O305  1  0.34397086  0.25703389  0.58367896  1
  O  O306  1  0.32883411  0.73937320  0.07875777  1
  O  O307  1  0.33909496  0.74403475  0.58441510  1
  O  O308  1  0.64296496  0.25940196  0.08503900  1
  O  O309  1  0.67454895  0.25060344  0.58362011  1
  O  O310  1  0.65904705  0.74194925  0.07757683  1
  O  O311  1  0.67878954  0.75104816  0.58168983  1
  O  O312  1  0.17920665  0.00292450  0.41765026  1
  O  O313  1  0.16541735  -0.00055040  0.91181757  1
  O  O314  1  0.17132616  0.50305894  0.41490971  1
  O  O315  1  0.15435595  0.50229075  0.91275556  1
  O  O316  1  0.47768621  0.00195900  0.41586360  1
  O  O317  1  0.50995088  -0.00608479  0.91515624  1
  O  O318  1  0.48252232  0.50058200  0.41485126  1
  O  O319  1  0.49075822  0.49862561  0.91594542  1
  O  O320  1  0.80255178  0.00120390  0.41912104  1
  O  O321  1  0.83301267  -0.01124532  0.91050744  1
  O  O322  1  0.81424779  0.49161891  0.42313367  1
  O  O323  1  0.84367550  0.51291446  0.91408348  1
  O  O324  1  0.32215964  0.25208879  0.41749059  1
  O  O325  1  0.31488290  0.25376629  0.91461563  1
  O  O326  1  0.32520123  0.74902292  0.41365383  1
  O  O327  1  0.33059628  0.73860023  0.92291571  1
  O  O328  1  0.64256160  0.24955682  0.41921316  1
  O  O329  1  0.69694889  0.25291187  0.92802941  1
  O  O330  1  0.63417777  0.75344037  0.41601581  1
  O  O331  1  0.65689152  0.74590949  0.91270907  1
  O  O332  1  0.99800357  0.23403438  0.42917648  1
  O  O333  1  0.99135418  0.26145671  0.92561408  1
  O  O334  1  1.01089199  0.74422064  0.41810598  1
  O  O335  1  1.00314883  0.75423766  0.91031830  1
  O  O336  1  0.21086064  0.08556845  0.19740237  1
  O  O337  1  0.20896267  0.08485647  0.69585152  1
  O  O338  1  0.20648073  0.58255791  0.19301612  1
  O  O339  1  0.21558739  0.58559470  0.69145298  1
  O  O340  1  0.52823171  0.08351159  0.19427621  1
  O  O341  1  0.54861715  0.08929344  0.69578995  1
  O  O342  1  0.54060140  0.58308720  0.19682245  1
  O  O343  1  0.54721366  0.58013620  0.69326797  1
  O  O344  1  0.87677901  0.08417130  0.19665423  1
  O  O345  1  0.87597591  0.08091843  0.69441879  1
  O  O346  1  0.87569305  0.58357368  0.19340749  1
  O  O347  1  0.88100434  0.58379109  0.69866983  1
  O  O348  1  0.04047342  0.33096516  0.19408709  1
  O  O349  1  0.04466291  0.33061841  0.69539381  1
  O  O350  1  0.04874018  0.83188474  0.19993366  1
  O  O351  1  0.04424178  0.83782034  0.69097312  1
  O  O352  1  0.38008062  0.33792802  0.19256106  1
  O  O353  1  0.37590641  0.33707163  0.69515386  1
  O  O354  1  0.37753021  0.83273557  0.20191389  1
  O  O355  1  0.37680002  0.83037427  0.69351272  1
  O  O356  1  0.70753285  0.33478491  0.19729896  1
  O  O357  1  0.69965741  0.33381172  0.69373552  1
  O  O358  1  0.71075636  0.83113777  0.20317832  1
  O  O359  1  0.71021854  0.83249093  0.69121661  1
  O  O360  1  0.21239530  0.41836752  0.19996082  1
  O  O361  1  0.21205796  0.41297610  0.69480452  1
  O  O362  1  0.21085171  0.91931139  0.19238071  1
  O  O363  1  0.20997134  0.91836768  0.69481705  1
  O  O364  1  0.54190890  0.41727383  0.19876214  1
  O  O365  1  0.54201212  0.41972609  0.69349112  1
  O  O366  1  0.54210634  0.91579428  0.19495292  1
  O  O367  1  0.54500622  0.90543700  0.68991872  1
  O  O368  1  0.87661148  0.41696922  0.20412775  1
  O  O369  1  0.88196402  0.42016962  0.69151932  1
  O  O370  1  0.87153750  0.91719174  0.19153764  1
  O  O371  1  0.87489967  0.91762896  0.69311026  1
  O  O372  1  0.04378917  0.16402546  0.20057528  1
  O  O373  1  0.04622453  0.16368017  0.69567104  1
  O  O374  1  0.04100781  0.66690003  0.19268799  1
  O  O375  1  0.04769050  0.66779345  0.69616750  1
  O  O376  1  0.37607150  0.16605045  0.19549258  1
  O  O377  1  0.37117351  0.17087007  0.69159126  1
  O  O378  1  0.37417888  0.66418913  0.19377174  1
  O  O379  1  0.37534789  0.66506402  0.69493886  1
  O  O380  1  0.71592911  0.17367192  0.20064120  1
  O  O381  1  0.71170815  0.16484871  0.69143191  1
  O  O382  1  0.70327148  0.66646419  0.19365727  1
  O  O383  1  0.71026393  0.66662523  0.69041157  1
  O  O384  1  0.12867604  0.08369252  0.30802130  1
  O  O385  1  0.12147580  0.08268642  0.80554581  1
  O  O386  1  0.12587782  0.58325910  0.30258484  1
  O  O387  1  0.12330005  0.58665934  0.80365753  1
  O  O388  1  0.45538091  0.08451001  0.30684282  1
  O  O389  1  0.44748069  0.09492341  0.80165560  1
  O  O390  1  0.45227049  0.58274532  0.30443674  1
  O  O391  1  0.45723303  0.57953712  0.80435073  1
  O  O392  1  0.79896480  0.08144393  0.30892982  1
  O  O393  1  0.79183359  0.07895534  0.80570950  1
  O  O394  1  0.78577771  0.58322445  0.29740144  1
  O  O395  1  0.79195344  0.58962279  0.80355497  1
  O  O396  1  0.29561819  0.33434582  0.30672100  1
  O  O397  1  0.28862884  0.33453037  0.80475041  1
  O  O398  1  0.29012268  0.83315693  0.30595761  1
  O  O399  1  0.28861962  0.83246956  0.79851472  1
  O  O400  1  0.61880301  0.33314105  0.30726016  1
  O  O401  1  0.62309570  0.33671148  0.80135707  1
  O  O402  1  0.61777210  0.83237332  0.30609559  1
  O  O403  1  0.62527029  0.82971028  0.80273606  1
  O  O404  1  0.95833337  0.33121208  0.30433441  1
  O  O405  1  0.96878208  0.33441745  0.80858438  1
  O  O406  1  0.95129522  0.83283375  0.29964246  1
  O  O407  1  0.95697204  0.83286779  0.79967231  1
  O  O408  1  0.12028763  0.42055092  0.30925540  1
  O  O409  1  0.12225927  0.41538668  0.80454670  1
  O  O410  1  0.13846082  0.91832584  0.31001432  1
  O  O411  1  0.12236860  0.91661013  0.80380082  1
  O  O412  1  0.45495148  0.41725326  0.30652112  1
  O  O413  1  0.45689111  0.41674743  0.80683048  1
  O  O414  1  0.45446948  0.91814542  0.30562100  1
  O  O415  1  0.45474593  0.90598443  0.80832100  1
  O  O416  1  0.78569784  0.41360669  0.31065051  1
  O  O417  1  0.78957787  0.42983072  0.80689527  1
  O  O418  1  0.78954776  0.91621357  0.31027003  1
  O  O419  1  0.78971735  0.91078551  0.80087077  1
  O  O420  1  0.28988430  0.16402763  0.30824919  1
  O  O421  1  0.28643754  0.16905547  0.80639189  1
  O  O422  1  0.28927215  0.66668580  0.30282703  1
  O  O423  1  0.29172736  0.66424268  0.80621870  1
  O  O424  1  0.61665279  0.17270983  0.30745047  1
  O  O425  1  0.62238120  0.16904363  0.79991871  1
  O  O426  1  0.61788235  0.66692628  0.30695090  1
  O  O427  1  0.62940349  0.66472377  0.80357711  1
  O  O428  1  0.95911656  0.16236450  0.31146042  1
  O  O429  1  0.95496199  0.16569538  0.80066693  1
  O  O430  1  0.95999614  0.66623471  0.30433219  1
  O  O431  1  0.95941318  0.67058302  0.80261145  1
  F  F432  1  0.04906746  0.00385278  0.20438620  1
  F  F433  1  0.04552255  0.00138167  0.70160780  1
  F  F434  1  0.04339192  0.49957366  0.20309826  1
  F  F435  1  0.04506740  0.49800820  0.69922220  1
  F  F436  1  0.37702267  0.00182121  0.20425048  1
  F  F437  1  0.36369120  -0.00169509  0.69812667  1
  F  F438  1  0.37843812  0.49997740  0.20267475  1
  F  F439  1  0.38043939  0.49848918  0.70086818  1
  F  F440  1  0.71762376  -0.01003545  0.20255519  1
  F  F441  1  0.71408599  -0.00308488  0.69775316  1
  F  F442  1  0.70743784  0.49743308  0.20372785  1
  F  F443  1  0.71262279  0.50127088  0.70038894  1
  F  F444  1  0.21033881  0.24571591  0.20126630  1
  F  F445  1  0.21099842  0.25036943  0.70248903  1
  F  F446  1  0.21192175  0.75022968  0.20189535  1
  F  F447  1  0.21339259  0.74858084  0.70021300  1
  F  F448  1  0.54325576  0.25145002  0.20291487  1
  F  F449  1  0.53997307  0.25372084  0.69895084  1
  F  F450  1  0.54290601  0.74794741  0.20383204  1
  F  F451  1  0.54656736  0.74958714  0.69896051  1
  F  F452  1  0.88109251  0.24729008  0.20782280  1
  F  F453  1  0.88334719  0.24108285  0.69638270  1
  F  F454  1  0.87541487  0.74668339  0.20115359  1
  F  F455  1  0.87943607  0.75156536  0.69680736  1
  F  F456  1  0.29005284  0.00045626  0.29806276  1
  F  F457  1  0.28628267  0.00071868  0.79916623  1
  F  F458  1  0.28965503  0.50252834  0.29980770  1
  F  F459  1  0.29258112  0.50071043  0.79843389  1
  F  F460  1  0.61425971  -0.01014768  0.30304647  1
  F  F461  1  0.63605812  -0.00510027  0.79807760  1
  F  F462  1  0.61812213  0.50069519  0.30029219  1
  F  F463  1  0.62235843  0.50224721  0.79713300  1
  F  F464  1  0.95373506  0.00124159  0.30089314  1
  F  F465  1  0.95406456  -0.00270858  0.79584445  1
  F  F466  1  0.95520556  0.50324604  0.30023124  1
  F  F467  1  0.95874374  0.50075788  0.79795659  1
  F  F468  1  0.12122068  0.24491008  0.30501567  1
  F  F469  1  0.12206415  0.24996178  0.79786044  1
  F  F470  1  0.12538424  0.74747293  0.29872019  1
  F  F471  1  0.12227231  0.75214381  0.79547317  1
  F  F472  1  0.45754795  0.25037859  0.30116264  1
  F  F473  1  0.45178312  0.25407357  0.79609738  1
  F  F474  1  0.45324684  0.74692861  0.30006334  1
  F  F475  1  0.45570158  0.74851548  0.79858350  1
  F  F476  1  0.78785605  0.25161320  0.30360591  1
  F  F477  1  0.78395866  0.24028188  0.79953025  1
  F  F478  1  0.78668053  0.74573310  0.30038927  1
  F  F479  1  0.78845347  0.74919366  0.79214382  1
