# generated using pymatgen
data_K24Na3Li5Mg64Fe17Si79(O5F)48
_symmetry_space_group_name_H-M   'P 1'
_cell_length_a   16.08776852
_cell_length_b   18.58606710
_cell_length_c   20.54666527
_cell_angle_alpha   90.01488734
_cell_angle_beta   100.01765649
_cell_angle_gamma   89.96473473
_symmetry_Int_Tables_number   1
_chemical_formula_structural   K24Na3Li5Mg64Fe17Si79(O5F)48
_chemical_formula_sum   'K24 Na3 Li5 Mg64 Fe17 Si79 O240 F48'
_cell_volume   6049.95865977
_cell_formula_units_Z   1
loop_
 _symmetry_equiv_pos_site_id
 _symmetry_equiv_pos_as_xyz
  1  'x, y, z'
loop_
 _atom_site_type_symbol
 _atom_site_label
 _atom_site_symmetry_multiplicity
 _atom_site_fract_x
 _atom_site_fract_y
 _atom_site_fract_z
 _atom_site_occupancy
  K  K0  1  0.00239228  -0.00012483  -0.00190219  1
  K  K1  1  0.00809297  0.00759676  0.50666276  1
  K  K2  1  0.00376916  0.50419985  -0.01398418  1
  K  K3  1  -0.00037749  0.49288407  0.51142406  1
  K  K4  1  0.32649786  0.00366949  -0.00756078  1
  K  K5  1  0.32876346  0.00079624  0.50641063  1
  K  K6  1  0.31902385  0.50254869  -0.01577976  1
  K  K7  1  0.32680511  0.49046336  0.50554422  1
  K  K8  1  0.66208803  -0.00777302  -0.00170347  1
  K  K9  1  0.65592979  0.00452994  0.50361141  1
  K  K10  1  0.66081862  0.50463017  -0.00568142  1
  K  K11  1  0.67112315  0.49487994  0.51117373  1
  K  K12  1  0.16674980  0.24596214  -0.00992274  1
  K  K13  1  0.16449038  0.25017932  0.50647390  1
  K  K14  1  0.16088795  0.74943809  -0.00544258  1
  K  K15  1  0.16772858  0.75581308  0.50607700  1
  K  K16  1  0.48186807  0.24275600  -0.00720486  1
  K  K17  1  0.49860746  0.25110152  0.50190836  1
  K  K18  1  0.49855180  0.75112923  -0.00593886  1
  K  K19  1  0.49296263  0.75706363  0.51181748  1
  K  K20  1  0.84286106  0.24891142  -0.00165704  1
  K  K21  1  0.83171737  0.24679979  0.50393148  1
  K  K22  1  0.83752981  0.75232363  -0.00221364  1
  K  K23  1  0.83974932  0.74551250  0.50490491  1
  Na  Na24  1  0.84513236  0.49857462  0.75573611  1
  Na  Na25  1  0.50184976  0.83029770  0.24663707  1
  Na  Na26  1  0.00225349  0.08584471  0.74895992  1
  Li  Li27  1  0.15111083  0.49418385  0.74181974  1
  Li  Li28  1  0.01073533  0.25345941  0.75190333  1
  Li  Li29  1  0.16882076  0.33367011  0.25834406  1
  Li  Li30  1  0.00345422  0.41332485  0.74346962  1
  Li  Li31  1  0.16477216  0.17231739  0.75718985  1
  Mg  Mg32  1  0.50145673  -0.00133037  0.25147542  1
  Mg  Mg33  1  0.33304206  0.74893023  0.74820399  1
  Mg  Mg34  1  -0.00158128  0.74905835  0.74625314  1
  Mg  Mg35  1  0.83340973  0.49811786  0.24980808  1
  Mg  Mg36  1  0.66376733  0.74909063  0.75159409  1
  Mg  Mg37  1  0.00276559  0.74873033  0.24182661  1
  Mg  Mg38  1  0.32856869  0.25243634  0.75287168  1
  Mg  Mg39  1  0.32875088  0.24987070  0.25390467  1
  Mg  Mg40  1  0.00144656  0.25303173  0.25450235  1
  Mg  Mg41  1  0.49951932  0.49856380  0.25168979  1
  Mg  Mg42  1  0.16750199  0.49657917  0.24920350  1
  Mg  Mg43  1  0.66424208  0.24778695  0.25508373  1
  Mg  Mg44  1  0.50098340  0.50155563  0.75244536  1
  Mg  Mg45  1  0.16623097  0.00022215  0.24716634  1
  Mg  Mg46  1  0.83244288  0.00109098  0.75080096  1
  Mg  Mg47  1  0.33544370  0.75045150  0.24540281  1
  Mg  Mg48  1  0.49923258  -0.00050164  0.75370095  1
  Mg  Mg49  1  0.66962898  0.25209360  0.75157342  1
  Mg  Mg50  1  0.66939007  0.75019048  0.24794609  1
  Mg  Mg51  1  0.83563685  0.00061698  0.25073214  1
  Mg  Mg52  1  0.16533594  0.00542804  0.74987860  1
  Mg  Mg53  1  0.67184103  0.41750579  0.75213344  1
  Mg  Mg54  1  0.16619270  0.66480995  0.24363439  1
  Mg  Mg55  1  0.00180287  0.58286285  0.24516238  1
  Mg  Mg56  1  0.16447126  0.83502285  0.74859083  1
  Mg  Mg57  1  0.16406085  0.66356257  0.74362638  1
  Mg  Mg58  1  0.83795457  0.16799918  0.74763425  1
  Mg  Mg59  1  0.66760242  0.58371647  0.25021794  1
  Mg  Mg60  1  0.49776064  0.33314145  0.25463370  1
  Mg  Mg61  1  0.49932257  0.16735329  0.75377686  1
  Mg  Mg62  1  0.15793925  0.33320621  0.74744219  1
  Mg  Mg63  1  0.16638995  0.16796669  0.25134081  1
  Mg  Mg64  1  0.66633355  0.08542320  0.75017090  1
  Mg  Mg65  1  0.49949727  0.33540733  0.75248558  1
  Mg  Mg66  1  0.49999812  0.66642781  0.75169897  1
  Mg  Mg67  1  0.00051575  0.91580231  0.24548499  1
  Mg  Mg68  1  0.32991688  0.41381060  0.25208553  1
  Mg  Mg69  1  0.82964765  0.83415909  0.74947479  1
  Mg  Mg70  1  0.33395268  0.58374175  0.24587392  1
  Mg  Mg71  1  0.32847487  0.58231273  0.74765154  1
  Mg  Mg72  1  0.50045133  0.83592402  0.75058776  1
  Mg  Mg73  1  -0.00246123  0.91771542  0.74804607  1
  Mg  Mg74  1  0.32761751  0.41858263  0.75295382  1
  Mg  Mg75  1  0.83387973  0.66426579  0.74978433  1
  Mg  Mg76  1  0.33022061  0.08710982  0.75357392  1
  Mg  Mg77  1  0.33346069  0.91586279  0.24543476  1
  Mg  Mg78  1  0.33168969  0.08384240  0.25177911  1
  Mg  Mg79  1  0.66915625  0.08394737  0.25511724  1
  Mg  Mg80  1  0.00193306  0.58133795  0.74752557  1
  Mg  Mg81  1  0.33422190  0.91642268  0.75021918  1
  Mg  Mg82  1  0.83461850  0.16513846  0.25492563  1
  Mg  Mg83  1  0.83454981  0.33311345  0.25360912  1
  Mg  Mg84  1  0.50086212  0.16458554  0.25443744  1
  Mg  Mg85  1  0.00165514  0.08591385  0.25075622  1
  Mg  Mg86  1  0.50192605  0.66607393  0.24875279  1
  Mg  Mg87  1  0.16744966  0.83487849  0.24316682  1
  Mg  Mg88  1  0.66308140  0.91518482  0.75199809  1
  Mg  Mg89  1  0.66873339  0.58380385  0.75247130  1
  Mg  Mg90  1  0.67042031  0.91563854  0.25114443  1
  Mg  Mg91  1  0.66626315  0.41461541  0.25369052  1
  Mg  Mg92  1  0.84233672  0.33193740  0.75025942  1
  Mg  Mg93  1  0.83664053  0.83472802  0.24782126  1
  Mg  Mg94  1  0.83599193  0.66424227  0.24653002  1
  Mg  Mg95  1  0.00420890  0.41418494  0.25458056  1
  Fe  Fe96  1  0.30201712  0.16800391  0.89234681  1
  Fe  Fe97  1  0.02054599  0.16459219  0.61172426  1
  Fe  Fe98  1  0.02227459  0.66139472  0.10395835  1
  Fe  Fe99  1  0.64766414  0.66078647  0.89297347  1
  Fe  Fe100  1  0.52449578  0.91869125  0.60944949  1
  Fe  Fe101  1  0.02527299  0.67106764  0.60595172  1
  Fe  Fe102  1  0.81000948  0.08001939  0.39372582  1
  Fe  Fe103  1  0.97488682  0.33684817  0.39330914  1
  Fe  Fe104  1  0.13816024  0.07924299  0.38859552  1
  Fe  Fe105  1  0.19659055  0.91771058  0.10548459  1
  Fe  Fe106  1  0.30717910  0.33151056  0.39190841  1
  Fe  Fe107  1  0.18346813  0.41421651  0.61274655  1
  Fe  Fe108  1  0.63630727  0.16628616  0.39538479  1
  Fe  Fe109  1  0.64686307  0.83223718  0.89416797  1
  Fe  Fe110  1  0.36036074  0.66109624  0.61062378  1
  Fe  Fe111  1  0.47130681  0.91552333  0.89311401  1
  Fe  Fe112  1  0.86023708  0.92174890  0.10795710  1
  Si  Si113  1  0.02690702  0.83300675  0.10614980  1
  Si  Si114  1  0.19659216  0.08558424  0.61467237  1
  Si  Si115  1  0.69142890  0.66488658  0.11453024  1
  Si  Si116  1  0.36085056  0.17049319  0.61834761  1
  Si  Si117  1  0.85179480  0.41351782  0.11458243  1
  Si  Si118  1  0.52468523  0.08989633  0.61471736  1
  Si  Si119  1  0.47175182  0.58314231  0.88931094  1
  Si  Si120  1  0.64535711  0.33672889  0.88844198  1
  Si  Si121  1  0.52868978  0.41429598  0.61778910  1
  Si  Si122  1  0.81191677  0.08905754  0.88525700  1
  Si  Si123  1  0.48066701  0.08761379  0.89212867  1
  Si  Si124  1  0.13751513  0.41960624  0.88251902  1
  Si  Si125  1  0.35932941  0.33207709  0.11599955  1
  Si  Si126  1  0.31109002  0.66612739  0.38079931  1
  Si  Si127  1  0.36031362  0.33578748  0.61704664  1
  Si  Si128  1  0.13952368  0.42259966  0.38853248  1
  Si  Si129  1  0.19156142  0.58339906  0.60746315  1
  Si  Si130  1  0.47595300  0.91564262  0.38324105  1
  Si  Si131  1  0.02008512  0.84229230  0.61134234  1
  Si  Si132  1  0.01630576  0.33113777  0.60904754  1
  Si  Si133  1  0.18963863  0.08990367  0.11163301  1
  Si  Si134  1  0.30206355  0.66412487  0.88366246  1
  Si  Si135  1  0.02426204  0.17472126  0.11448631  1
  Si  Si136  1  0.53100026  0.58009374  0.61355239  1
  Si  Si137  1  0.30683672  0.33878036  0.89097096  1
  Si  Si138  1  0.19053602  0.92074522  0.61559723  1
  Si  Si139  1  0.30728882  0.16332368  0.38957524  1
  Si  Si140  1  0.97481748  0.16907669  0.88494262  1
  Si  Si141  1  0.85227361  0.91611009  0.61456179  1
  Si  Si142  1  0.52795407  0.58113633  0.11515694  1
  Si  Si143  1  0.36104806  0.16664032  0.11740463  1
  Si  Si144  1  0.13836609  0.07808244  0.89000129  1
  Si  Si145  1  0.85258296  0.57692385  0.10995392  1
  Si  Si146  1  0.47319251  0.42152698  0.38868821  1
  Si  Si147  1  0.68837167  0.16880787  0.11615846  1
  Si  Si148  1  0.84858798  0.07784038  0.61288971  1
  Si  Si149  1  0.97904278  0.82553753  0.38218548  1
  Si  Si150  1  0.46638490  0.07926798  0.38836475  1
  Si  Si151  1  0.64576199  0.17046376  0.88709343  1
  Si  Si152  1  0.69510148  0.33440476  0.61635888  1
  Si  Si153  1  0.36445642  0.83298444  0.10869567  1
  Si  Si154  1  0.97945926  0.33076761  0.88614936  1
  Si  Si155  1  0.47819085  0.58537185  0.38375461  1
  Si  Si156  1  0.69444183  0.83025401  0.11263780  1
  Si  Si157  1  0.19345219  0.41591210  0.11374293  1
  Si  Si158  1  0.69593521  0.66255368  0.61504463  1
  Si  Si159  1  0.85642013  0.09236762  0.11178736  1
  Si  Si160  1  0.53269617  0.91726312  0.11583374  1
  Si  Si161  1  0.85821699  0.41680307  0.61593284  1
  Si  Si162  1  0.81276184  0.57707107  0.88830926  1
  Si  Si163  1  0.31266333  0.82962294  0.38184263  1
  Si  Si164  1  0.69231035  0.16967569  0.61591881  1
  Si  Si165  1  0.02332316  0.33948444  0.11560393  1
  Si  Si166  1  0.35097173  0.83222141  0.60972396  1
  Si  Si167  1  0.81445638  0.41021584  0.88716149  1
  Si  Si168  1  0.80977825  0.58489277  0.38450090  1
  Si  Si169  1  0.86082233  0.58333069  0.61157088  1
  Si  Si170  1  0.80889628  0.92403023  0.88618805  1
  Si  Si171  1  0.14517155  0.90892274  0.38480879  1
  Si  Si172  1  0.14742647  0.58422462  0.38221317  1
  Si  Si173  1  0.13318230  0.91267176  0.88428095  1
  Si  Si174  1  0.47565966  0.41679207  0.88832371  1
  Si  Si175  1  0.96761556  0.83196335  0.88290263  1
  Si  Si176  1  0.64696520  0.83366171  0.38505609  1
  Si  Si177  1  0.68741043  0.33180223  0.11691081  1
  Si  Si178  1  0.97851685  0.66164277  0.38158784  1
  Si  Si179  1  0.80191294  0.41956306  0.38823778  1
  Si  Si180  1  0.63869874  0.33863674  0.38943384  1
  Si  Si181  1  0.52344152  0.41637382  0.11629647  1
  Si  Si182  1  0.69342647  0.82808674  0.61176541  1
  Si  Si183  1  0.64363969  0.66880087  0.38535071  1
  Si  Si184  1  0.36440549  0.66619752  0.11098856  1
  Si  Si185  1  0.97391161  0.16837871  0.38896529  1
  Si  Si186  1  0.29941874  0.83076255  0.88664233  1
  Si  Si187  1  0.13611901  0.58462913  0.88110706  1
  Si  Si188  1  0.97191484  0.66688046  0.88358029  1
  Si  Si189  1  0.52568133  0.08107408  0.11592798  1
  Si  Si190  1  0.19921119  0.58067406  0.10764059  1
  Si  Si191  1  0.81644977  0.91021533  0.38863757  1
  O  O192  1  0.27057400  0.13027819  0.08573156  1
  O  O193  1  0.28137917  0.11868183  0.58817200  1
  O  O194  1  0.28264149  0.61626532  0.08141071  1
  O  O195  1  0.27756289  0.59537847  0.57561479  1
  O  O196  1  0.60456561  0.11951131  0.08661018  1
  O  O197  1  0.60361561  0.12901125  0.58656441  1
  O  O198  1  0.60940175  0.61325423  0.08697409  1
  O  O199  1  0.61727444  0.60821338  0.58704592  1
  O  O200  1  0.93567160  0.13279187  0.08338327  1
  O  O201  1  0.92903410  0.09924919  0.58064419  1
  O  O202  1  0.93020923  0.59871502  0.07435936  1
  O  O203  1  0.93171879  0.61223168  0.57055433  1
  O  O204  1  0.10061552  0.37913972  0.08533638  1
  O  O205  1  0.09336118  0.35719273  0.57168299  1
  O  O206  1  0.11369149  0.84844326  0.07732853  1
  O  O207  1  0.10068192  0.88105122  0.58506726  1
  O  O208  1  0.43568483  0.37386226  0.08597424  1
  O  O209  1  0.44662060  0.36443846  0.58956901  1
  O  O210  1  0.45393560  0.86289574  0.08892742  1
  O  O211  1  0.42502761  0.86868821  0.57573192  1
  O  O212  1  0.76930943  0.36163352  0.08651429  1
  O  O213  1  0.76971441  0.37220804  0.58358274  1
  O  O214  1  0.77216889  0.85508865  0.07844665  1
  O  O215  1  0.78079960  0.85516279  0.58584591  1
  O  O216  1  0.26766281  0.36884857  0.08537833  1
  O  O217  1  0.28354970  0.38455086  0.58155207  1
  O  O218  1  0.28963218  0.88200655  0.06939268  1
  O  O219  1  0.26377629  0.87981434  0.58359859  1
  O  O220  1  0.60355493  0.38098454  0.08726095  1
  O  O221  1  0.60770536  0.37897886  0.58717162  1
  O  O222  1  0.61305885  0.88338492  0.08663150  1
  O  O223  1  0.61491324  0.87527023  0.57453421  1
  O  O224  1  0.93369531  0.38241583  0.08481067  1
  O  O225  1  0.93464293  0.38669506  0.58081994  1
  O  O226  1  0.95849219  0.89508773  0.07726145  1
  O  O227  1  0.93869945  0.89647397  0.58607748  1
  O  O228  1  0.10480511  0.14060374  0.08538780  1
  O  O229  1  0.11620295  0.12989296  0.57765558  1
  O  O230  1  0.11749059  0.62420615  0.07136223  1
  O  O231  1  0.12424394  0.64647196  0.57575391  1
  O  O232  1  0.43796589  0.12578768  0.08764266  1
  O  O233  1  0.44289147  0.14193637  0.58808236  1
  O  O234  1  0.44530243  0.62910411  0.08397278  1
  O  O235  1  0.45631502  0.63005927  0.57554484  1
  O  O236  1  0.77177727  0.14406787  0.08594252  1
  O  O237  1  0.76673990  0.13063219  0.58409260  1
  O  O238  1  0.77023255  0.62995076  0.08447880  1
  O  O239  1  0.77410382  0.63098602  0.58208808  1
  O  O240  1  0.03719828  0.10219541  0.41640049  1
  O  O241  1  0.05341985  0.11440127  0.91425888  1
  O  O242  1  0.06298608  0.61401339  0.40955251  1
  O  O243  1  0.06314960  0.62878231  0.91318749  1
  O  O244  1  0.37571536  0.09639881  0.41165694  1
  O  O245  1  0.40786296  0.12506671  0.92641618  1
  O  O246  1  0.39480656  0.61701127  0.41036773  1
  O  O247  1  0.38665807  0.61679171  0.91432599  1
  O  O248  1  0.71552467  0.09971705  0.43091742  1
  O  O249  1  0.73142818  0.12344310  0.91585635  1
  O  O250  1  0.73085434  0.62343432  0.41367410  1
  O  O251  1  0.73778760  0.59750688  0.92801135  1
  O  O252  1  0.21058841  0.36559846  0.42231180  1
  O  O253  1  0.23201483  0.38737436  0.91700873  1
  O  O254  1  0.22895334  0.85648641  0.41041917  1
  O  O255  1  0.21295898  0.85971244  0.91217326  1
  O  O256  1  0.55520246  0.37042749  0.41656477  1
  O  O257  1  0.56586479  0.37392635  0.91815764  1
  O  O258  1  0.56353303  0.86921142  0.40967616  1
  O  O259  1  0.55656949  0.85681446  0.93434292  1
  O  O260  1  0.87344531  0.36541771  0.42286621  1
  O  O261  1  0.89799831  0.36214358  0.91972981  1
  O  O262  1  0.89551968  0.85229057  0.41145333  1
  O  O263  1  0.89191718  0.87227591  0.91281359  1
  O  O264  1  0.05182784  0.41224124  0.41637306  1
  O  O265  1  0.06480924  0.37787637  0.91799401  1
  O  O266  1  0.06477970  0.87033165  0.41283529  1
  O  O267  1  0.05411440  0.87551322  0.91317908  1
  O  O268  1  0.39547869  0.39876732  0.42337886  1
  O  O269  1  0.39971669  0.37929262  0.92033537  1
  O  O270  1  0.39769332  0.87636330  0.41279219  1
  O  O271  1  0.37471166  0.87988833  0.92462435  1
  O  O272  1  0.71133967  0.40100378  0.41184731  1
  O  O273  1  0.73202968  0.38124349  0.92030043  1
  O  O274  1  0.73372347  0.87622480  0.41786237  1
  O  O275  1  0.73272227  0.90184777  0.92269989  1
  O  O276  1  0.22470817  0.14426721  0.42160783  1
  O  O277  1  0.21957685  0.11923957  0.93179134  1
  O  O278  1  0.22784793  0.63799204  0.40956587  1
  O  O279  1  0.22562608  0.62517213  0.91497557  1
  O  O280  1  0.53565816  0.13562447  0.42425783  1
  O  O281  1  0.56711613  0.13834307  0.91784831  1
  O  O282  1  0.56219096  0.63432612  0.41291946  1
  O  O283  1  0.55165152  0.62706611  0.92809121  1
  O  O284  1  0.88536576  0.15679674  0.41623343  1
  O  O285  1  0.89286896  0.13910402  0.91754496  1
  O  O286  1  0.89659981  0.63026332  0.41131363  1
  O  O287  1  0.89974126  0.62440877  0.91624083  1
  O  O288  1  0.17289075  0.01330969  0.07452368  1
  O  O289  1  0.18657297  0.00188652  0.58466513  1
  O  O290  1  0.19463290  0.49645616  0.07982366  1
  O  O291  1  0.15238530  0.50624931  0.57984324  1
  O  O292  1  0.51450369  -0.00063153  0.08455509  1
  O  O293  1  0.50886927  0.01369423  0.57708634  1
  O  O294  1  0.51301619  0.49865667  0.08653653  1
  O  O295  1  0.51672548  0.49571735  0.58646242  1
  O  O296  1  0.83546350  0.01628886  0.07490527  1
  O  O297  1  0.81757232  -0.00492559  0.58678703  1
  O  O298  1  0.82377759  0.49387877  0.08509762  1
  O  O299  1  0.83652240  0.49959129  0.58769369  1
  O  O300  1  0.01246070  0.25746303  0.08418470  1
  O  O301  1  -0.01693558  0.25375412  0.57665360  1
  O  O302  1  -0.00942528  0.75469356  0.07724734  1
  O  O303  1  -0.00066935  0.76664412  0.57336751  1
  O  O304  1  0.35952820  0.24945192  0.08798015  1
  O  O305  1  0.34470127  0.25236527  0.58933190  1
  O  O306  1  0.35484742  0.74778805  0.08098805  1
  O  O307  1  0.33120304  0.75342172  0.57632119  1
  O  O308  1  0.66561403  0.25088933  0.08702108  1
  O  O309  1  0.68228324  0.25229758  0.58676510  1
  O  O310  1  0.66800373  0.74642469  0.08824900  1
  O  O311  1  0.67686863  0.74405993  0.58451352  1
  O  O312  1  0.16652353  -0.01521691  0.42131872  1
  O  O313  1  0.14365009  -0.00720208  0.91795764  1
  O  O314  1  0.17418147  0.50550569  0.41281184  1
  O  O315  1  0.14089313  0.50311710  0.91341633  1
  O  O316  1  0.49132579  -0.00386353  0.41575605  1
  O  O317  1  0.50277328  0.00914503  0.92449430  1
  O  O318  1  0.50131521  0.50489232  0.41320025  1
  O  O319  1  0.48325459  0.49892278  0.91844861  1
  O  O320  1  0.84571576  -0.01460579  0.42351643  1
  O  O321  1  0.83533390  0.00718308  0.91193302  1
  O  O322  1  0.82185665  0.50368388  0.41452233  1
  O  O323  1  0.83803148  0.49272164  0.91187264  1
  O  O324  1  0.34762703  0.23896045  0.42028493  1
  O  O325  1  0.31126758  0.26277175  0.92978413  1
  O  O326  1  0.33299189  0.74728449  0.41007465  1
  O  O327  1  0.31223389  0.74624510  0.91417960  1
  O  O328  1  0.66458959  0.26289430  0.42460872  1
  O  O329  1  0.66044485  0.25356982  0.91663876  1
  O  O330  1  0.65638374  0.75050835  0.41520400  1
  O  O331  1  0.68564804  0.74587835  0.93237332  1
  O  O332  1  1.01572816  0.24484725  0.41745887  1
  O  O333  1  0.99631078  0.24921965  0.91981247  1
  O  O334  1  0.99656280  0.74300975  0.41089366  1
  O  O335  1  0.97682750  0.74991141  0.91380892  1
  O  O336  1  0.21084985  0.08503497  0.19218282  1
  O  O337  1  0.21396202  0.08025126  0.69427543  1
  O  O338  1  0.21337524  0.58226279  0.18875125  1
  O  O339  1  0.21259693  0.58870194  0.68863916  1
  O  O340  1  0.54343307  0.08236627  0.19617583  1
  O  O341  1  0.54327991  0.08689288  0.69598326  1
  O  O342  1  0.54442135  0.58062918  0.19567489  1
  O  O343  1  0.54335779  0.58096661  0.69425258  1
  O  O344  1  0.87735922  0.08757836  0.19245001  1
  O  O345  1  0.86249452  0.08052746  0.69278331  1
  O  O346  1  0.87366048  0.58005858  0.19126383  1
  O  O347  1  0.88070345  0.59217973  0.69087138  1
  O  O348  1  0.03918074  0.33692295  0.19473757  1
  O  O349  1  0.04233256  0.33386647  0.68838259  1
  O  O350  1  0.04423799  0.83267545  0.18896550  1
  O  O351  1  0.03952691  0.83536488  0.69217951  1
  O  O352  1  0.37901944  0.33474730  0.19590609  1
  O  O353  1  0.37967028  0.33598211  0.69804035  1
  O  O354  1  0.36835405  0.83150783  0.18821807  1
  O  O355  1  0.37192118  0.83280151  0.69121830  1
  O  O356  1  0.70636682  0.33380631  0.19728266  1
  O  O357  1  0.70930923  0.33402845  0.69642187  1
  O  O358  1  0.71291826  0.83143660  0.19397366  1
  O  O359  1  0.70888769  0.83187523  0.69250794  1
  O  O360  1  0.21305162  0.42118366  0.19295727  1
  O  O361  1  0.21192245  0.41572296  0.70270032  1
  O  O362  1  0.21249980  0.91773211  0.19767233  1
  O  O363  1  0.20970499  0.91742487  0.69604600  1
  O  O364  1  0.54229405  0.41615823  0.19683368  1
  O  O365  1  0.54609133  0.41587164  0.69832542  1
  O  O366  1  0.55174101  0.92330717  0.19513697  1
  O  O367  1  0.54463983  0.91981938  0.70040602  1
  O  O368  1  0.87043985  0.41578513  0.19465923  1
  O  O369  1  0.87567140  0.40958587  0.69403823  1
  O  O370  1  0.87823985  0.91742338  0.20016727  1
  O  O371  1  0.87190421  0.91554390  0.69510963  1
  O  O372  1  0.04043177  0.17177603  0.19437348  1
  O  O373  1  0.05122197  0.17481747  0.69607683  1
  O  O374  1  0.04541637  0.66321002  0.19614022  1
  O  O375  1  0.04297180  0.66928366  0.69736914  1
  O  O376  1  0.37884128  0.16603696  0.19770934  1
  O  O377  1  0.38016444  0.16931704  0.69867687  1
  O  O378  1  0.38004935  0.66494792  0.19158654  1
  O  O379  1  0.37986013  0.66480486  0.70263683  1
  O  O380  1  0.70738832  0.16857256  0.19609002  1
  O  O381  1  0.70794819  0.16845126  0.69627967  1
  O  O382  1  0.71180127  0.66309087  0.19527946  1
  O  O383  1  0.71248278  0.66519426  0.69514340  1
  O  O384  1  0.12272031  0.08221770  0.29636080  1
  O  O385  1  0.13278452  0.07824436  0.81174298  1
  O  O386  1  0.12759255  0.58348856  0.30141879  1
  O  O387  1  0.12373777  0.58807021  0.80244386  1
  O  O388  1  0.45572539  0.08126068  0.30698305  1
  O  O389  1  0.46073016  0.08655644  0.81040794  1
  O  O390  1  0.45936909  0.58379218  0.30297060  1
  O  O391  1  0.46025540  0.58249557  0.80902619  1
  O  O392  1  0.78988100  0.08134211  0.30018441  1
  O  O393  1  0.78945018  0.08751781  0.80511317  1
  O  O394  1  0.79016144  0.58365563  0.30372914  1
  O  O395  1  0.78754585  0.58889802  0.80927654  1
  O  O396  1  0.29146629  0.33375278  0.30082880  1
  O  O397  1  0.29621418  0.33561411  0.81135177  1
  O  O398  1  0.29419162  0.83068927  0.30157633  1
  O  O399  1  0.28716061  0.83236479  0.80570158  1
  O  O400  1  0.62046647  0.33511315  0.30767105  1
  O  O401  1  0.62507577  0.33547465  0.80821621  1
  O  O402  1  0.63627699  0.83074704  0.30563961  1
  O  O403  1  0.62322041  0.83193237  0.80108320  1
  O  O404  1  0.95286907  0.33588466  0.30059936  1
  O  O405  1  0.95594995  0.33238391  0.80797071  1
  O  O406  1  0.96104152  0.82790898  0.30165640  1
  O  O407  1  0.95278559  0.83207620  0.80260342  1
  O  O408  1  0.12375165  0.42228145  0.30724356  1
  O  O409  1  0.12102537  0.41507277  0.80454340  1
  O  O410  1  0.12365461  0.91225832  0.30383535  1
  O  O411  1  0.11902717  0.91511997  0.80412943  1
  O  O412  1  0.45636346  0.41886974  0.30707945  1
  O  O413  1  0.46023725  0.41644815  0.80830266  1
  O  O414  1  0.45282951  0.92034696  0.30394390  1
  O  O415  1  0.45251804  0.91603216  0.80068507  1
  O  O416  1  0.78762445  0.41889554  0.30658189  1
  O  O417  1  0.78824509  0.40463608  0.80851858  1
  O  O418  1  0.79332295  0.91289057  0.30754569  1
  O  O419  1  0.78801835  0.91860645  0.80522904  1
  O  O420  1  0.28988394  0.16483173  0.30739333  1
  O  O421  1  0.29230003  0.16915202  0.80270240  1
  O  O422  1  0.29184857  0.66493769  0.30012521  1
  O  O423  1  0.28574143  0.66642552  0.80379843  1
  O  O424  1  0.62014507  0.16613748  0.30216381  1
  O  O425  1  0.62599915  0.16973098  0.80665079  1
  O  O426  1  0.62620816  0.66604385  0.30487390  1
  O  O427  1  0.62119906  0.66513366  0.80023102  1
  O  O428  1  0.95685716  0.16793073  0.30605909  1
  O  O429  1  0.94974560  0.17216380  0.80694906  1
  O  O430  1  0.95684316  0.66276942  0.30118372  1
  O  O431  1  0.95354687  0.67060900  0.80394034  1
  F  F432  1  0.04389718  -0.00026000  0.19861268  1
  F  F433  1  0.04934143  -0.00896048  0.69811992  1
  F  F434  1  0.04550997  0.49779151  0.20055423  1
  F  F435  1  0.03605896  0.50233170  0.69681765  1
  F  F436  1  0.38025861  0.00210949  0.20055308  1
  F  F437  1  0.37861743  0.00473420  0.70394622  1
  F  F438  1  0.38117964  0.49890384  0.20092850  1
  F  F439  1  0.38255831  0.49856707  0.70443324  1
  F  F440  1  0.71199820  -0.00104623  0.20251441  1
  F  F441  1  0.70899990  0.00043469  0.70419878  1
  F  F442  1  0.70928438  0.49841720  0.20272199  1
  F  F443  1  0.70306693  0.50007307  0.70225625  1
  F  F444  1  0.21590473  0.24253886  0.19793156  1
  F  F445  1  0.21763457  0.26022698  0.69927135  1
  F  F446  1  0.21450510  0.74723863  0.19824492  1
  F  F447  1  0.21068225  0.75282923  0.70142007  1
  F  F448  1  0.54277003  0.25255400  0.20289205  1
  F  F449  1  0.54706989  0.25190500  0.70574047  1
  F  F450  1  0.55310057  0.73746200  0.19703948  1
  F  F451  1  0.54206276  0.74998182  0.69940788  1
  F  F452  1  0.87492959  0.24954294  0.20262244  1
  F  F453  1  0.86350442  0.24913327  0.69517895  1
  F  F454  1  0.87860127  0.74738968  0.19946142  1
  F  F455  1  0.87520876  0.75168940  0.70042667  1
  F  F456  1  0.28886673  -0.00081756  0.29631720  1
  F  F457  1  0.28835001  -0.00142965  0.79889902  1
  F  F458  1  0.29023587  0.50347631  0.29556112  1
  F  F459  1  0.30196448  0.50360487  0.80548939  1
  F  F460  1  0.62285291  -0.00215779  0.30039847  1
  F  F461  1  0.62280706  0.00508360  0.80069692  1
  F  F462  1  0.62126160  0.50127074  0.29874815  1
  F  F463  1  0.62192364  0.49841810  0.80204666  1
  F  F464  1  0.95837058  0.00007789  0.29622418  1
  F  F465  1  0.94875704  -0.00926927  0.80065979  1
  F  F466  1  0.95326552  0.50264339  0.29481076  1
  F  F467  1  0.96971951  0.51741780  0.81487662  1
  F  F468  1  0.12130818  0.24921630  0.29699378  1
  F  F469  1  0.12860879  0.25626104  0.80518319  1
  F  F470  1  0.12445648  0.75011362  0.29293817  1
  F  F471  1  0.11957891  0.75334525  0.79677403  1
  F  F472  1  0.45390759  0.24977565  0.29875808  1
  F  F473  1  0.45807867  0.25268899  0.80165041  1
  F  F474  1  0.45173437  0.73957728  0.29891919  1
  F  F475  1  0.45376187  0.75237684  0.79885103  1
  F  F476  1  0.78500789  0.25176064  0.29834105  1
  F  F477  1  0.78698394  0.24880318  0.79988233  1
  F  F478  1  0.79154320  0.74668798  0.29576554  1
  F  F479  1  0.78779378  0.75069386  0.79681784  1
