# generated using pymatgen
data_K24Na3Li5Mg64Fe17Si79(O5F)48
_symmetry_space_group_name_H-M   'P 1'
_cell_length_a   16.08110027
_cell_length_b   18.57330876
_cell_length_c   20.53824833
_cell_angle_alpha   90.00831173
_cell_angle_beta   100.01594015
_cell_angle_gamma   89.99972384
_symmetry_Int_Tables_number   1
_chemical_formula_structural   K24Na3Li5Mg64Fe17Si79(O5F)48
_chemical_formula_sum   'K24 Na3 Li5 Mg64 Fe17 Si79 O240 F48'
_cell_volume   6040.85722526
_cell_formula_units_Z   1
loop_
 _symmetry_equiv_pos_site_id
 _symmetry_equiv_pos_as_xyz
  1  'x, y, z'
loop_
 _atom_site_type_symbol
 _atom_site_label
 _atom_site_symmetry_multiplicity
 _atom_site_fract_x
 _atom_site_fract_y
 _atom_site_fract_z
 _atom_site_occupancy
  K  K0  1  0.00724205  -0.00473180  -0.00171392  1
  K  K1  1  -0.00932178  -0.00084752  0.49162484  1
  K  K2  1  0.00371581  0.49903963  0.00129894  1
  K  K3  1  -0.00730033  0.49597411  0.49989710  1
  K  K4  1  0.32925874  -0.00372477  0.00426989  1
  K  K5  1  0.33126693  0.00315996  0.49280164  1
  K  K6  1  0.33517084  0.50473652  -0.00040501  1
  K  K7  1  0.33278971  0.49909720  0.49707943  1
  K  K8  1  0.66795582  -0.00023048  0.00953999  1
  K  K9  1  0.67767975  0.00101853  0.49874669  1
  K  K10  1  0.67040207  0.49525709  -0.00027799  1
  K  K11  1  0.67034997  0.49804213  0.49375756  1
  K  K12  1  0.16114912  0.24482824  0.00015146  1
  K  K13  1  0.16605160  0.25058054  0.50089940  1
  K  K14  1  0.16134359  0.74778231  0.00450219  1
  K  K15  1  0.16437498  0.74987800  0.48606467  1
  K  K16  1  0.50226076  0.24830641  0.00416997  1
  K  K17  1  0.50024621  0.24413902  0.49784719  1
  K  K18  1  0.50413558  0.75576034  0.00402934  1
  K  K19  1  0.50544912  0.75614308  0.49303502  1
  K  K20  1  0.83581423  0.25270135  0.00570606  1
  K  K21  1  0.83536689  0.24667178  0.49834510  1
  K  K22  1  0.83571339  0.75480174  -0.00086013  1
  K  K23  1  0.82782189  0.75816287  0.49246438  1
  Na  Na24  1  0.83273294  -0.00060432  0.24869642  1
  Na  Na25  1  0.16578658  0.82131725  0.25091345  1
  Na  Na26  1  0.33190862  0.91622495  0.24900377  1
  Li  Li27  1  0.01159177  0.74926519  0.25376684  1
  Li  Li28  1  0.16267999  -0.00061769  0.75191868  1
  Li  Li29  1  0.33283185  0.58327715  0.75519194  1
  Li  Li30  1  0.16103624  0.67253255  0.25201276  1
  Li  Li31  1  0.83350848  0.83341706  0.75176848  1
  Mg  Mg32  1  0.83206600  0.50197288  0.75189890  1
  Mg  Mg33  1  0.49868276  -0.00043814  0.24798759  1
  Mg  Mg34  1  0.83548895  -0.00311556  0.74636088  1
  Mg  Mg35  1  0.66706990  0.75286921  0.25282118  1
  Mg  Mg36  1  0.49980117  0.49895143  0.25347070  1
  Mg  Mg37  1  0.66844622  0.24881340  0.74581215  1
  Mg  Mg38  1  0.16598933  0.50282648  0.24986618  1
  Mg  Mg39  1  0.49609165  0.50143839  0.75499956  1
  Mg  Mg40  1  0.16839401  0.50171371  0.75219298  1
  Mg  Mg41  1  0.00168517  0.24789005  0.74432502  1
  Mg  Mg42  1  -0.00229415  0.25087992  0.24733798  1
  Mg  Mg43  1  0.50031527  -0.00067419  0.74944127  1
  Mg  Mg44  1  0.33128834  0.74862676  0.24903405  1
  Mg  Mg45  1  0.83464526  0.49985817  0.25146432  1
  Mg  Mg46  1  0.33171731  0.74841840  0.75248705  1
  Mg  Mg47  1  0.33132637  0.25251723  0.24886792  1
  Mg  Mg48  1  0.33426390  0.25057504  0.75222999  1
  Mg  Mg49  1  0.66727836  0.24928595  0.24733693  1
  Mg  Mg50  1  0.66715492  0.75205473  0.75672750  1
  Mg  Mg51  1  -0.00272728  0.74978346  0.75225839  1
  Mg  Mg52  1  0.16692636  -0.00400102  0.25025309  1
  Mg  Mg53  1  0.49767282  0.66626324  0.75590716  1
  Mg  Mg54  1  0.66649174  0.58498905  0.75585591  1
  Mg  Mg55  1  0.00101995  0.41531015  0.74767767  1
  Mg  Mg56  1  0.16577527  0.83485631  0.75065642  1
  Mg  Mg57  1  0.33321519  0.41637391  0.24927775  1
  Mg  Mg58  1  0.49871442  0.83531914  0.25128195  1
  Mg  Mg59  1  0.33043346  0.91781851  0.75138542  1
  Mg  Mg60  1  0.00204671  0.91322007  0.24852601  1
  Mg  Mg61  1  0.66435336  0.91613091  0.24941294  1
  Mg  Mg62  1  0.67034401  0.91422630  0.75284948  1
  Mg  Mg63  1  0.83695706  0.66806133  0.25215155  1
  Mg  Mg64  1  0.33100744  0.08366876  0.24770226  1
  Mg  Mg65  1  0.50124781  0.83439783  0.75363839  1
  Mg  Mg66  1  0.16658877  0.16239189  0.74776671  1
  Mg  Mg67  1  0.50116885  0.33516821  0.75384259  1
  Mg  Mg68  1  0.33518381  0.41932326  0.75214659  1
  Mg  Mg69  1  0.83370577  0.16584953  0.24583573  1
  Mg  Mg70  1  0.83377125  0.16352590  0.74337409  1
  Mg  Mg71  1  0.49724547  0.16630758  0.24472086  1
  Mg  Mg72  1  0.83460424  0.33567373  0.24784871  1
  Mg  Mg73  1  -0.00006994  0.91497214  0.74882455  1
  Mg  Mg74  1  0.66680577  0.41597719  0.75249347  1
  Mg  Mg75  1  0.49796098  0.33472778  0.25106071  1
  Mg  Mg76  1  0.83353166  0.33433969  0.74578963  1
  Mg  Mg77  1  0.83660605  0.83281038  0.24967849  1
  Mg  Mg78  1  0.50080678  0.66607946  0.25468342  1
  Mg  Mg79  1  -0.00002362  0.41611431  0.24877477  1
  Mg  Mg80  1  0.16377742  0.33579968  0.24888976  1
  Mg  Mg81  1  0.16601444  0.33394852  0.74833151  1
  Mg  Mg82  1  0.33209839  0.08284439  0.75186999  1
  Mg  Mg83  1  0.83266691  0.66838589  0.75589152  1
  Mg  Mg84  1  0.66638184  0.08403839  0.24387452  1
  Mg  Mg85  1  0.16356898  0.16469366  0.24739118  1
  Mg  Mg86  1  0.33067366  0.58533709  0.25316363  1
  Mg  Mg87  1  -0.00211356  0.08218978  0.24755979  1
  Mg  Mg88  1  0.66848823  0.41527337  0.25143497  1
  Mg  Mg89  1  0.00199180  0.08010883  0.74482421  1
  Mg  Mg90  1  0.50166700  0.16514962  0.74730725  1
  Mg  Mg91  1  0.66923836  0.08372325  0.74389500  1
  Mg  Mg92  1  0.16871020  0.66414096  0.75366418  1
  Mg  Mg93  1  0.00159289  0.58473729  0.75467403  1
  Mg  Mg94  1  0.66917321  0.58495813  0.25531158  1
  Mg  Mg95  1  0.00385554  0.58921062  0.25107480  1
  Fe  Fe96  1  0.46908609  0.41146633  0.39230511  1
  Fe  Fe97  1  0.51823976  0.91545046  0.10833571  1
  Fe  Fe98  1  0.02747980  0.33047206  0.10684133  1
  Fe  Fe99  1  0.02444561  0.33352423  0.60666500  1
  Fe  Fe100  1  0.80358692  0.41419435  0.39092464  1
  Fe  Fe101  1  0.86275973  0.07553731  0.60494412  1
  Fe  Fe102  1  0.47633077  0.41879677  0.89428227  1
  Fe  Fe103  1  0.64192990  0.83994051  0.39278013  1
  Fe  Fe104  1  0.14340169  0.58342112  0.89415734  1
  Fe  Fe105  1  0.97887285  0.16382416  0.38786567  1
  Fe  Fe106  1  0.80427031  0.58028276  0.89287733  1
  Fe  Fe107  1  0.69138892  0.17036044  0.60321216  1
  Fe  Fe108  1  0.97728863  0.33403656  0.38971549  1
  Fe  Fe109  1  0.35937921  0.33636044  0.10888017  1
  Fe  Fe110  1  0.69387114  0.16883569  0.10454843  1
  Fe  Fe111  1  0.14289179  0.08088925  0.88754337  1
  Fe  Fe112  1  0.64506994  0.83754744  0.89450155  1
  Si  Si113  1  0.86326920  0.07889365  0.10792722  1
  Si  Si114  1  0.68772516  0.34229045  0.61129459  1
  Si  Si115  1  0.13712207  0.42632129  0.38643277  1
  Si  Si116  1  0.19958419  0.41780288  0.61262932  1
  Si  Si117  1  0.51810928  0.08613672  0.10806175  1
  Si  Si118  1  0.18840111  0.58460257  0.11834811  1
  Si  Si119  1  0.97835526  0.66919606  0.38614233  1
  Si  Si120  1  0.52226229  0.91479272  0.61469100  1
  Si  Si121  1  0.35690719  0.66945549  0.61790127  1
  Si  Si122  1  0.02480647  0.66915678  0.11620760  1
  Si  Si123  1  0.19443632  0.42219796  0.11136155  1
  Si  Si124  1  0.63951251  0.16169704  0.38142970  1
  Si  Si125  1  0.97432760  0.32930638  0.88135508  1
  Si  Si126  1  0.68610238  0.66702947  0.61814322  1
  Si  Si127  1  0.63835537  0.66688162  0.89203232  1
  Si  Si128  1  0.47810959  0.58303663  0.39218081  1
  Si  Si129  1  0.47186289  0.92244720  0.39070273  1
  Si  Si130  1  0.52455219  0.58547581  0.11850212  1
  Si  Si131  1  0.35209388  0.16761006  0.11159592  1
  Si  Si132  1  0.81425886  0.58632327  0.39030703  1
  Si  Si133  1  0.30781007  0.83351928  0.88508433  1
  Si  Si134  1  0.02746444  0.83025649  0.61404187  1
  Si  Si135  1  0.18787754  0.91326139  0.11363167  1
  Si  Si136  1  0.68730581  0.83014950  0.61728330  1
  Si  Si137  1  0.53099155  0.42019041  0.11456202  1
  Si  Si138  1  0.97081903  0.67007756  0.89207367  1
  Si  Si139  1  0.02298286  0.83261101  0.11243079  1
  Si  Si140  1  0.31427555  0.66912840  0.38896176  1
  Si  Si141  1  0.19334680  0.58341857  0.61640232  1
  Si  Si142  1  0.85599228  0.59068834  0.61728583  1
  Si  Si143  1  0.81130326  0.40975951  0.88668722  1
  Si  Si144  1  0.64458365  0.32678369  0.88696546  1
  Si  Si145  1  0.69423441  0.34072419  0.11101078  1
  Si  Si146  1  0.30197139  0.16802662  0.38318784  1
  Si  Si147  1  0.80984678  0.08518769  0.88175923  1
  Si  Si148  1  0.97232100  0.16580776  0.88247046  1
  Si  Si149  1  0.52085625  0.58513071  0.61874542  1
  Si  Si150  1  0.02733485  0.15846698  0.10834777  1
  Si  Si151  1  0.80435017  0.08527721  0.38312488  1
  Si  Si152  1  0.19914182  0.08383168  0.61397347  1
  Si  Si153  1  0.86110614  0.42284263  0.11045836  1
  Si  Si154  1  0.63558238  0.32573073  0.38707067  1
  Si  Si155  1  0.81387491  0.92351306  0.88672539  1
  Si  Si156  1  0.30999951  0.67160585  0.88936133  1
  Si  Si157  1  0.64471886  0.66752286  0.39097412  1
  Si  Si158  1  0.46896023  0.91938860  0.88693875  1
  Si  Si159  1  0.86130354  0.91141310  0.11275672  1
  Si  Si160  1  0.35548146  0.66247636  0.11709520  1
  Si  Si161  1  0.97859844  0.83491529  0.38498443  1
  Si  Si162  1  0.31212205  0.16984005  0.88688907  1
  Si  Si163  1  0.47502991  0.58912201  0.89025911  1
  Si  Si164  1  0.35646178  0.83349984  0.61553281  1
  Si  Si165  1  0.85544846  0.42485771  0.61296192  1
  Si  Si166  1  0.85590073  0.90618505  0.61198154  1
  Si  Si167  1  0.81278128  0.91674570  0.38699891  1
  Si  Si168  1  0.97647664  0.83540372  0.88468148  1
  Si  Si169  1  0.35348162  0.82547948  0.11165658  1
  Si  Si170  1  0.19383928  0.07689612  0.11260022  1
  Si  Si171  1  0.64391934  0.16189619  0.88201468  1
  Si  Si172  1  0.69167775  0.66696958  0.11817330  1
  Si  Si173  1  0.19169661  0.91749903  0.61516444  1
  Si  Si174  1  0.36146724  0.16637933  0.61401238  1
  Si  Si175  1  0.30446851  0.33400710  0.88588399  1
  Si  Si176  1  0.14402023  0.07492961  0.38561312  1
  Si  Si177  1  0.02676176  0.66510293  0.61547592  1
  Si  Si178  1  0.47585276  0.08500056  0.88374769  1
  Si  Si179  1  0.31169182  0.83062314  0.38726327  1
  Si  Si180  1  0.14036294  0.41184509  0.88642210  1
  Si  Si181  1  0.85875500  0.58750528  0.11564184  1
  Si  Si182  1  0.52474302  0.42119262  0.61762601  1
  Si  Si183  1  0.52387244  0.07974193  0.60990169  1
  Si  Si184  1  0.29442119  0.33387271  0.38831751  1
  Si  Si185  1  0.14602958  0.58866820  0.38510350  1
  Si  Si186  1  0.46955549  0.08848668  0.38331289  1
  Si  Si187  1  0.14547952  0.91256246  0.38449838  1
  Si  Si188  1  0.14358454  0.91121523  0.88673164  1
  Si  Si189  1  0.03080763  0.16095029  0.60773040  1
  Si  Si190  1  0.69419246  0.83253962  0.11317028  1
  Si  Si191  1  0.36428924  0.33252607  0.61607020  1
  O  O192  1  0.27657462  0.10832647  0.08511224  1
  O  O193  1  0.27935052  0.11744918  0.58242264  1
  O  O194  1  0.27245809  0.61249230  0.08834593  1
  O  O195  1  0.26868305  0.62708130  0.58698843  1
  O  O196  1  0.59499995  0.11621668  0.07329630  1
  O  O197  1  0.59728137  0.10838708  0.57304625  1
  O  O198  1  0.60446550  0.62159811  0.08934960  1
  O  O199  1  0.60261714  0.61689374  0.58870025  1
  O  O200  1  0.95076928  0.10127084  0.07989646  1
  O  O201  1  0.96493477  0.09883467  0.57782315  1
  O  O202  1  0.93709437  0.62390338  0.08494918  1
  O  O203  1  0.93435743  0.62750626  0.58607766  1
  O  O204  1  0.12255529  0.36646724  0.07573086  1
  O  O205  1  0.11894877  0.37365207  0.57581792  1
  O  O206  1  0.10087891  0.86964518  0.08042954  1
  O  O207  1  0.10285384  0.87458657  0.58495522  1
  O  O208  1  0.45886116  0.36595572  0.07886849  1
  O  O209  1  0.44617739  0.36653949  0.58825473  1
  O  O210  1  0.42465373  0.85702231  0.07228712  1
  O  O211  1  0.43709174  0.86699980  0.58552359  1
  O  O212  1  0.77478190  0.37664642  0.08256965  1
  O  O213  1  0.76768847  0.38089065  0.58469309  1
  O  O214  1  0.77728401  0.86252829  0.08386375  1
  O  O215  1  0.77054157  0.85523553  0.58720489  1
  O  O216  1  0.28092736  0.40936131  0.08200835  1
  O  O217  1  0.28347803  0.38309905  0.58611135  1
  O  O218  1  0.26507097  0.87145528  0.08555549  1
  O  O219  1  0.27014837  0.87885536  0.58445593  1
  O  O220  1  0.61841875  0.40001049  0.08728531  1
  O  O221  1  0.60773540  0.39834105  0.58674841  1
  O  O222  1  0.61418289  0.87868953  0.07723343  1
  O  O223  1  0.60321827  0.87973628  0.58637565  1
  O  O224  1  0.93488568  0.39137669  0.07419659  1
  O  O225  1  0.93172660  0.39544714  0.57933749  1
  O  O226  1  0.93735382  0.87727699  0.07717999  1
  O  O227  1  0.93467358  0.86377744  0.58368357  1
  O  O228  1  0.11118522  0.12522969  0.08109643  1
  O  O229  1  0.12097659  0.13625986  0.58376804  1
  O  O230  1  0.10621003  0.63478519  0.08715999  1
  O  O231  1  0.10077213  0.62064496  0.58546571  1
  O  O232  1  0.43706552  0.14156935  0.08396609  1
  O  O233  1  0.43907329  0.12980496  0.58339800  1
  O  O234  1  0.43816147  0.63047371  0.08791226  1
  O  O235  1  0.43647318  0.63281246  0.58822026  1
  O  O236  1  0.78507754  0.12696974  0.06968817  1
  O  O237  1  0.77898731  0.13789807  0.56506967  1
  O  O238  1  0.77072078  0.63184841  0.08782422  1
  O  O239  1  0.76907025  0.63680952  0.58909401  1
  O  O240  1  0.06691795  0.09803509  0.42141861  1
  O  O241  1  0.04434425  0.11205865  0.91918597  1
  O  O242  1  0.06653827  0.62463058  0.41668970  1
  O  O243  1  0.04833089  0.61873954  0.92601987  1
  O  O244  1  0.39436095  0.13150470  0.41308475  1
  O  O245  1  0.39935777  0.12309387  0.91374445  1
  O  O246  1  0.39971244  0.62313574  0.42186475  1
  O  O247  1  0.38992093  0.61801100  0.91708099  1
  O  O248  1  0.71536810  0.10566533  0.41064885  1
  O  O249  1  0.72375927  0.10898491  0.91013659  1
  O  O250  1  0.73251091  0.62221703  0.41810561  1
  O  O251  1  0.70249956  0.60248920  0.92153901  1
  O  O252  1  0.21157798  0.36722612  0.41535781  1
  O  O253  1  0.21335832  0.34985552  0.91012318  1
  O  O254  1  0.22786725  0.86197511  0.41496560  1
  O  O255  1  0.22168305  0.85349352  0.91362167  1
  O  O256  1  0.54961930  0.33924650  0.41721558  1
  O  O257  1  0.56807137  0.35459931  0.92195333  1
  O  O258  1  0.55537016  0.88360586  0.43144926  1
  O  O259  1  0.54468067  0.86898070  0.92275416  1
  O  O260  1  0.88520788  0.35152053  0.42980420  1
  O  O261  1  0.89052738  0.35387160  0.91105081  1
  O  O262  1  0.90344716  0.87452118  0.41717962  1
  O  O263  1  0.89770480  0.87286108  0.91378976  1
  O  O264  1  0.05401979  0.41033547  0.41727527  1
  O  O265  1  0.05353530  0.38211519  0.91114147  1
  O  O266  1  0.06694162  0.87768589  0.41688508  1
  O  O267  1  0.06118115  0.88133262  0.91708555  1
  O  O268  1  0.37428523  0.37870325  0.42669546  1
  O  O269  1  0.37442523  0.39070540  0.92086150  1
  O  O270  1  0.39017017  0.88495063  0.41863871  1
  O  O271  1  0.38044794  0.89408393  0.91144446  1
  O  O272  1  0.70503991  0.38354734  0.42135973  1
  O  O273  1  0.73040796  0.37374985  0.91466677  1
  O  O274  1  0.74426232  0.88542769  0.42928394  1
  O  O275  1  0.73769282  0.89915700  0.92428829  1
  O  O276  1  0.23071727  0.12269592  0.41419763  1
  O  O277  1  0.23640060  0.14096982  0.92170590  1
  O  O278  1  0.23145368  0.63569234  0.41663728  1
  O  O279  1  0.23272008  0.64792784  0.92585216  1
  O  O280  1  0.55660637  0.13288190  0.41219147  1
  O  O281  1  0.56236256  0.13071191  0.91158282  1
  O  O282  1  0.56544858  0.62898004  0.41936854  1
  O  O283  1  0.54665322  0.65138926  0.91602671  1
  O  O284  1  0.87906638  0.13674988  0.41967641  1
  O  O285  1  0.88228412  0.14571940  0.90810829  1
  O  O286  1  0.89873376  0.63663115  0.41873059  1
  O  O287  1  0.88686068  0.64951659  0.92229273  1
  O  O288  1  0.17938987  -0.00450067  0.08054653  1
  O  O289  1  0.18457082  0.00029747  0.58554827  1
  O  O290  1  0.16237063  0.50474867  0.08717104  1
  O  O291  1  0.19380752  0.50207774  0.58522437  1
  O  O292  1  0.48977790  0.00813522  0.07559234  1
  O  O293  1  0.50092068  -0.00410015  0.58445288  1
  O  O294  1  0.50944778  0.50394904  0.08869590  1
  O  O295  1  0.49987964  0.50312822  0.58997556  1
  O  O296  1  0.84437639  -0.00619636  0.08378729  1
  O  O297  1  0.83810502  -0.01939055  0.57176119  1
  O  O298  1  0.84241088  0.50673639  0.08388184  1
  O  O299  1  0.83778802  0.50940599  0.58734263  1
  O  O300  1  0.00520113  0.23574339  0.07286452  1
  O  O301  1  0.00470342  0.23927404  0.57537249  1
  O  O302  1  0.01219492  0.74983430  0.08189647  1
  O  O303  1  0.02744486  0.74719033  0.58474071  1
  O  O304  1  0.32237860  0.24396795  0.07733648  1
  O  O305  1  0.34962052  0.24988319  0.58556208  1
  O  O306  1  0.33356107  0.74177102  0.08393733  1
  O  O307  1  0.34371162  0.75124033  0.58595929  1
  O  O308  1  0.67328686  0.26480222  0.07307348  1
  O  O309  1  0.66261355  0.26658568  0.57531617  1
  O  O310  1  0.67873227  0.74800203  0.08713934  1
  O  O311  1  0.66438064  0.74805046  0.58761647  1
  O  O312  1  0.17086246  -0.00699931  0.41531434  1
  O  O313  1  0.17075120  -0.01242022  0.92157622  1
  O  O314  1  0.16949434  0.50731474  0.41593629  1
  O  O315  1  0.16675755  0.48726542  0.92354195  1
  O  O316  1  0.47203175  0.00791496  0.41641311  1
  O  O317  1  0.48741357  0.00315446  0.91304123  1
  O  O318  1  0.49270182  0.50518796  0.42767148  1
  O  O319  1  0.50344593  0.51293666  0.92619533  1
  O  O320  1  0.82895280  0.00196326  0.40828175  1
  O  O321  1  0.84150575  0.00670347  0.91309326  1
  O  O322  1  0.83078781  0.50884838  0.42515548  1
  O  O323  1  0.83544055  0.48581557  0.92279505  1
  O  O324  1  0.30289980  0.24915071  0.41483724  1
  O  O325  1  0.33604453  0.25282162  0.91189380  1
  O  O326  1  0.32922936  0.75018236  0.42320522  1
  O  O327  1  0.34085960  0.75456788  0.91448221  1
  O  O328  1  0.66584897  0.24217714  0.41062448  1
  O  O329  1  0.66717724  0.24271173  0.91131746  1
  O  O330  1  0.65626520  0.74509853  0.42688595  1
  O  O331  1  0.67301322  0.74352995  0.92424464  1
  O  O332  1  1.02538967  0.24888757  0.42275253  1
  O  O333  1  0.99759020  0.24822481  0.90988370  1
  O  O334  1  0.99084638  0.75217986  0.41584790  1
  O  O335  1  0.99296611  0.75452458  0.91626709  1
  O  O336  1  0.20870787  0.08133810  0.19294824  1
  O  O337  1  0.21857863  0.08615678  0.69337224  1
  O  O338  1  0.21160365  0.58118510  0.19767144  1
  O  O339  1  0.20789495  0.58436478  0.69577338  1
  O  O340  1  0.53953327  0.08560954  0.18974235  1
  O  O341  1  0.54230791  0.08214826  0.69107862  1
  O  O342  1  0.54390823  0.58481922  0.19920771  1
  O  O343  1  0.54129821  0.58526006  0.69900327  1
  O  O344  1  0.87953296  0.08792303  0.18725541  1
  O  O345  1  0.87836574  0.08018808  0.69744164  1
  O  O346  1  0.87627565  0.58546372  0.19596247  1
  O  O347  1  0.87775152  0.58726418  0.69737520  1
  O  O348  1  0.04597088  0.33402806  0.19822439  1
  O  O349  1  0.04582316  0.33392552  0.69878966  1
  O  O350  1  0.03575724  0.83404618  0.19078034  1
  O  O351  1  0.04477659  0.83061356  0.69418642  1
  O  O352  1  0.37635559  0.33332298  0.20069277  1
  O  O353  1  0.37904141  0.33092676  0.69623818  1
  O  O354  1  0.38125123  0.82395093  0.19116840  1
  O  O355  1  0.37529167  0.83461600  0.69587973  1
  O  O356  1  0.70938132  0.33502647  0.19177119  1
  O  O357  1  0.70773876  0.33688217  0.69269705  1
  O  O358  1  0.71072641  0.83291445  0.19385832  1
  O  O359  1  0.70379193  0.83182986  0.69661388  1
  O  O360  1  0.20951674  0.41823814  0.19331946  1
  O  O361  1  0.21277684  0.41684603  0.69353741  1
  O  O362  1  0.20166838  0.92037656  0.19156606  1
  O  O363  1  0.21172239  0.91336275  0.69466176  1
  O  O364  1  0.54587828  0.41855701  0.19563995  1
  O  O365  1  0.54402128  0.41791076  0.69779226  1
  O  O366  1  0.54019726  0.91617323  0.19967987  1
  O  O367  1  0.53985612  0.91645266  0.69491216  1
  O  O368  1  0.87834329  0.42162053  0.19103875  1
  O  O369  1  0.87417348  0.42057455  0.69416253  1
  O  O370  1  0.88158073  0.90848175  0.19195923  1
  O  O371  1  0.87755493  0.91385732  0.69180103  1
  O  O372  1  0.04591059  0.16313525  0.18917615  1
  O  O373  1  0.04543698  0.16535797  0.68928912  1
  O  O374  1  0.03986119  0.66692062  0.19480459  1
  O  O375  1  0.04261882  0.66658423  0.69559749  1
  O  O376  1  0.37143326  0.16859468  0.19288565  1
  O  O377  1  0.37863441  0.16652431  0.69446436  1
  O  O378  1  0.37942533  0.66269876  0.19732278  1
  O  O379  1  0.37719776  0.67084655  0.69739263  1
  O  O380  1  0.71026849  0.16811999  0.19583752  1
  O  O381  1  0.71042841  0.16703776  0.69607557  1
  O  O382  1  0.70945471  0.66617417  0.19869160  1
  O  O383  1  0.70489161  0.66733656  0.69810927  1
  O  O384  1  0.12503506  0.08162129  0.30488972  1
  O  O385  1  0.12086691  0.08401344  0.79705063  1
  O  O386  1  0.12349668  0.58228486  0.30615964  1
  O  O387  1  0.12211833  0.58353740  0.80210528  1
  O  O388  1  0.45361489  0.08611955  0.30314163  1
  O  O389  1  0.45816643  0.08413207  0.80283279  1
  O  O390  1  0.45915785  0.58310280  0.31108098  1
  O  O391  1  0.45964134  0.58457762  0.80966999  1
  O  O392  1  0.78458104  0.09113557  0.30350629  1
  O  O393  1  0.78929375  0.08237690  0.80153433  1
  O  O394  1  0.79335904  0.58538031  0.30908570  1
  O  O395  1  0.78774682  0.58265991  0.80082057  1
  O  O396  1  0.28450894  0.33446915  0.30751750  1
  O  O397  1  0.28991595  0.33416439  0.80437489  1
  O  O398  1  0.29965475  0.82385588  0.30956525  1
  O  O399  1  0.28948692  0.83354207  0.80423964  1
  O  O400  1  0.62185924  0.33084391  0.30521856  1
  O  O401  1  0.62522155  0.33049570  0.80553697  1
  O  O402  1  0.62136464  0.83298494  0.30160109  1
  O  O403  1  0.62080922  0.83621144  0.80253810  1
  O  O404  1  0.95381260  0.33481971  0.29724079  1
  O  O405  1  0.95500935  0.33225364  0.80086609  1
  O  O406  1  0.95687992  0.83569234  0.30586291  1
  O  O407  1  0.96113013  0.83354295  0.80483845  1
  O  O408  1  0.12398342  0.42198359  0.30552876  1
  O  O409  1  0.12383783  0.41683256  0.80528879  1
  O  O410  1  0.12202755  0.91825373  0.30590066  1
  O  O411  1  0.12246165  0.91111833  0.80644707  1
  O  O412  1  0.45436839  0.41774077  0.30104368  1
  O  O413  1  0.45626703  0.41593399  0.80229965  1
  O  O414  1  0.46470440  0.91931523  0.31145245  1
  O  O415  1  0.45510566  0.91812011  0.80560695  1
  O  O416  1  0.78869034  0.41754113  0.29823848  1
  O  O417  1  0.79048397  0.41444032  0.80532793  1
  O  O418  1  0.78617014  0.90671407  0.30785372  1
  O  O419  1  0.79021277  0.92173897  0.80649452  1
  O  O420  1  0.28681043  0.16833934  0.30288731  1
  O  O421  1  0.29316726  0.16697865  0.80555569  1
  O  O422  1  0.30139406  0.66662635  0.30998081  1
  O  O423  1  0.28789316  0.67138273  0.80891852  1
  O  O424  1  0.61812793  0.16476565  0.30109730  1
  O  O425  1  0.62285262  0.16418558  0.80148759  1
  O  O426  1  0.62543140  0.66686107  0.30983989  1
  O  O427  1  0.62189969  0.66753565  0.80990578  1
  O  O428  1  0.95579859  0.16627338  0.29524849  1
  O  O429  1  0.95694985  0.16667920  0.80147587  1
  O  O430  1  0.95488993  0.66377456  0.30720259  1
  O  O431  1  0.95704724  0.66680398  0.81021026  1
  F  F432  1  0.04616527  -0.00021268  0.19960477  1
  F  F433  1  0.04209196  -0.00627058  0.69829369  1
  F  F434  1  0.04452042  0.50278484  0.20169089  1
  F  F435  1  0.04441479  0.50081941  0.70152644  1
  F  F436  1  0.38140578  0.00914783  0.19843303  1
  F  F437  1  0.37921120  -0.00022562  0.70098931  1
  F  F438  1  0.37933545  0.50449680  0.20403302  1
  F  F439  1  0.38026925  0.49882323  0.70063540  1
  F  F440  1  0.69854129  -0.00231156  0.19636788  1
  F  F441  1  0.71036892  -0.00346733  0.69939096  1
  F  F442  1  0.71096239  0.50518220  0.20338586  1
  F  F443  1  0.70857936  0.49984575  0.70297972  1
  F  F444  1  0.21028197  0.25033710  0.20153111  1
  F  F445  1  0.21556023  0.24980359  0.70178503  1
  F  F446  1  0.22055285  0.73788825  0.19483327  1
  F  F447  1  0.21112551  0.74952824  0.70210695  1
  F  F448  1  0.54353365  0.25186314  0.20091812  1
  F  F449  1  0.54426458  0.25120446  0.70140935  1
  F  F450  1  0.54663413  0.74519491  0.20313783  1
  F  F451  1  0.54259869  0.74839055  0.70490499  1
  F  F452  1  0.87529393  0.25253352  0.19514803  1
  F  F453  1  0.87826143  0.25103938  0.69779375  1
  F  F454  1  0.86862895  0.74811088  0.20019042  1
  F  F455  1  0.88042496  0.74378235  0.70260295  1
  F  F456  1  0.28443178  0.01048150  0.30201438  1
  F  F457  1  0.29489425  0.00041549  0.80002123  1
  F  F458  1  0.28842978  0.49949039  0.29950384  1
  F  F459  1  0.28638723  0.49744573  0.79947190  1
  F  F460  1  0.62019440  0.00416626  0.29716106  1
  F  F461  1  0.62072473  0.00218682  0.79492017  1
  F  F462  1  0.62248460  0.50066964  0.30016652  1
  F  F463  1  0.62083912  0.49884605  0.79978438  1
  F  F464  1  0.96656616  -0.00160976  0.29875406  1
  F  F465  1  0.95569108  -0.00335071  0.79724919  1
  F  F466  1  0.95565698  0.50263448  0.29642957  1
  F  F467  1  0.95449686  0.49869494  0.79734540  1
  F  F468  1  0.12212077  0.24755404  0.29576712  1
  F  F469  1  0.12294310  0.24737472  0.79511839  1
  F  F470  1  0.11798723  0.73811543  0.31278417  1
  F  F471  1  0.12055389  0.74957726  0.79711694  1
  F  F472  1  0.45312771  0.24648664  0.29750718  1
  F  F473  1  0.45718068  0.24738512  0.79794709  1
  F  F474  1  0.45736791  0.74912622  0.29976342  1
  F  F475  1  0.45254324  0.75268700  0.79996864  1
  F  F476  1  0.78810346  0.25272986  0.29442884  1
  F  F477  1  0.78928308  0.25152314  0.79380994  1
  F  F478  1  0.78820138  0.74896184  0.30082748  1
  F  F479  1  0.78639494  0.74887030  0.80135311  1
