# generated using pymatgen
data_K24Na3Li5Mg64Fe17Si79(O5F)48
_symmetry_space_group_name_H-M   'P 1'
_cell_length_a   16.08695064
_cell_length_b   18.59281961
_cell_length_c   20.55899655
_cell_angle_alpha   90.00558891
_cell_angle_beta   100.00414294
_cell_angle_gamma   89.98781249
_symmetry_Int_Tables_number   1
_chemical_formula_structural   K24Na3Li5Mg64Fe17Si79(O5F)48
_chemical_formula_sum   'K24 Na3 Li5 Mg64 Fe17 Si79 O240 F48'
_cell_volume   6055.73425312
_cell_formula_units_Z   1
loop_
 _symmetry_equiv_pos_site_id
 _symmetry_equiv_pos_as_xyz
  1  'x, y, z'
loop_
 _atom_site_type_symbol
 _atom_site_label
 _atom_site_symmetry_multiplicity
 _atom_site_fract_x
 _atom_site_fract_y
 _atom_site_fract_z
 _atom_site_occupancy
  K  K0  1  0.01270497  0.01622684  0.00871349  1
  K  K1  1  0.00650359  0.00289967  0.49418086  1
  K  K2  1  0.00101570  0.49583604  0.00312353  1
  K  K3  1  0.00945424  0.49401095  0.49878991  1
  K  K4  1  0.32880809  0.00385889  0.01076259  1
  K  K5  1  0.32155534  -0.00032567  0.48654800  1
  K  K6  1  0.33688297  0.49801139  0.00464315  1
  K  K7  1  0.32324330  0.49093432  0.49758140  1
  K  K8  1  0.67309548  0.00977015  0.00807894  1
  K  K9  1  0.65927394  0.01108787  0.49452618  1
  K  K10  1  0.66375084  0.50220774  0.00244855  1
  K  K11  1  0.66403735  0.48887338  0.49988267  1
  K  K12  1  0.17627148  0.24649840  0.00876320  1
  K  K13  1  0.18023571  0.25556953  0.49871143  1
  K  K14  1  0.17842952  0.74695670  0.01883942  1
  K  K15  1  0.17548311  0.74299534  0.49339146  1
  K  K16  1  0.49144341  0.25311345  0.00484553  1
  K  K17  1  0.48682242  0.25246898  0.49078809  1
  K  K18  1  0.49380528  0.73770952  0.00662736  1
  K  K19  1  0.48872841  0.74777580  0.49131573  1
  K  K20  1  0.84100694  0.24540458  0.00306232  1
  K  K21  1  0.83661562  0.24706626  0.50005405  1
  K  K22  1  0.84068086  0.75073609  0.00263699  1
  K  K23  1  0.83501664  0.75400823  0.49566208  1
  Na  Na24  1  0.49701300  0.00160585  0.25334388  1
  Na  Na25  1  0.17347529  0.66932446  0.24649168  1
  Na  Na26  1  0.49399829  0.16997836  0.25622290  1
  Li  Li27  1  0.33584732  0.25012075  0.25915103  1
  Li  Li28  1  0.32954295  0.74432957  0.24877707  1
  Li  Li29  1  0.83380063  0.33101422  0.75184801  1
  Li  Li30  1  0.33138687  0.58643762  0.25009803  1
  Li  Li31  1  0.83355462  0.83414559  0.74715038  1
  Mg  Mg32  1  0.16601872  0.00044858  0.74659869  1
  Mg  Mg33  1  0.67012779  0.75071194  0.75207765  1
  Mg  Mg34  1  0.17068042  0.50200144  0.25090867  1
  Mg  Mg35  1  0.83202376  0.49767293  0.75342430  1
  Mg  Mg36  1  0.16656341  0.49940308  0.74858942  1
  Mg  Mg37  1  -0.00466286  0.75062674  0.74736675  1
  Mg  Mg38  1  0.83535031  -0.00055561  0.74541101  1
  Mg  Mg39  1  0.50337653  -0.00076648  0.75020883  1
  Mg  Mg40  1  0.49923999  0.49860199  0.75615867  1
  Mg  Mg41  1  -0.00054038  0.24973338  0.24643686  1
  Mg  Mg42  1  0.66660869  0.74987907  0.24670488  1
  Mg  Mg43  1  0.83381573  0.00110852  0.24505928  1
  Mg  Mg44  1  0.66314543  0.24975901  0.25204062  1
  Mg  Mg45  1  0.83211982  0.50195532  0.24585140  1
  Mg  Mg46  1  0.00105329  0.74734717  0.24606783  1
  Mg  Mg47  1  0.67184186  0.25202555  0.75464203  1
  Mg  Mg48  1  -0.00194573  0.24991995  0.74527854  1
  Mg  Mg49  1  0.33308233  0.74792877  0.74991768  1
  Mg  Mg50  1  0.49670148  0.50280456  0.25432540  1
  Mg  Mg51  1  0.33486974  0.24988354  0.75155470  1
  Mg  Mg52  1  0.16554852  0.00086010  0.24896115  1
  Mg  Mg53  1  0.83245925  0.66834543  0.75052537  1
  Mg  Mg54  1  0.16990620  0.83037645  0.24816779  1
  Mg  Mg55  1  0.49848552  0.83312659  0.25199518  1
  Mg  Mg56  1  0.16545705  0.16490118  0.74605333  1
  Mg  Mg57  1  0.49608119  0.66726483  0.25376702  1
  Mg  Mg58  1  0.16622442  0.16596122  0.25069591  1
  Mg  Mg59  1  0.33249154  0.08312027  0.74829299  1
  Mg  Mg60  1  0.33218883  0.91463309  0.74805735  1
  Mg  Mg61  1  -0.00300623  0.41489027  0.75056402  1
  Mg  Mg62  1  -0.00134876  0.08560838  0.74386858  1
  Mg  Mg63  1  0.66847681  0.41381788  0.75541255  1
  Mg  Mg64  1  0.50221633  0.33297181  0.75649436  1
  Mg  Mg65  1  -0.00495525  0.91543419  0.74642624  1
  Mg  Mg66  1  -0.00083681  0.08533770  0.24583896  1
  Mg  Mg67  1  0.49499181  0.33486079  0.25688492  1
  Mg  Mg68  1  0.32851174  0.08628535  0.25163883  1
  Mg  Mg69  1  0.33415013  0.41231588  0.75300614  1
  Mg  Mg70  1  0.50234710  0.83340028  0.74973602  1
  Mg  Mg71  1  0.83102406  0.33460921  0.24777175  1
  Mg  Mg72  1  0.66330994  0.41648375  0.25298441  1
  Mg  Mg73  1  0.16827566  0.33324099  0.24791325  1
  Mg  Mg74  1  0.50290073  0.16511606  0.75212029  1
  Mg  Mg75  1  0.66451514  0.08457171  0.25145516  1
  Mg  Mg76  1  0.67144400  0.08516579  0.75034772  1
  Mg  Mg77  1  0.83569173  0.16731968  0.74636831  1
  Mg  Mg78  1  0.83120648  0.83400381  0.24454397  1
  Mg  Mg79  1  0.83154921  0.66534879  0.24533463  1
  Mg  Mg80  1  0.16640186  0.33341778  0.74814491  1
  Mg  Mg81  1  0.33356727  0.91456536  0.25175432  1
  Mg  Mg82  1  0.16534381  0.66460380  0.74930024  1
  Mg  Mg83  1  -0.00196993  0.58398868  0.74877443  1
  Mg  Mg84  1  0.33549513  0.41913530  0.25379591  1
  Mg  Mg85  1  0.83234524  0.16553689  0.24577258  1
  Mg  Mg86  1  0.50045727  0.66460113  0.75231397  1
  Mg  Mg87  1  0.66524295  0.58611393  0.24775346  1
  Mg  Mg88  1  0.00078575  0.91438437  0.24715695  1
  Mg  Mg89  1  0.33292482  0.58228005  0.75129123  1
  Mg  Mg90  1  0.16359729  0.83333633  0.74794789  1
  Mg  Mg91  1  0.67204256  0.91527384  0.74924077  1
  Mg  Mg92  1  -0.00057799  0.58358499  0.24547988  1
  Mg  Mg93  1  -0.00068475  0.41693484  0.24719483  1
  Mg  Mg94  1  0.66447368  0.91832013  0.24747879  1
  Mg  Mg95  1  0.66690046  0.58380889  0.75373922  1
  Fe  Fe96  1  0.36066975  0.32865982  0.61332681  1
  Fe  Fe97  1  0.47689817  0.58706590  0.89263705  1
  Fe  Fe98  1  0.47197984  0.07955062  0.39610580  1
  Fe  Fe99  1  0.85777525  0.58473364  0.10497945  1
  Fe  Fe100  1  0.30947117  0.33800545  0.38852724  1
  Fe  Fe101  1  0.02850917  0.17194728  0.10500786  1
  Fe  Fe102  1  0.19093610  0.58779192  0.60960047  1
  Fe  Fe103  1  0.48414774  0.42194680  0.39699602  1
  Fe  Fe104  1  0.64278390  0.32943858  0.89601236  1
  Fe  Fe105  1  0.68698122  0.67105444  0.10646750  1
  Fe  Fe106  1  0.85746350  0.08048744  0.60486816  1
  Fe  Fe107  1  0.02905258  0.16911788  0.60404448  1
  Fe  Fe108  1  0.19778884  0.07929907  0.60771564  1
  Fe  Fe109  1  0.30402784  0.33242002  0.89206319  1
  Fe  Fe110  1  0.13427056  0.08205905  0.38951586  1
  Fe  Fe111  1  0.19977501  0.08161036  0.10877436  1
  Fe  Fe112  1  0.85555640  0.08283810  0.10527864  1
  Si  Si113  1  0.47473717  0.41693187  0.89463252  1
  Si  Si114  1  0.30099892  0.66912297  0.88881827  1
  Si  Si115  1  0.19307179  0.91052700  0.11266919  1
  Si  Si116  1  0.36383382  0.83241029  0.11594969  1
  Si  Si117  1  0.13520753  0.58430130  0.88514577  1
  Si  Si118  1  0.69492515  0.17373024  0.61410063  1
  Si  Si119  1  0.64776943  0.67115314  0.38638186  1
  Si  Si120  1  0.97174405  0.83096666  0.38188601  1
  Si  Si121  1  0.80962612  0.91910060  0.38156043  1
  Si  Si122  1  0.36574895  0.66929110  0.61244541  1
  Si  Si123  1  0.64896143  0.83643752  0.88537227  1
  Si  Si124  1  0.81350456  0.91825716  0.88253637  1
  Si  Si125  1  0.13507632  0.41907200  0.38510274  1
  Si  Si126  1  0.31231978  0.66203173  0.38448560  1
  Si  Si127  1  0.18627511  0.90786226  0.61102423  1
  Si  Si128  1  0.02570246  0.82839368  0.11203583  1
  Si  Si129  1  0.36699496  0.15759650  0.61458929  1
  Si  Si130  1  0.80976266  0.58509053  0.88622467  1
  Si  Si131  1  0.68656259  0.33300324  0.11704151  1
  Si  Si132  1  0.14149540  0.90968760  0.38512704  1
  Si  Si133  1  0.81342084  0.08078946  0.88364764  1
  Si  Si134  1  0.47537561  0.90653086  0.39057997  1
  Si  Si135  1  0.02949367  0.66221925  0.10926623  1
  Si  Si136  1  0.80951498  0.58323069  0.38538602  1
  Si  Si137  1  0.64895032  0.33022314  0.39152598  1
  Si  Si138  1  0.68868680  0.82895004  0.61454175  1
  Si  Si139  1  0.97485905  0.66644386  0.38347636  1
  Si  Si140  1  0.30344775  0.16567383  0.39367599  1
  Si  Si141  1  0.18653781  0.41669010  0.61108646  1
  Si  Si142  1  0.96920494  0.33482778  0.88329749  1
  Si  Si143  1  0.52367194  0.92188798  0.11465688  1
  Si  Si144  1  0.36119487  0.83510266  0.61418877  1
  Si  Si145  1  0.35903066  0.33437414  0.11757589  1
  Si  Si146  1  0.64644572  0.15813154  0.88928212  1
  Si  Si147  1  0.31120864  0.16027570  0.88777514  1
  Si  Si148  1  0.64702523  0.67235698  0.88812560  1
  Si  Si149  1  0.85056161  0.41483650  0.11179274  1
  Si  Si150  1  0.01795381  0.66788427  0.61193967  1
  Si  Si151  1  0.85621270  0.90988451  0.10868472  1
  Si  Si152  1  0.85148288  0.91270284  0.61023117  1
  Si  Si153  1  0.53051568  0.41745186  0.61809840  1
  Si  Si154  1  0.19450895  0.42151944  0.11340153  1
  Si  Si155  1  0.64565422  0.16656443  0.38880681  1
  Si  Si156  1  0.47690121  0.07648729  0.88600388  1
  Si  Si157  1  0.48534713  0.59064454  0.39276381  1
  Si  Si158  1  0.52898541  0.58197008  0.61741101  1
  Si  Si159  1  0.01807528  0.83107656  0.61291450  1
  Si  Si160  1  0.52271142  0.57964955  0.11491345  1
  Si  Si161  1  0.85450482  0.58387269  0.61546240  1
  Si  Si162  1  0.30703504  0.82598466  0.38500212  1
  Si  Si163  1  0.68591555  0.16919543  0.11197943  1
  Si  Si164  1  0.97527813  0.16982815  0.88328353  1
  Si  Si165  1  0.80445337  0.08364781  0.38254559  1
  Si  Si166  1  0.30610103  0.83503882  0.88469121  1
  Si  Si167  1  0.80784407  0.41873147  0.38494270  1
  Si  Si168  1  0.52782105  0.91885174  0.61448341  1
  Si  Si169  1  0.69046700  0.66543952  0.61568667  1
  Si  Si170  1  0.97671857  0.83300710  0.88306671  1
  Si  Si171  1  0.13358359  0.41774200  0.88713985  1
  Si  Si172  1  0.36104021  0.16917699  0.11450586  1
  Si  Si173  1  0.47778743  0.91086268  0.88542073  1
  Si  Si174  1  0.96529162  0.16962962  0.38488374  1
  Si  Si175  1  0.64619505  0.83425915  0.38405786  1
  Si  Si176  1  0.69506456  0.33721813  0.61967160  1
  Si  Si177  1  0.97270458  0.66872861  0.88468427  1
  Si  Si178  1  0.52684367  0.08667065  0.11676105  1
  Si  Si179  1  0.14046994  0.58358140  0.38302876  1
  Si  Si180  1  0.53576586  0.08507934  0.61704545  1
  Si  Si181  1  0.20038233  0.58341580  0.11498268  1
  Si  Si182  1  0.01844077  0.33778790  0.61245596  1
  Si  Si183  1  0.68349815  0.83814974  0.11021951  1
  Si  Si184  1  0.36408752  0.66751081  0.11773377  1
  Si  Si185  1  0.13963097  0.91814676  0.88356673  1
  Si  Si186  1  0.13905826  0.08310481  0.88343902  1
  Si  Si187  1  0.80740989  0.42089606  0.88997328  1
  Si  Si188  1  0.97058040  0.33494504  0.38231079  1
  Si  Si189  1  0.85728154  0.42082274  0.61712399  1
  Si  Si190  1  0.52295384  0.41611457  0.11867022  1
  Si  Si191  1  0.02418466  0.34251431  0.11048258  1
  O  O192  1  0.28803346  0.12114367  0.07019083  1
  O  O193  1  0.30650738  0.09052268  0.58766096  1
  O  O194  1  0.27585205  0.62591230  0.08475752  1
  O  O195  1  0.28301204  0.62811750  0.57528624  1
  O  O196  1  0.60478374  0.11717099  0.08129160  1
  O  O197  1  0.61627194  0.11731517  0.58798659  1
  O  O198  1  0.59773398  0.60620692  0.07800028  1
  O  O199  1  0.61112240  0.61257446  0.58719666  1
  O  O200  1  0.93518869  0.12104809  0.06191033  1
  O  O201  1  0.95061595  0.10003183  0.56775887  1
  O  O202  1  0.95526483  0.61207135  0.06998339  1
  O  O203  1  0.93500922  0.61574711  0.58520765  1
  O  O204  1  0.10159943  0.38648002  0.08311980  1
  O  O205  1  0.10164300  0.36685207  0.58415586  1
  O  O206  1  0.10524260  0.86426102  0.08329764  1
  O  O207  1  0.10503690  0.85263531  0.58561302  1
  O  O208  1  0.43961356  0.36853860  0.08659285  1
  O  O209  1  0.45775939  0.36408903  0.58372579  1
  O  O210  1  0.43898177  0.87366206  0.08271223  1
  O  O211  1  0.43680142  0.87938580  0.58635856  1
  O  O212  1  0.77193464  0.35685410  0.08816173  1
  O  O213  1  0.77745079  0.36734373  0.58855885  1
  O  O214  1  0.77114344  0.86002060  0.08273537  1
  O  O215  1  0.77342142  0.85342935  0.58580858  1
  O  O216  1  0.27110672  0.37840387  0.08527983  1
  O  O217  1  0.26552439  0.38522220  0.58101158  1
  O  O218  1  0.27124098  0.86757156  0.08465771  1
  O  O219  1  0.26911422  0.87068134  0.58487441  1
  O  O220  1  0.60621884  0.38634526  0.08894107  1
  O  O221  1  0.61956026  0.39499166  0.59253345  1
  O  O222  1  0.60864637  0.89875203  0.08361526  1
  O  O223  1  0.60432924  0.87805191  0.58440307  1
  O  O224  1  0.93628456  0.38892446  0.08435823  1
  O  O225  1  0.94126721  0.39741234  0.58709061  1
  O  O226  1  0.93620619  0.86933002  0.08159223  1
  O  O227  1  0.93685167  0.88165406  0.58239742  1
  O  O228  1  0.11061673  0.13406977  0.06294716  1
  O  O229  1  0.12821015  0.15273860  0.57215557  1
  O  O230  1  0.11671434  0.63270163  0.08515766  1
  O  O231  1  0.09515862  0.64554442  0.57604951  1
  O  O232  1  0.44886277  0.14123532  0.08891757  1
  O  O233  1  0.45796107  0.13820967  0.58995762  1
  O  O234  1  0.43778598  0.62699676  0.08475141  1
  O  O235  1  0.45019865  0.63526718  0.58803396  1
  O  O236  1  0.76110649  0.14309285  0.07501804  1
  O  O237  1  0.77172133  0.15032339  0.57803231  1
  O  O238  1  0.77811957  0.65056000  0.06636258  1
  O  O239  1  0.77314392  0.63581454  0.58636689  1
  O  O240  1  0.03868709  0.11774466  0.42036664  1
  O  O241  1  0.06309052  0.12550329  0.91214757  1
  O  O242  1  0.06675009  0.63021331  0.41366565  1
  O  O243  1  0.05530627  0.61986260  0.91460789  1
  O  O244  1  0.37890675  0.11214543  0.43023406  1
  O  O245  1  0.39610150  0.10934928  0.91473744  1
  O  O246  1  0.40275679  0.62530173  0.42119925  1
  O  O247  1  0.38284166  0.62672374  0.92564580  1
  O  O248  1  0.72428049  0.10940407  0.41588080  1
  O  O249  1  0.72972348  0.10537160  0.91378060  1
  O  O250  1  0.73315475  0.62268783  0.41654919  1
  O  O251  1  0.72876342  0.61929296  0.91394738  1
  O  O252  1  0.21526234  0.37598013  0.42231097  1
  O  O253  1  0.20974528  0.36931732  0.92474883  1
  O  O254  1  0.22753206  0.86248659  0.41495465  1
  O  O255  1  0.23231590  0.88123574  0.91266519  1
  O  O256  1  0.57717271  0.35986138  0.43003213  1
  O  O257  1  0.54342824  0.35553548  0.92516778  1
  O  O258  1  0.56396204  0.85797365  0.41608895  1
  O  O259  1  0.56545465  0.86655743  0.91408283  1
  O  O260  1  0.89378362  0.37367308  0.41331033  1
  O  O261  1  0.89014048  0.36833363  0.91460197  1
  O  O262  1  0.89462963  0.87139254  0.41181744  1
  O  O263  1  0.89640979  0.86815408  0.91197931  1
  O  O264  1  0.05210234  0.38417874  0.41208251  1
  O  O265  1  0.04794620  0.38855828  0.91331418  1
  O  O266  1  0.06228140  0.86750853  0.41279515  1
  O  O267  1  0.06505215  0.87550911  0.91376538  1
  O  O268  1  0.39473069  0.39361519  0.43501609  1
  O  O269  1  0.38761365  0.40013943  0.92265959  1
  O  O270  1  0.39709200  0.86438695  0.41966112  1
  O  O271  1  0.39870182  0.87196651  0.91328811  1
  O  O272  1  0.73349108  0.38162784  0.41792695  1
  O  O273  1  0.73209187  0.39460374  0.92684431  1
  O  O274  1  0.72960040  0.88516126  0.41254695  1
  O  O275  1  0.73075662  0.88806579  0.91276467  1
  O  O276  1  0.22060602  0.14282026  0.42609736  1
  O  O277  1  0.23087800  0.11874301  0.91313901  1
  O  O278  1  0.23236545  0.62102464  0.41256798  1
  O  O279  1  0.21710359  0.63452767  0.91421345  1
  O  O280  1  0.56835753  0.14080393  0.42355596  1
  O  O281  1  0.56562573  0.11762996  0.91569791  1
  O  O282  1  0.56708283  0.64683356  0.41992454  1
  O  O283  1  0.56795352  0.65100662  0.92203673  1
  O  O284  1  0.87875731  0.14127455  0.41065338  1
  O  O285  1  0.89600452  0.13124286  0.91158686  1
  O  O286  1  0.89956377  0.62439779  0.41442291  1
  O  O287  1  0.89134213  0.63717480  0.91341405  1
  O  O288  1  0.18355566  -0.01385079  0.07391722  1
  O  O289  1  0.16300149  -0.01582734  0.57732490  1
  O  O290  1  0.19147814  0.50270227  0.07930932  1
  O  O291  1  0.16224314  0.49567822  0.57827129  1
  O  O292  1  0.50211193  0.00442442  0.08651278  1
  O  O293  1  0.52162717  0.00195825  0.58806759  1
  O  O294  1  0.50050410  0.49671062  0.08872075  1
  O  O295  1  0.51044670  0.50067052  0.58950940  1
  O  O296  1  0.83810008  -0.01343477  0.07286070  1
  O  O297  1  0.81949657  -0.01344782  0.57378768  1
  O  O298  1  0.82140734  0.49055832  0.07730911  1
  O  O299  1  0.83206753  0.50257158  0.58614872  1
  O  O300  1  0.01213315  0.26730638  0.07197047  1
  O  O301  1  -0.01374929  0.26300552  0.57833085  1
  O  O302  1  0.01731030  0.74652149  0.08090593  1
  O  O303  1  -0.01179058  0.75005810  0.58659682  1
  O  O304  1  0.34837635  0.25336789  0.08598676  1
  O  O305  1  0.33630578  0.23445194  0.58255054  1
  O  O306  1  0.35864279  0.74980261  0.08510886  1
  O  O307  1  0.36265788  0.75351739  0.58466423  1
  O  O308  1  0.65859552  0.25278538  0.08847789  1
  O  O309  1  0.66798262  0.25695055  0.58941186  1
  O  O310  1  0.64746058  0.76375597  0.07667413  1
  O  O311  1  0.66767732  0.74651649  0.58571422  1
  O  O312  1  0.15227250  -0.01371299  0.42171821  1
  O  O313  1  0.14194153  0.00009525  0.91296969  1
  O  O314  1  0.13957536  0.50275607  0.41530853  1
  O  O315  1  0.14682600  0.50252566  0.91421862  1
  O  O316  1  0.49311495  -0.01766388  0.42855160  1
  O  O317  1  0.48863980  -0.00703469  0.91460795  1
  O  O318  1  0.51294851  0.51622015  0.43074205  1
  O  O319  1  0.50962200  0.49566044  0.92377199  1
  O  O320  1  0.82802999  0.00097898  0.41040811  1
  O  O321  1  0.83581225  -0.00093593  0.91271222  1
  O  O322  1  0.81990055  0.50112030  0.41568476  1
  O  O323  1  0.83360609  0.50484441  0.91632186  1
  O  O324  1  0.33034971  0.24596585  0.42227423  1
  O  O325  1  0.32680194  0.23686274  0.92449788  1
  O  O326  1  0.31353095  0.74424125  0.41752029  1
  O  O327  1  0.30557685  0.75402626  0.91569249  1
  O  O328  1  0.67785909  0.24795120  0.41643186  1
  O  O329  1  0.66681653  0.23372041  0.92630749  1
  O  O330  1  0.67385795  0.75328326  0.41365281  1
  O  O331  1  0.67530520  0.75554099  0.91261977  1
  O  O332  1  0.97937969  0.25359490  0.41255680  1
  O  O333  1  0.98523646  0.25214776  0.91302571  1
  O  O334  1  0.97430300  0.74883404  0.41305067  1
  O  O335  1  0.98839143  0.75080939  0.91345646  1
  O  O336  1  0.20809691  0.08251011  0.19972207  1
  O  O337  1  0.21311869  0.08019939  0.70097486  1
  O  O338  1  0.21367008  0.57510072  0.19266928  1
  O  O339  1  0.21149798  0.58538080  0.70179481  1
  O  O340  1  0.55342284  0.08411874  0.19453037  1
  O  O341  1  0.54977235  0.08120106  0.69786111  1
  O  O342  1  0.54283986  0.58401829  0.19571698  1
  O  O343  1  0.54717477  0.58500806  0.69779192  1
  O  O344  1  0.87700589  0.08311568  0.19775776  1
  O  O345  1  0.87761660  0.08196969  0.69788478  1
  O  O346  1  0.87655593  0.58345860  0.19791553  1
  O  O347  1  0.87381928  0.58451636  0.69588772  1
  O  O348  1  0.04093200  0.33769660  0.19135912  1
  O  O349  1  0.04002223  0.33648445  0.69372688  1
  O  O350  1  0.04092867  0.83095852  0.19225028  1
  O  O351  1  0.03969653  0.83264456  0.69357978  1
  O  O352  1  0.37851243  0.33957718  0.19616546  1
  O  O353  1  0.38342719  0.33189683  0.70521966  1
  O  O354  1  0.38235493  0.83673277  0.19494641  1
  O  O355  1  0.37825193  0.83359679  0.69500354  1
  O  O356  1  0.70769933  0.33537453  0.19751687  1
  O  O357  1  0.71258325  0.33511281  0.69927523  1
  O  O358  1  0.70716622  0.83557346  0.19148049  1
  O  O359  1  0.70391210  0.83117215  0.69424207  1
  O  O360  1  0.20852857  0.41993969  0.19304210  1
  O  O361  1  0.20502015  0.41791513  0.69285656  1
  O  O362  1  0.20746103  0.91423764  0.19299902  1
  O  O363  1  0.20838157  0.91089114  0.69251564  1
  O  O364  1  0.54401603  0.41800743  0.19860174  1
  O  O365  1  0.54518964  0.41920283  0.69908559  1
  O  O366  1  0.54548392  0.91100036  0.19347734  1
  O  O367  1  0.54552281  0.91538892  0.69516159  1
  O  O368  1  0.87216158  0.41668495  0.19305487  1
  O  O369  1  0.87690767  0.42334600  0.69661703  1
  O  O370  1  0.87569653  0.91338891  0.18982922  1
  O  O371  1  0.87516682  0.91627332  0.69047650  1
  O  O372  1  0.03978093  0.16884345  0.19687548  1
  O  O373  1  0.04507164  0.16688797  0.69753964  1
  O  O374  1  0.03339096  0.66513721  0.18852208  1
  O  O375  1  0.03945204  0.66638102  0.69310915  1
  O  O376  1  0.36443389  0.16554130  0.19245088  1
  O  O377  1  0.38275160  0.16195732  0.69680322  1
  O  O378  1  0.38241487  0.66812184  0.19611083  1
  O  O379  1  0.37699186  0.66943947  0.69340020  1
  O  O380  1  0.70827504  0.16790291  0.19285988  1
  O  O381  1  0.71126277  0.16855687  0.69522460  1
  O  O382  1  0.71094398  0.66748737  0.19930894  1
  O  O383  1  0.70934941  0.66633598  0.69608537  1
  O  O384  1  0.11540449  0.08026773  0.29837260  1
  O  O385  1  0.12135171  0.08066597  0.80351574  1
  O  O386  1  0.11674283  0.57965016  0.30409507  1
  O  O387  1  0.11829694  0.58539052  0.80473788  1
  O  O388  1  0.44144778  0.08137200  0.30944943  1
  O  O389  1  0.45931909  0.07793739  0.80545801  1
  O  O390  1  0.47092099  0.58636580  0.31318430  1
  O  O391  1  0.45372772  0.58590668  0.80034002  1
  O  O392  1  0.78887938  0.08273695  0.30235648  1
  O  O393  1  0.79206458  0.08111632  0.80346050  1
  O  O394  1  0.79027748  0.58316233  0.30566027  1
  O  O395  1  0.79124223  0.58530574  0.80550255  1
  O  O396  1  0.28415154  0.33814487  0.29864176  1
  O  O397  1  0.28446527  0.33210001  0.80050827  1
  O  O398  1  0.28866111  0.83186342  0.30576135  1
  O  O399  1  0.28923563  0.83322122  0.80404295  1
  O  O400  1  0.62805232  0.33498847  0.31087560  1
  O  O401  1  0.62420777  0.33213099  0.80400225  1
  O  O402  1  0.62773422  0.83431924  0.30397529  1
  O  O403  1  0.62575298  0.83558671  0.80484697  1
  O  O404  1  0.95269195  0.33531305  0.30179127  1
  O  O405  1  0.95721881  0.33349551  0.80372611  1
  O  O406  1  0.95339226  0.83184510  0.30172449  1
  O  O407  1  0.96110931  0.83285126  0.80342560  1
  O  O408  1  0.11900605  0.41844579  0.30436916  1
  O  O409  1  0.12039318  0.41812191  0.80604187  1
  O  O410  1  0.12161410  0.91230790  0.30434456  1
  O  O411  1  0.12277007  0.91514331  0.80312523  1
  O  O412  1  0.45881259  0.42134151  0.30539453  1
  O  O413  1  0.45884354  0.41744824  0.81226482  1
  O  O414  1  0.45389705  0.90665250  0.31102011  1
  O  O415  1  0.45890789  0.91275330  0.80490297  1
  O  O416  1  0.78935043  0.41897742  0.30467498  1
  O  O417  1  0.78725441  0.42279365  0.80988447  1
  O  O418  1  0.79182921  0.91578929  0.30134246  1
  O  O419  1  0.79170924  0.91840602  0.80286749  1
  O  O420  1  0.28277071  0.16241114  0.31278068  1
  O  O421  1  0.29366969  0.16352753  0.80700439  1
  O  O422  1  0.30168591  0.66483426  0.30704328  1
  O  O423  1  0.28855923  0.66960808  0.80786410  1
  O  O424  1  0.63425867  0.16755887  0.30902197  1
  O  O425  1  0.62639103  0.16183653  0.80833353  1
  O  O426  1  0.62807654  0.66803706  0.30657277  1
  O  O427  1  0.62603114  0.66939469  0.80681316  1
  O  O428  1  0.95155849  0.17022488  0.30430747  1
  O  O429  1  0.95762081  0.16776299  0.80351066  1
  O  O430  1  0.95578584  0.66686170  0.30358545  1
  O  O431  1  0.95621557  0.66744602  0.80418744  1
  F  F432  1  0.04192465  -0.00540187  0.19765772  1
  F  F433  1  0.04514713  -0.00381778  0.70065694  1
  F  F434  1  0.04459766  0.49955957  0.19983480  1
  F  F435  1  0.04286586  0.50124896  0.70288487  1
  F  F436  1  0.36207670  -0.00246599  0.19945107  1
  F  F437  1  0.38275226  -0.00494625  0.70399201  1
  F  F438  1  0.38026657  0.50143417  0.20414222  1
  F  F439  1  0.37842905  0.49793298  0.70449026  1
  F  F440  1  0.71271819  -0.00063318  0.19907134  1
  F  F441  1  0.71083911  -0.00063599  0.70066866  1
  F  F442  1  0.70952555  0.49960026  0.20266926  1
  F  F443  1  0.71153912  0.50205598  0.70472756  1
  F  F444  1  0.19810861  0.24922883  0.19820903  1
  F  F445  1  0.21303463  0.24792206  0.70194535  1
  F  F446  1  0.21124040  0.76067229  0.19085833  1
  F  F447  1  0.21173752  0.74982207  0.70225013  1
  F  F448  1  0.54828512  0.26271748  0.20389154  1
  F  F449  1  0.54884560  0.24691032  0.70671643  1
  F  F450  1  0.54588200  0.74930511  0.20304753  1
  F  F451  1  0.54643007  0.74972549  0.70382222  1
  F  F452  1  0.87608530  0.25221349  0.19924897  1
  F  F453  1  0.87862854  0.24902283  0.69991175  1
  F  F454  1  0.87803303  0.75028227  0.19964065  1
  F  F455  1  0.87773171  0.74548451  0.69955011  1
  F  F456  1  0.28239475  -0.00798758  0.30162646  1
  F  F457  1  0.28946167  -0.00629240  0.79867077  1
  F  F458  1  0.28429525  0.49623687  0.30387951  1
  F  F459  1  0.28635411  0.49898501  0.79934601  1
  F  F460  1  0.63719690  -0.00208523  0.30305027  1
  F  F461  1  0.62418955  -0.00282304  0.79840743  1
  F  F462  1  0.62472615  0.50284557  0.29949746  1
  F  F463  1  0.62255745  0.50246402  0.80118077  1
  F  F464  1  0.95322130  -0.00527499  0.29554483  1
  F  F465  1  0.95658803  -0.00286814  0.79708807  1
  F  F466  1  0.95285011  0.49863820  0.29676860  1
  F  F467  1  0.95454454  0.50286933  0.79946291  1
  F  F468  1  0.11597360  0.25516949  0.29829430  1
  F  F469  1  0.12081348  0.25081778  0.79636467  1
  F  F470  1  0.11444511  0.75681161  0.29931633  1
  F  F471  1  0.11893470  0.74986239  0.79572900  1
  F  F472  1  0.45327861  0.26296613  0.31036166  1
  F  F473  1  0.45767629  0.24353955  0.80285508  1
  F  F474  1  0.46872610  0.75095950  0.30482203  1
  F  F475  1  0.45435868  0.75193617  0.79814497  1
  F  F476  1  0.78855088  0.25118492  0.29529739  1
  F  F477  1  0.79003720  0.24266562  0.80158748  1
  F  F478  1  0.79022905  0.75263648  0.29671223  1
  F  F479  1  0.78778000  0.74727314  0.79990156  1
