# generated using pymatgen
data_K24Na3Li5Mg64Fe17Si79(O5F)48
_symmetry_space_group_name_H-M   'P 1'
_cell_length_a   16.10237569
_cell_length_b   18.61185557
_cell_length_c   20.57132881
_cell_angle_alpha   89.99230351
_cell_angle_beta   100.02833766
_cell_angle_gamma   89.98954980
_symmetry_Int_Tables_number   1
_chemical_formula_structural   K24Na3Li5Mg64Fe17Si79(O5F)48
_chemical_formula_sum   'K24 Na3 Li5 Mg64 Fe17 Si79 O240 F48'
_cell_volume   6070.93371548
_cell_formula_units_Z   1
loop_
 _symmetry_equiv_pos_site_id
 _symmetry_equiv_pos_as_xyz
  1  'x, y, z'
loop_
 _atom_site_type_symbol
 _atom_site_label
 _atom_site_symmetry_multiplicity
 _atom_site_fract_x
 _atom_site_fract_y
 _atom_site_fract_z
 _atom_site_occupancy
  K  K0  1  -0.00019335  -0.00638845  0.00796714  1
  K  K1  1  0.00099056  -0.00936261  0.49273094  1
  K  K2  1  0.00376986  0.50811627  0.00191486  1
  K  K3  1  0.00110450  0.50520149  0.50137572  1
  K  K4  1  0.34080917  -0.00982461  0.01204318  1
  K  K5  1  0.34292041  -0.00545493  0.49301700  1
  K  K6  1  0.33125438  0.50482589  0.00403531  1
  K  K7  1  0.32684651  0.51085306  0.48870014  1
  K  K8  1  0.65789943  0.00616897  0.00063449  1
  K  K9  1  0.65801532  -0.00280823  0.49665750  1
  K  K10  1  0.66408065  0.50227241  0.00433782  1
  K  K11  1  0.66372557  0.51514941  0.49434538  1
  K  K12  1  0.17095836  0.24864535  -0.00203270  1
  K  K13  1  0.16807018  0.25803531  0.49913013  1
  K  K14  1  0.17231543  0.74730036  0.01657599  1
  K  K15  1  0.16002706  0.74259565  0.48609213  1
  K  K16  1  0.51857561  0.25339695  -0.00276810  1
  K  K17  1  0.49433306  0.24698303  0.49870012  1
  K  K18  1  0.49585684  0.74012204  0.01681743  1
  K  K19  1  0.48694835  0.74093264  0.47586178  1
  K  K20  1  0.83081464  0.25734496  -0.00548256  1
  K  K21  1  0.83785409  0.26067111  0.50032611  1
  K  K22  1  0.83539214  0.75087088  0.00761373  1
  K  K23  1  0.84525726  0.73409174  0.49114030  1
  Na  Na24  1  0.33277909  0.75095182  0.25297039  1
  Na  Na25  1  0.33088774  0.91419651  0.25337858  1
  Na  Na26  1  0.49703084  0.67022630  0.24901486  1
  Li  Li27  1  0.16257901  0.50064087  0.74502199  1
  Li  Li28  1  0.50194914  0.00647538  0.75586335  1
  Li  Li29  1  0.50611275  0.16230945  0.75963554  1
  Li  Li30  1  0.83165169  0.66626406  0.24242705  1
  Li  Li31  1  0.17339856  0.82687295  0.24819478  1
  Mg  Mg32  1  -0.00096148  0.25140313  0.24583400  1
  Mg  Mg33  1  0.50070203  0.50024008  0.75248557  1
  Mg  Mg34  1  0.49997461  0.50021771  0.24583224  1
  Mg  Mg35  1  0.83419946  -0.00277436  0.25447718  1
  Mg  Mg36  1  0.83207952  0.00080538  0.75244074  1
  Mg  Mg37  1  0.83319633  0.50295046  0.24347706  1
  Mg  Mg38  1  0.66754283  0.75088089  0.75170538  1
  Mg  Mg39  1  0.33715625  0.25056671  0.74933890  1
  Mg  Mg40  1  0.33224882  0.74999495  0.74869015  1
  Mg  Mg41  1  0.16767035  0.49894883  0.24689539  1
  Mg  Mg42  1  0.83428387  0.50292641  0.74989480  1
  Mg  Mg43  1  -0.00036420  0.74989344  0.25251632  1
  Mg  Mg44  1  0.00092775  0.74750333  0.74659573  1
  Mg  Mg45  1  -0.00039922  0.25135345  0.74387006  1
  Mg  Mg46  1  0.66754209  0.25046642  0.25055024  1
  Mg  Mg47  1  0.66165565  0.24991397  0.75577709  1
  Mg  Mg48  1  0.67021777  0.74884318  0.25203169  1
  Mg  Mg49  1  0.49642176  -0.00117400  0.25267530  1
  Mg  Mg50  1  0.16865611  0.00191102  0.74655519  1
  Mg  Mg51  1  0.33241085  0.24983202  0.25018148  1
  Mg  Mg52  1  0.16762078  -0.00498387  0.25357208  1
  Mg  Mg53  1  0.16826816  0.16744021  0.74503571  1
  Mg  Mg54  1  0.50325016  0.33234999  0.75467797  1
  Mg  Mg55  1  0.33375036  0.08213868  0.25384615  1
  Mg  Mg56  1  0.66905788  0.41565896  0.75609337  1
  Mg  Mg57  1  0.33285784  0.41479408  0.24817486  1
  Mg  Mg58  1  -0.00284950  0.58459458  0.24767498  1
  Mg  Mg59  1  0.66521142  0.58578563  0.24650322  1
  Mg  Mg60  1  0.83718711  0.66436461  0.74971369  1
  Mg  Mg61  1  -0.00062750  0.08527917  0.74632948  1
  Mg  Mg62  1  0.00024937  0.58454079  0.74612437  1
  Mg  Mg63  1  0.83256993  0.16522517  0.25116671  1
  Mg  Mg64  1  0.50007337  0.83710652  0.75186217  1
  Mg  Mg65  1  0.16353002  0.33412194  0.24486079  1
  Mg  Mg66  1  0.83473355  0.83411693  0.75113893  1
  Mg  Mg67  1  0.33096222  0.41807920  0.74777162  1
  Mg  Mg68  1  0.66655755  0.91558374  0.25210462  1
  Mg  Mg69  1  0.00056739  0.41681054  0.74131677  1
  Mg  Mg70  1  0.49867702  0.16440450  0.25485040  1
  Mg  Mg71  1  0.66545993  0.08363722  0.25429446  1
  Mg  Mg72  1  0.16305789  0.66207810  0.74536374  1
  Mg  Mg73  1  0.33337580  0.58382369  0.24853879  1
  Mg  Mg74  1  0.83281522  0.33499456  0.74910061  1
  Mg  Mg75  1  0.16472226  0.33637878  0.74274987  1
  Mg  Mg76  1  -0.00080206  0.08306219  0.25136503  1
  Mg  Mg77  1  0.50110802  0.66719810  0.75147968  1
  Mg  Mg78  1  0.83580155  0.83061371  0.25309071  1
  Mg  Mg79  1  0.16717705  0.66860454  0.24933286  1
  Mg  Mg80  1  0.00499363  0.91307575  0.25566280  1
  Mg  Mg81  1  0.49967525  0.33351325  0.24934213  1
  Mg  Mg82  1  0.00044193  0.91691313  0.74813822  1
  Mg  Mg83  1  0.66085297  0.08477143  0.75609789  1
  Mg  Mg84  1  -0.00172258  0.41589146  0.24436106  1
  Mg  Mg85  1  0.66524679  0.41670067  0.24677307  1
  Mg  Mg86  1  0.66395892  0.91890992  0.75252387  1
  Mg  Mg87  1  0.32974519  0.58310250  0.74706812  1
  Mg  Mg88  1  0.16609279  0.83444677  0.74604947  1
  Mg  Mg89  1  0.50192753  0.83265429  0.25556168  1
  Mg  Mg90  1  0.83304833  0.33625699  0.24490244  1
  Mg  Mg91  1  0.67033470  0.58546218  0.75257704  1
  Mg  Mg92  1  0.83045838  0.16587209  0.75207676  1
  Mg  Mg93  1  0.33675064  0.91881036  0.75020710  1
  Mg  Mg94  1  0.16508651  0.16472572  0.25072560  1
  Mg  Mg95  1  0.34137882  0.08459533  0.75082908  1
  Fe  Fe96  1  0.98259834  0.67265967  0.89137201  1
  Fe  Fe97  1  0.36050353  0.83268337  0.10946792  1
  Fe  Fe98  1  0.64391857  0.34014145  0.89640968  1
  Fe  Fe99  1  0.02804244  0.66803910  0.60289995  1
  Fe  Fe100  1  0.47673442  0.58000678  0.39061689  1
  Fe  Fe101  1  0.47641226  0.08118979  0.39505824  1
  Fe  Fe102  1  0.30138347  0.66877035  0.39249146  1
  Fe  Fe103  1  0.81199898  0.58887924  0.89242141  1
  Fe  Fe104  1  0.02759982  0.32990562  0.10389314  1
  Fe  Fe105  1  0.97979826  0.83058369  0.39426300  1
  Fe  Fe106  1  0.02418001  0.33333709  0.60232860  1
  Fe  Fe107  1  0.68587767  0.67192628  0.10936466  1
  Fe  Fe108  1  0.64330297  0.16309646  0.89699036  1
  Fe  Fe109  1  0.86165498  0.42150509  0.10544612  1
  Fe  Fe110  1  0.19971933  0.41405450  0.10671150  1
  Fe  Fe111  1  0.52949949  0.40883279  0.10927185  1
  Fe  Fe112  1  0.85270324  0.58181716  0.60570721  1
  Si  Si113  1  0.20013828  0.41684695  0.60844349  1
  Si  Si114  1  0.13491515  0.57597619  0.38492895  1
  Si  Si115  1  0.97087570  0.33253803  0.38342556  1
  Si  Si116  1  0.53069857  0.58387309  0.61743021  1
  Si  Si117  1  0.68900768  0.32849863  0.61729715  1
  Si  Si118  1  0.36561228  0.32565674  0.11161531  1
  Si  Si119  1  0.13855207  0.41195588  0.38330340  1
  Si  Si120  1  0.69000797  0.84068403  0.11554862  1
  Si  Si121  1  0.85654800  0.07803706  0.11751022  1
  Si  Si122  1  0.36005277  0.16876315  0.61590940  1
  Si  Si123  1  0.80599773  0.41694486  0.38360995  1
  Si  Si124  1  0.14433251  0.08768106  0.88115397  1
  Si  Si125  1  0.52379439  0.08280587  0.61980883  1
  Si  Si126  1  0.80836333  0.08309585  0.38825166  1
  Si  Si127  1  0.81831274  0.42014306  0.88712659  1
  Si  Si128  1  0.01940509  0.16153958  0.11273540  1
  Si  Si129  1  0.52887439  0.92226405  0.11548127  1
  Si  Si130  1  0.02642382  0.66897905  0.11576277  1
  Si  Si131  1  0.36560590  0.33437580  0.61453459  1
  Si  Si132  1  0.81270728  0.91316113  0.88618080  1
  Si  Si133  1  0.97508780  0.33026184  0.88087298  1
  Si  Si134  1  0.47100272  0.91302673  0.88703872  1
  Si  Si135  1  0.69135720  0.16282889  0.11795180  1
  Si  Si136  1  0.52294341  0.08615144  0.11847685  1
  Si  Si137  1  0.64622067  0.16877864  0.39097808  1
  Si  Si138  1  0.81435678  0.07874163  0.88984734  1
  Si  Si139  1  0.30872640  0.16908115  0.88364398  1
  Si  Si140  1  0.14568316  0.92509334  0.39348400  1
  Si  Si141  1  0.19624305  0.08374398  0.61258076  1
  Si  Si142  1  0.47668824  0.40955555  0.38818463  1
  Si  Si143  1  0.30006765  0.66681461  0.88195288  1
  Si  Si144  1  0.68754021  0.16450627  0.61737423  1
  Si  Si145  1  0.52402274  0.91958179  0.61757501  1
  Si  Si146  1  0.97713583  0.16491471  0.88266029  1
  Si  Si147  1  0.36025018  0.83313814  0.61501159  1
  Si  Si148  1  0.30351361  0.16786953  0.38888360  1
  Si  Si149  1  0.18810605  0.08136349  0.11620940  1
  Si  Si150  1  0.30690923  0.33222460  0.38516384  1
  Si  Si151  1  0.13897813  0.41203565  0.87900254  1
  Si  Si152  1  0.18759271  0.58329386  0.11054118  1
  Si  Si153  1  0.63630959  0.66858309  0.88796745  1
  Si  Si154  1  0.68944342  0.67385171  0.61335707  1
  Si  Si155  1  0.64470994  0.83210432  0.38786913  1
  Si  Si156  1  0.20163304  0.58449012  0.60913624  1
  Si  Si157  1  0.85383974  0.91858327  0.61561768  1
  Si  Si158  1  0.68713959  0.83731970  0.61630000  1
  Si  Si159  1  0.18507645  0.91803118  0.11341827  1
  Si  Si160  1  0.46763658  0.58920589  0.88346154  1
  Si  Si161  1  0.84784614  0.41328002  0.60828645  1
  Si  Si162  1  0.14388312  0.92425574  0.88186782  1
  Si  Si163  1  0.52017289  0.57647542  0.10617026  1
  Si  Si164  1  0.13700360  0.08875206  0.38722687  1
  Si  Si165  1  0.70097739  0.32752571  0.11227365  1
  Si  Si166  1  0.97077730  0.16813327  0.38555798  1
  Si  Si167  1  0.97277388  0.65911754  0.38299759  1
  Si  Si168  1  0.64189183  0.83564038  0.88735591  1
  Si  Si169  1  0.85297014  0.08310602  0.61476976  1
  Si  Si170  1  0.35359260  0.16396337  0.11732302  1
  Si  Si171  1  0.30378410  0.83223663  0.88351550  1
  Si  Si172  1  0.30423876  0.33375517  0.88125509  1
  Si  Si173  1  0.80615457  0.57954248  0.38139309  1
  Si  Si174  1  0.98400987  0.83935026  0.88571177  1
  Si  Si175  1  0.52940825  0.41815049  0.61748863  1
  Si  Si176  1  0.02381982  0.84216966  0.61100601  1
  Si  Si177  1  0.46597975  0.42239637  0.88668141  1
  Si  Si178  1  0.36622799  0.66769381  0.61511710  1
  Si  Si179  1  0.85808541  0.59020341  0.10968640  1
  Si  Si180  1  0.02313867  0.15932926  0.60838180  1
  Si  Si181  1  0.35355743  0.66148041  0.10960780  1
  Si  Si182  1  0.30427913  0.83819264  0.39150046  1
  Si  Si183  1  0.19609534  0.91882693  0.61370501  1
  Si  Si184  1  0.46788733  0.07851793  0.89065064  1
  Si  Si185  1  0.02391623  0.83435013  0.11764001  1
  Si  Si186  1  0.64870031  0.66766460  0.38725710  1
  Si  Si187  1  0.85807678  0.91457544  0.11794003  1
  Si  Si188  1  0.14135249  0.57631875  0.88322828  1
  Si  Si189  1  0.48083655  0.91124460  0.39150799  1
  Si  Si190  1  0.64451833  0.33158854  0.38594081  1
  Si  Si191  1  0.80678096  0.91722091  0.39095349  1
  O  O192  1  0.27153461  0.11254286  0.08785347  1
  O  O193  1  0.26849702  0.13059546  0.58341794  1
  O  O194  1  0.26676847  0.61555224  0.07816853  1
  O  O195  1  0.28617577  0.61857228  0.58355655  1
  O  O196  1  0.60504408  0.11739495  0.08909942  1
  O  O197  1  0.60358594  0.11655028  0.58768590  1
  O  O198  1  0.59378455  0.61350207  0.07149784  1
  O  O199  1  0.60795406  0.62025398  0.58736693  1
  O  O200  1  0.94059998  0.10368547  0.08874973  1
  O  O201  1  0.93532614  0.11134445  0.58468223  1
  O  O202  1  0.94624592  0.61853702  0.08433019  1
  O  O203  1  0.93928282  0.61147761  0.56356738  1
  O  O204  1  0.12637193  0.34217413  0.07161257  1
  O  O205  1  0.11683429  0.37517180  0.57084552  1
  O  O206  1  0.09679186  0.87323745  0.08239658  1
  O  O207  1  0.10147408  0.88804886  0.58580333  1
  O  O208  1  0.45414907  0.33200791  0.08463071  1
  O  O209  1  0.44502603  0.37134281  0.58611543  1
  O  O210  1  0.45409793  0.87391289  0.07491629  1
  O  O211  1  0.43735257  0.87435321  0.58705512  1
  O  O212  1  0.78730324  0.34268242  0.08498762  1
  O  O213  1  0.76999654  0.35351235  0.58531716  1
  O  O214  1  0.77539620  0.86742864  0.08657157  1
  O  O215  1  0.76977150  0.86991353  0.58784209  1
  O  O216  1  0.30027336  0.38593150  0.07682797  1
  O  O217  1  0.28125862  0.37840831  0.58075044  1
  O  O218  1  0.25990443  0.88712909  0.07770056  1
  O  O219  1  0.26996162  0.87311059  0.58585979  1
  O  O220  1  0.62740070  0.38068296  0.07736669  1
  O  O221  1  0.60732799  0.37981296  0.58824011  1
  O  O222  1  0.61957969  0.90461366  0.09102246  1
  O  O223  1  0.60563006  0.88866622  0.58702523  1
  O  O224  1  0.95267722  0.39885390  0.06608086  1
  O  O225  1  0.92430645  0.38423067  0.57220818  1
  O  O226  1  0.93725362  0.88138760  0.08669099  1
  O  O227  1  0.93731643  0.89182965  0.58709957  1
  O  O228  1  0.10429566  0.13001502  0.08615095  1
  O  O229  1  0.10129801  0.11458644  0.58299334  1
  O  O230  1  0.10779485  0.63944929  0.08542878  1
  O  O231  1  0.12247824  0.62930005  0.57117832  1
  O  O232  1  0.43731545  0.13298680  0.08945844  1
  O  O233  1  0.43748986  0.12810523  0.58783534  1
  O  O234  1  0.43280223  0.62391228  0.08033645  1
  O  O235  1  0.44755850  0.63251883  0.58897110  1
  O  O236  1  0.77136906  0.12571146  0.08948917  1
  O  O237  1  0.76902544  0.13207126  0.58648816  1
  O  O238  1  0.78745939  0.64994240  0.08111309  1
  O  O239  1  0.76511938  0.64994338  0.57708186  1
  O  O240  1  0.05766241  0.12590521  0.41666139  1
  O  O241  1  0.06291280  0.11786921  0.91080306  1
  O  O242  1  0.04847700  0.60146510  0.41071370  1
  O  O243  1  0.06853321  0.60476513  0.92137136  1
  O  O244  1  0.38262527  0.12194413  0.42652283  1
  O  O245  1  0.38527357  0.11644685  0.91724927  1
  O  O246  1  0.39707238  0.61992807  0.43496857  1
  O  O247  1  0.39007295  0.62840898  0.91185931  1
  O  O248  1  0.73220275  0.12116344  0.41887287  1
  O  O249  1  0.74197655  0.10577861  0.92810189  1
  O  O250  1  0.73364503  0.61857391  0.41621904  1
  O  O251  1  0.71011084  0.61632368  0.92170819  1
  O  O252  1  0.22675757  0.36878462  0.41363365  1
  O  O253  1  0.21909772  0.35868836  0.90882903  1
  O  O254  1  0.23998569  0.89372859  0.42394047  1
  O  O255  1  0.22729999  0.87556712  0.91128208  1
  O  O256  1  0.55960143  0.35560944  0.41448360  1
  O  O257  1  0.54614287  0.37917354  0.92400916  1
  O  O258  1  0.56413697  0.85986897  0.42067071  1
  O  O259  1  0.56433823  0.87653997  0.91583222  1
  O  O260  1  0.89317621  0.37109068  0.41300498  1
  O  O261  1  0.89302156  0.35777911  0.90975296  1
  O  O262  1  0.88819990  0.87381287  0.42763437  1
  O  O263  1  0.89750898  0.86548776  0.91374271  1
  O  O264  1  0.06152591  0.37109206  0.41321880  1
  O  O265  1  0.05843068  0.37898318  0.90944383  1
  O  O266  1  0.07675029  0.88494427  0.43011529  1
  O  O267  1  0.05772058  0.90237915  0.90937400  1
  O  O268  1  0.39513931  0.37277130  0.41682157  1
  O  O269  1  0.38007780  0.38942779  0.91066938  1
  O  O270  1  0.39948527  0.87522312  0.41785254  1
  O  O271  1  0.39555413  0.86778499  0.91504638  1
  O  O272  1  0.72728194  0.38167424  0.41528412  1
  O  O273  1  0.73845627  0.39997317  0.92180767  1
  O  O274  1  0.72247845  0.88760573  0.41838667  1
  O  O275  1  0.73106423  0.87947302  0.91499172  1
  O  O276  1  0.21788411  0.13992696  0.41579672  1
  O  O277  1  0.22343258  0.14029815  0.91069572  1
  O  O278  1  0.21211520  0.62146043  0.42519492  1
  O  O279  1  0.22874900  0.62260992  0.91201271  1
  O  O280  1  0.57162998  0.14028664  0.42737216  1
  O  O281  1  0.55236284  0.11604477  0.92937636  1
  O  O282  1  0.57507468  0.63587155  0.42329987  1
  O  O283  1  0.54875324  0.63993336  0.91143648  1
  O  O284  1  0.89492027  0.12870180  0.41656820  1
  O  O285  1  0.90231259  0.12591012  0.91445231  1
  O  O286  1  0.89154705  0.62409484  0.41059367  1
  O  O287  1  0.88754774  0.65888751  0.92832223  1
  O  O288  1  0.16695314  0.00204846  0.08306095  1
  O  O289  1  0.20022334  0.00109352  0.58499048  1
  O  O290  1  0.16388017  0.50657620  0.07482707  1
  O  O291  1  0.19830858  0.50052926  0.58224748  1
  O  O292  1  0.50663053  0.00581263  0.08754548  1
  O  O293  1  0.50818913  0.00130260  0.58797119  1
  O  O294  1  0.49652315  0.49787798  0.07171696  1
  O  O295  1  0.51790958  0.50106668  0.58881129  1
  O  O296  1  0.83855511  -0.00336840  0.08770824  1
  O  O297  1  0.83188264  0.00077361  0.58715760  1
  O  O298  1  0.82780183  0.51385876  0.07424289  1
  O  O299  1  0.81160611  0.48930007  0.57755908  1
  O  O300  1  -0.01046545  0.23496527  0.07573539  1
  O  O301  1  0.01177957  0.23558503  0.57113654  1
  O  O302  1  0.00934504  0.75229001  0.08729373  1
  O  O303  1  0.01188672  0.76642683  0.57446456  1
  O  O304  1  0.32867391  0.24351891  0.08691977  1
  O  O305  1  0.35616187  0.25123596  0.58550533  1
  O  O306  1  0.34175314  0.73965244  0.07297601  1
  O  O307  1  0.35474699  0.75060117  0.58719217  1
  O  O308  1  0.67381061  0.24320245  0.08927592  1
  O  O309  1  0.66737086  0.24622276  0.58833019  1
  O  O310  1  0.65762288  0.76738697  0.07846472  1
  O  O311  1  0.66234913  0.75691453  0.58800355  1
  O  O312  1  0.15086042  0.01016557  0.42210344  1
  O  O313  1  0.16701160  0.00628004  0.90967997  1
  O  O314  1  0.14852209  0.49214330  0.41469878  1
  O  O315  1  0.16324926  0.49233584  0.90839844  1
  O  O316  1  0.49787479  -0.01170317  0.43054279  1
  O  O317  1  0.46894965  -0.00635674  0.91857786  1
  O  O318  1  0.49845742  0.48442664  0.42605810  1
  O  O319  1  0.47447063  0.50725877  0.91213364  1
  O  O320  1  0.81958265  0.00200690  0.41866304  1
  O  O321  1  0.83627698  -0.00561441  0.91474665  1
  O  O322  1  0.81939190  0.49771511  0.41445459  1
  O  O323  1  0.85749310  0.49663963  0.91398530  1
  O  O324  1  0.31543779  0.25120385  0.41730754  1
  O  O325  1  0.32650692  0.25178645  0.91075673  1
  O  O326  1  0.30629114  0.76227402  0.43127042  1
  O  O327  1  0.30272804  0.74968899  0.91051170  1
  O  O328  1  0.67123233  0.25145937  0.41673392  1
  O  O329  1  0.66333560  0.25149365  0.93741432  1
  O  O330  1  0.67050229  0.75112448  0.41599492  1
  O  O331  1  0.65047282  0.75310739  0.91507729  1
  O  O332  1  0.97732704  0.25043857  0.41463395  1
  O  O333  1  0.99391914  0.24718520  0.90982983  1
  O  O334  1  0.99365269  0.73459484  0.42221290  1
  O  O335  1  1.02184538  0.76699306  0.92045641  1
  O  O336  1  0.20657652  0.08325219  0.19650297  1
  O  O337  1  0.21190246  0.08427498  0.69309685  1
  O  O338  1  0.20630557  0.58000200  0.19109388  1
  O  O339  1  0.21492666  0.58820498  0.68931928  1
  O  O340  1  0.54473192  0.08632158  0.19859193  1
  O  O341  1  0.54468071  0.08204030  0.69842293  1
  O  O342  1  0.54669259  0.57340196  0.18629030  1
  O  O343  1  0.54583786  0.58456765  0.69800931  1
  O  O344  1  0.87468870  0.08115070  0.19802209  1
  O  O345  1  0.87405947  0.08334763  0.69531003  1
  O  O346  1  0.87867567  0.58185530  0.19011472  1
  O  O347  1  0.87754763  0.58326585  0.69747896  1
  O  O348  1  0.04267407  0.33099792  0.19747761  1
  O  O349  1  0.04404214  0.33061016  0.69379609  1
  O  O350  1  0.03951499  0.83562795  0.19660488  1
  O  O351  1  0.04339876  0.83872328  0.69226966  1
  O  O352  1  0.37720231  0.32814490  0.19358089  1
  O  O353  1  0.37967811  0.33485409  0.69469584  1
  O  O354  1  0.39092801  0.83488696  0.19609211  1
  O  O355  1  0.37682883  0.83441770  0.69553826  1
  O  O356  1  0.71116169  0.32953133  0.19406145  1
  O  O357  1  0.70936810  0.33107043  0.69736890  1
  O  O358  1  0.71298902  0.83876711  0.19624640  1
  O  O359  1  0.70827698  0.83754695  0.69691743  1
  O  O360  1  0.21223287  0.41388686  0.19916812  1
  O  O361  1  0.21501432  0.41185247  0.68842773  1
  O  O362  1  0.19825861  0.92126800  0.19203294  1
  O  O363  1  0.21262961  0.91831719  0.69432146  1
  O  O364  1  0.54498037  0.41252474  0.20133920  1
  O  O365  1  0.54376266  0.41883707  0.69749066  1
  O  O366  1  0.54532420  0.92220188  0.19619147  1
  O  O367  1  0.54425954  0.91442329  0.69705000  1
  O  O368  1  0.87792823  0.41718903  0.19840627  1
  O  O369  1  0.87286998  0.41321171  0.68976944  1
  O  O370  1  0.87630684  0.91859942  0.19791826  1
  O  O371  1  0.87448703  0.91897452  0.69627035  1
  O  O372  1  0.03968623  0.16376258  0.19403329  1
  O  O373  1  0.04240419  0.16359660  0.68951586  1
  O  O374  1  0.04183393  0.66649234  0.19570165  1
  O  O375  1  0.04621709  0.66847031  0.69532504  1
  O  O376  1  0.37336086  0.16595616  0.19760053  1
  O  O377  1  0.37199430  0.16773067  0.69507676  1
  O  O378  1  0.36760409  0.65848706  0.18805500  1
  O  O379  1  0.37970426  0.66871353  0.69569029  1
  O  O380  1  0.71027051  0.16308415  0.19864662  1
  O  O381  1  0.71024054  0.16360620  0.69725832  1
  O  O382  1  0.70790856  0.66838640  0.19945505  1
  O  O383  1  0.70730795  0.67184129  0.69437716  1
  O  O384  1  0.11893475  0.08689700  0.30699700  1
  O  O385  1  0.12430327  0.08573707  0.80060362  1
  O  O386  1  0.12144323  0.57725593  0.30450035  1
  O  O387  1  0.12265239  0.58360729  0.80329520  1
  O  O388  1  0.45596380  0.08397448  0.30382030  1
  O  O389  1  0.45242051  0.08096292  0.81120301  1
  O  O390  1  0.45193776  0.57226864  0.30103935  1
  O  O391  1  0.45309035  0.58646963  0.80284146  1
  O  O392  1  0.79066780  0.08398738  0.30791601  1
  O  O393  1  0.79382322  0.08170713  0.80871559  1
  O  O394  1  0.78636449  0.57475614  0.30247953  1
  O  O395  1  0.78768966  0.58663297  0.79959022  1
  O  O396  1  0.28968266  0.33046659  0.30515000  1
  O  O397  1  0.28816333  0.33271758  0.80073812  1
  O  O398  1  0.27729201  0.83401174  0.31406055  1
  O  O399  1  0.28858568  0.83506849  0.80301525  1
  O  O400  1  0.62673585  0.33071358  0.30586550  1
  O  O401  1  0.62260373  0.33549535  0.80361718  1
  O  O402  1  0.62838320  0.83640813  0.30792873  1
  O  O403  1  0.62376406  0.83545582  0.80677891  1
  O  O404  1  0.95394019  0.33041083  0.30385394  1
  O  O405  1  0.95646098  0.32998936  0.80036498  1
  O  O406  1  0.95620552  0.83511512  0.30348201  1
  O  O407  1  0.96045911  0.83817202  0.80451815  1
  O  O408  1  0.12058198  0.41267843  0.30369141  1
  O  O409  1  0.12085685  0.41129081  0.79943361  1
  O  O410  1  0.11964708  0.92702780  0.31414092  1
  O  O411  1  0.12558233  0.92056566  0.80130273  1
  O  O412  1  0.45535693  0.40959283  0.30776161  1
  O  O413  1  0.45346170  0.41950383  0.80556111  1
  O  O414  1  0.47087987  0.91971444  0.31248892  1
  O  O415  1  0.45328732  0.91222806  0.80731630  1
  O  O416  1  0.78734777  0.41343539  0.30388057  1
  O  O417  1  0.79396707  0.41679210  0.80509407  1
  O  O418  1  0.79084386  0.91877023  0.31010383  1
  O  O419  1  0.79166103  0.91556259  0.80567428  1
  O  O420  1  0.28856461  0.16760255  0.30811366  1
  O  O421  1  0.29006943  0.16679346  0.80322319  1
  O  O422  1  0.28258204  0.65555784  0.30334611  1
  O  O423  1  0.28691495  0.66794302  0.80143980  1
  O  O424  1  0.62631016  0.16636398  0.31008818  1
  O  O425  1  0.62695640  0.16673590  0.80580867  1
  O  O426  1  0.63299015  0.66642444  0.30795548  1
  O  O427  1  0.62177075  0.67002592  0.80648147  1
  O  O428  1  0.95432337  0.16634677  0.30535719  1
  O  O429  1  0.95771013  0.16453073  0.80200019  1
  O  O430  1  0.95751437  0.66463550  0.30350201  1
  O  O431  1  0.95726786  0.67062781  0.79911724  1
  F  F432  1  0.04249846  0.00067907  0.20575044  1
  F  F433  1  0.04564155  0.00153189  0.69951751  1
  F  F434  1  0.04538793  0.49966507  0.20107270  1
  F  F435  1  0.04250763  0.50019906  0.69603734  1
  F  F436  1  0.38096728  0.00973753  0.19923680  1
  F  F437  1  0.37350198  0.00006421  0.70064678  1
  F  F438  1  0.37707827  0.49360959  0.20006320  1
  F  F439  1  0.38166948  0.50116015  0.69988786  1
  F  F440  1  0.71372116  0.00200953  0.20632383  1
  F  F441  1  0.71228830  0.00116383  0.70493238  1
  F  F442  1  0.71145118  0.49707350  0.19920771  1
  F  F443  1  0.70788379  0.49819735  0.70377295  1
  F  F444  1  0.21106533  0.24593482  0.20360203  1
  F  F445  1  0.21395153  0.24887452  0.69817822  1
  F  F446  1  0.19541837  0.74737485  0.19375352  1
  F  F447  1  0.21388715  0.75319937  0.69876302  1
  F  F448  1  0.54667509  0.24521431  0.20673918  1
  F  F449  1  0.54540338  0.25563805  0.70005632  1
  F  F450  1  0.55485572  0.76233807  0.20152822  1
  F  F451  1  0.54458704  0.75240862  0.70437053  1
  F  F452  1  0.87661658  0.24548566  0.20236617  1
  F  F453  1  0.87622439  0.24605092  0.70035243  1
  F  F454  1  0.88058702  0.75507593  0.20067863  1
  F  F455  1  0.87745025  0.75654872  0.70038065  1
  F  F456  1  0.28173796  0.01159336  0.30494809  1
  F  F457  1  0.28638991  0.00120919  0.79780280  1
  F  F458  1  0.28722255  0.49562147  0.29848294  1
  F  F459  1  0.29109370  0.50076626  0.79463404  1
  F  F460  1  0.62362482  0.00177716  0.30089819  1
  F  F461  1  0.62793760  -0.00203172  0.80431649  1
  F  F462  1  0.62296001  0.49964009  0.29716735  1
  F  F463  1  0.61990211  0.50245333  0.80026445  1
  F  F464  1  0.95339897  0.00298091  0.30243310  1
  F  F465  1  0.95683730  0.00186913  0.79583505  1
  F  F466  1  0.95482012  0.49916791  0.29666680  1
  F  F467  1  0.95706469  0.49559435  0.79317559  1
  F  F468  1  0.11947346  0.24728300  0.29827349  1
  F  F469  1  0.12165972  0.24616024  0.79333854  1
  F  F470  1  0.11610884  0.74245568  0.30246700  1
  F  F471  1  0.12461805  0.75412740  0.79444560  1
  F  F472  1  0.45395914  0.24920690  0.29979963  1
  F  F473  1  0.45085915  0.25502085  0.80145642  1
  F  F474  1  0.46976950  0.76057996  0.31567590  1
  F  F475  1  0.45310305  0.75159100  0.79845349  1
  F  F476  1  0.78930467  0.24899284  0.29862058  1
  F  F477  1  0.79046320  0.24946481  0.79811035  1
  F  F478  1  0.78731256  0.75824779  0.30368893  1
  F  F479  1  0.78757869  0.75374355  0.79727109  1
