# generated using pymatgen
data_K24Na3Li5Mg64Fe17Si79(O5F)48
_symmetry_space_group_name_H-M   'P 1'
_cell_length_a   16.09174469
_cell_length_b   18.58392847
_cell_length_c   20.55172140
_cell_angle_alpha   89.99907370
_cell_angle_beta   100.01634856
_cell_angle_gamma   90.01847439
_symmetry_Int_Tables_number   1
_chemical_formula_structural   K24Na3Li5Mg64Fe17Si79(O5F)48
_chemical_formula_sum   'K24 Na3 Li5 Mg64 Fe17 Si79 O240 F48'
_cell_volume   6052.27188933
_cell_formula_units_Z   1
loop_
 _symmetry_equiv_pos_site_id
 _symmetry_equiv_pos_as_xyz
  1  'x, y, z'
loop_
 _atom_site_type_symbol
 _atom_site_label
 _atom_site_symmetry_multiplicity
 _atom_site_fract_x
 _atom_site_fract_y
 _atom_site_fract_z
 _atom_site_occupancy
  K  K0  1  -0.00439450  0.00090641  -0.00988456  1
  K  K1  1  -0.00893834  -0.01350814  0.50359982  1
  K  K2  1  -0.00712618  0.50168179  0.00126200  1
  K  K3  1  0.00561391  0.49445626  0.50444714  1
  K  K4  1  0.33087251  -0.00691686  -0.00821989  1
  K  K5  1  0.33141646  0.00234847  0.50723726  1
  K  K6  1  0.32704372  0.49270679  -0.00628948  1
  K  K7  1  0.33864539  0.49924031  0.49932284  1
  K  K8  1  0.65982945  0.00537515  -0.00658307  1
  K  K9  1  0.67611241  -0.00084726  0.50751487  1
  K  K10  1  0.67293047  0.49221968  -0.00293657  1
  K  K11  1  0.66717819  0.50680542  0.50373774  1
  K  K12  1  0.17577158  0.25146977  -0.00305306  1
  K  K13  1  0.16712508  0.25100116  0.51108800  1
  K  K14  1  0.15010658  0.76513911  -0.00203521  1
  K  K15  1  0.15657456  0.75219103  0.49603169  1
  K  K16  1  0.50123864  0.25137976  -0.00807847  1
  K  K17  1  0.49449005  0.25045432  0.50289725  1
  K  K18  1  0.50740166  0.75360061  -0.00039718  1
  K  K19  1  0.50344023  0.74376287  0.50264431  1
  K  K20  1  0.82259461  0.24581703  -0.00924069  1
  K  K21  1  0.84339735  0.24992695  0.50884262  1
  K  K22  1  0.84287781  0.75373635  0.00324442  1
  K  K23  1  0.83174259  0.75386154  0.50135723  1
  Na  Na24  1  0.33564808  0.25086971  0.25410986  1
  Na  Na25  1  0.16870673  0.32966248  0.74590119  1
  Na  Na26  1  0.33358795  0.08088415  0.75505059  1
  Li  Li27  1  0.50111789  0.49724513  0.74670654  1
  Li  Li28  1  0.82464662  -0.00229316  0.75282394  1
  Li  Li29  1  0.83569125  0.66928617  0.25069168  1
  Li  Li30  1  0.66799960  0.07910855  0.75507246  1
  Li  Li31  1  0.83476283  0.84234384  0.75591231  1
  Mg  Mg32  1  0.00089350  0.25130267  0.24805450  1
  Mg  Mg33  1  0.67173836  0.75131550  0.74582829  1
  Mg  Mg34  1  0.50406906  0.00010424  0.24521365  1
  Mg  Mg35  1  0.67006914  0.75148104  0.24909627  1
  Mg  Mg36  1  0.16310231  -0.00274658  0.75460695  1
  Mg  Mg37  1  0.16978806  0.00001362  0.25138435  1
  Mg  Mg38  1  0.33434639  0.74834315  0.75163296  1
  Mg  Mg39  1  0.83254280  0.50224819  0.24598779  1
  Mg  Mg40  1  -0.00448749  0.75146214  0.75144618  1
  Mg  Mg41  1  -0.00180484  0.24707620  0.74599086  1
  Mg  Mg42  1  -0.00338610  0.75123725  0.25241089  1
  Mg  Mg43  1  0.50156996  0.00069155  0.75117505  1
  Mg  Mg44  1  0.66510629  0.24673866  0.75104171  1
  Mg  Mg45  1  0.33349224  0.24941584  0.74894651  1
  Mg  Mg46  1  0.83433227  -0.00052415  0.25241696  1
  Mg  Mg47  1  0.16851384  0.49616252  0.74886416  1
  Mg  Mg48  1  0.66596315  0.25078972  0.24783696  1
  Mg  Mg49  1  0.16422963  0.49995330  0.25448912  1
  Mg  Mg50  1  0.49854509  0.50266998  0.25354870  1
  Mg  Mg51  1  0.33299518  0.74964239  0.25265171  1
  Mg  Mg52  1  0.83263908  0.49981579  0.74397231  1
  Mg  Mg53  1  0.33414228  0.41736262  0.25678092  1
  Mg  Mg54  1  0.16384604  0.83334368  0.75490125  1
  Mg  Mg55  1  0.33355363  0.91379468  0.75328820  1
  Mg  Mg56  1  0.83306556  0.33202509  0.74601331  1
  Mg  Mg57  1  0.66543767  0.58342257  0.74493398  1
  Mg  Mg58  1  0.66819718  0.58684990  0.24906347  1
  Mg  Mg59  1  0.17131543  0.16693626  0.25253714  1
  Mg  Mg60  1  0.83382854  0.16730946  0.25066995  1
  Mg  Mg61  1  0.49951775  0.33542200  0.25355429  1
  Mg  Mg62  1  0.16689707  0.66499149  0.75148032  1
  Mg  Mg63  1  -0.00029631  0.58326907  0.74892859  1
  Mg  Mg64  1  0.16365712  0.66602175  0.25332445  1
  Mg  Mg65  1  0.83195499  0.33632882  0.24654240  1
  Mg  Mg66  1  0.50070999  0.16637030  0.24742577  1
  Mg  Mg67  1  0.33738882  0.08450491  0.24911079  1
  Mg  Mg68  1  0.50272438  0.83367812  0.74898086  1
  Mg  Mg69  1  0.66560032  0.41781249  0.24767962  1
  Mg  Mg70  1  0.33716197  0.41618656  0.74736815  1
  Mg  Mg71  1  0.16827700  0.33361809  0.25277226  1
  Mg  Mg72  1  0.66387347  0.41613355  0.74764550  1
  Mg  Mg73  1  -0.00008497  0.91445473  0.25296232  1
  Mg  Mg74  1  0.00164906  0.41328511  0.74759456  1
  Mg  Mg75  1  0.83486228  0.83379806  0.24992059  1
  Mg  Mg76  1  -0.00426055  0.08139106  0.75067947  1
  Mg  Mg77  1  -0.00643850  0.91676782  0.75503923  1
  Mg  Mg78  1  0.33322183  0.58551756  0.25538756  1
  Mg  Mg79  1  -0.00288494  0.58583836  0.25026491  1
  Mg  Mg80  1  0.49865554  0.33461064  0.75031183  1
  Mg  Mg81  1  0.66590535  0.08457106  0.24791877  1
  Mg  Mg82  1  0.82700087  0.16061775  0.75114571  1
  Mg  Mg83  1  0.67147626  0.91942571  0.74772096  1
  Mg  Mg84  1  -0.00219774  0.41691593  0.24846127  1
  Mg  Mg85  1  0.50271587  0.83467677  0.24758240  1
  Mg  Mg86  1  0.16526075  0.83505636  0.25136407  1
  Mg  Mg87  1  0.16722561  0.16471945  0.74992624  1
  Mg  Mg88  1  0.00211239  0.08424288  0.25208982  1
  Mg  Mg89  1  0.50123215  0.16374671  0.75052973  1
  Mg  Mg90  1  0.50291266  0.66406269  0.74685149  1
  Mg  Mg91  1  0.50044345  0.66629204  0.25210262  1
  Mg  Mg92  1  0.33749999  0.58167713  0.74930348  1
  Mg  Mg93  1  0.33602432  0.91528838  0.24777962  1
  Mg  Mg94  1  0.66865608  0.91663340  0.24839839  1
  Mg  Mg95  1  0.83241040  0.66894422  0.74618035  1
  Fe  Fe96  1  0.63811213  0.16654056  0.89138503  1
  Fe  Fe97  1  0.30779672  0.32944313  0.39347734  1
  Fe  Fe98  1  0.97615812  0.82770229  0.39453202  1
  Fe  Fe99  1  0.35735038  0.33123662  0.60738453  1
  Fe  Fe100  1  0.51957710  0.08609030  0.10613564  1
  Fe  Fe101  1  0.14055409  0.57991307  0.39105852  1
  Fe  Fe102  1  0.02820014  0.33092650  0.60685066  1
  Fe  Fe103  1  0.52283930  0.91316029  0.10660196  1
  Fe  Fe104  1  0.80722002  0.91938103  0.39146442  1
  Fe  Fe105  1  0.31525642  0.33532250  0.89097784  1
  Fe  Fe106  1  0.96643983  0.83392221  0.89131358  1
  Fe  Fe107  1  0.14188641  0.92147976  0.89322399  1
  Fe  Fe108  1  0.02674189  0.84001474  0.11129122  1
  Fe  Fe109  1  0.85848255  0.41422051  0.10650343  1
  Fe  Fe110  1  0.47080770  0.07667778  0.89328938  1
  Fe  Fe111  1  0.69046140  0.66848512  0.60551191  1
  Fe  Fe112  1  0.47590616  0.58780534  0.39278633  1
  Si  Si113  1  0.35364641  0.16310820  0.61233653  1
  Si  Si114  1  0.52415598  0.58707151  0.11393028  1
  Si  Si115  1  0.64439909  0.67151825  0.38580402  1
  Si  Si116  1  0.19220809  0.41786454  0.11740397  1
  Si  Si117  1  0.64252338  0.16725408  0.38478347  1
  Si  Si118  1  0.52381725  0.42054108  0.11491091  1
  Si  Si119  1  0.13673708  0.41567793  0.88714392  1
  Si  Si120  1  0.80361564  0.41628851  0.38383774  1
  Si  Si121  1  0.69073842  0.66925008  0.11368906  1
  Si  Si122  1  0.14173432  0.57942056  0.88543874  1
  Si  Si123  1  0.97615143  0.66303196  0.88656014  1
  Si  Si124  1  0.02318093  0.66787506  0.11312310  1
  Si  Si125  1  0.64027166  0.33211501  0.38488596  1
  Si  Si126  1  0.86221475  0.58258149  0.61060500  1
  Si  Si127  1  0.85917130  0.08824685  0.11694799  1
  Si  Si128  1  0.80735394  0.41816672  0.88070519  1
  Si  Si129  1  0.68564679  0.33156602  0.11124949  1
  Si  Si130  1  0.69731153  0.83531809  0.11011556  1
  Si  Si131  1  0.13944292  0.41016610  0.38845453  1
  Si  Si132  1  0.97019810  0.16735288  0.88426319  1
  Si  Si133  1  0.19704269  0.42752689  0.60808172  1
  Si  Si134  1  0.85565198  0.08297102  0.61495722  1
  Si  Si135  1  0.48011483  0.42440252  0.88658016  1
  Si  Si136  1  0.47756706  0.91395523  0.38344199  1
  Si  Si137  1  0.14447433  0.92056272  0.39017528  1
  Si  Si138  1  0.85915650  0.92478353  0.11301671  1
  Si  Si139  1  0.47984070  0.41858771  0.39182894  1
  Si  Si140  1  0.68962177  0.16700960  0.61398878  1
  Si  Si141  1  0.35225890  0.66261113  0.11563293  1
  Si  Si142  1  0.79886866  0.91709676  0.88731442  1
  Si  Si143  1  0.80756051  0.08209883  0.88847875  1
  Si  Si144  1  0.64590555  0.66782423  0.88268359  1
  Si  Si145  1  0.36067251  0.66716661  0.61409331  1
  Si  Si146  1  0.97832607  0.17278361  0.38550148  1
  Si  Si147  1  0.02381529  0.15850894  0.60976682  1
  Si  Si148  1  0.31034032  0.66059309  0.88616332  1
  Si  Si149  1  0.31565839  0.15741485  0.38882205  1
  Si  Si150  1  0.85608622  0.58445996  0.11128773  1
  Si  Si151  1  0.18846568  0.58121864  0.11659601  1
  Si  Si152  1  0.68758267  0.83849087  0.61014925  1
  Si  Si153  1  0.18876694  0.07390616  0.61684361  1
  Si  Si154  1  0.35968445  0.82489332  0.11392673  1
  Si  Si155  1  0.14410307  0.08656816  0.38791101  1
  Si  Si156  1  0.35942384  0.34258881  0.11849167  1
  Si  Si157  1  0.19047396  0.90894066  0.61590070  1
  Si  Si158  1  0.13970395  0.09178128  0.88718882  1
  Si  Si159  1  0.30407133  0.16866347  0.88833867  1
  Si  Si160  1  0.30821908  0.82588174  0.88899783  1
  Si  Si161  1  0.81282859  0.09023860  0.38826541  1
  Si  Si162  1  0.64152706  0.83068304  0.88220836  1
  Si  Si163  1  0.64070562  0.83458923  0.38547016  1
  Si  Si164  1  0.97109968  0.33715932  0.38353030  1
  Si  Si165  1  0.80243472  0.58116097  0.38286402  1
  Si  Si166  1  0.19204526  0.59095011  0.61448341  1
  Si  Si167  1  0.02918022  0.16233772  0.11587993  1
  Si  Si168  1  0.80876281  0.58200229  0.88137356  1
  Si  Si169  1  0.02067324  0.83215973  0.61645737  1
  Si  Si170  1  0.30363267  0.67399214  0.39149773  1
  Si  Si171  1  0.52351395  0.92033922  0.61341507  1
  Si  Si172  1  0.47634310  0.90519646  0.88675774  1
  Si  Si173  1  0.96982892  0.33328114  0.88358813  1
  Si  Si174  1  0.35844145  0.17584005  0.11328876  1
  Si  Si175  1  0.85869941  0.41560165  0.60935586  1
  Si  Si176  1  0.02567353  0.66799666  0.61604490  1
  Si  Si177  1  0.85714088  0.91857065  0.61860007  1
  Si  Si178  1  0.48029430  0.58814359  0.88394317  1
  Si  Si179  1  0.19794940  0.08549203  0.11549736  1
  Si  Si180  1  0.64300651  0.33793090  0.88604969  1
  Si  Si181  1  0.69357405  0.33262828  0.61308570  1
  Si  Si182  1  0.69435099  0.16658067  0.11471739  1
  Si  Si183  1  0.52290270  0.57908582  0.61130759  1
  Si  Si184  1  0.36000113  0.83254214  0.61494223  1
  Si  Si185  1  0.20292754  0.91930766  0.11407937  1
  Si  Si186  1  0.52170858  0.08478474  0.61334008  1
  Si  Si187  1  0.31074472  0.83989832  0.38592658  1
  Si  Si188  1  0.97143377  0.65756939  0.38877606  1
  Si  Si189  1  0.52873014  0.41231261  0.61249267  1
  Si  Si190  1  0.03142545  0.32912372  0.11214763  1
  Si  Si191  1  0.48049581  0.07744089  0.38490875  1
  O  O192  1  0.26856153  0.13231962  0.08550818  1
  O  O193  1  0.27028500  0.10859839  0.58928447  1
  O  O194  1  0.27143502  0.61022852  0.08638947  1
  O  O195  1  0.26979660  0.62955225  0.58491354  1
  O  O196  1  0.62632268  0.10814432  0.08307609  1
  O  O197  1  0.60037310  0.12456234  0.58362810  1
  O  O198  1  0.60053818  0.62645294  0.08272797  1
  O  O199  1  0.59353729  0.61301362  0.57289329  1
  O  O200  1  0.94296580  0.11620692  0.08759956  1
  O  O201  1  0.93259633  0.11758740  0.58090948  1
  O  O202  1  0.93696751  0.62152060  0.08353033  1
  O  O203  1  0.94954388  0.61212673  0.58622612  1
  O  O204  1  0.11668774  0.36161486  0.08695871  1
  O  O205  1  0.11575649  0.37924318  0.57569340  1
  O  O206  1  0.12193987  0.87478568  0.07974719  1
  O  O207  1  0.10184385  0.86599885  0.58605448  1
  O  O208  1  0.43674213  0.37703165  0.08472568  1
  O  O209  1  0.45546106  0.35987659  0.57618285  1
  O  O210  1  0.44163994  0.83892439  0.08117483  1
  O  O211  1  0.43371571  0.87665884  0.58458208  1
  O  O212  1  0.75977298  0.36041328  0.07431915  1
  O  O213  1  0.77259972  0.36758041  0.58287137  1
  O  O214  1  0.78274267  0.86733678  0.08561471  1
  O  O215  1  0.76877846  0.87818198  0.58486214  1
  O  O216  1  0.27687551  0.39285715  0.08870380  1
  O  O217  1  0.27727924  0.40241344  0.57556300  1
  O  O218  1  0.28534222  0.88403495  0.08787906  1
  O  O219  1  0.26772322  0.86943885  0.58499077  1
  O  O220  1  0.60037862  0.38123403  0.08513690  1
  O  O221  1  0.61425066  0.38484729  0.58341570  1
  O  O222  1  0.61923555  0.88212938  0.07265087  1
  O  O223  1  0.60083675  0.88640893  0.58066369  1
  O  O224  1  0.95177714  0.37411617  0.07409191  1
  O  O225  1  0.92873041  0.38221674  0.57067731  1
  O  O226  1  0.93890534  0.90456932  0.07881731  1
  O  O227  1  0.93626581  0.87987527  0.58785568  1
  O  O228  1  0.10548961  0.12200266  0.08665254  1
  O  O229  1  0.09955083  0.11254743  0.58200160  1
  O  O230  1  0.10392504  0.62747400  0.08631192  1
  O  O231  1  0.10979213  0.64215561  0.58706271  1
  O  O232  1  0.43425027  0.15469246  0.07529683  1
  O  O233  1  0.43259514  0.12489982  0.58042474  1
  O  O234  1  0.43493107  0.63066283  0.08624110  1
  O  O235  1  0.43298952  0.62300976  0.58422897  1
  O  O236  1  0.78570438  0.14783804  0.09097378  1
  O  O237  1  0.76664983  0.12640271  0.58326653  1
  O  O238  1  0.76921096  0.63221815  0.08437409  1
  O  O239  1  0.78501654  0.63067199  0.57360124  1
  O  O240  1  0.06386803  0.12583064  0.41472793  1
  O  O241  1  0.05650620  0.12440158  0.91521136  1
  O  O242  1  0.03847566  0.59571978  0.42043413  1
  O  O243  1  0.06164904  0.61394668  0.91413101  1
  O  O244  1  0.39651449  0.10142397  0.41546126  1
  O  O245  1  0.36516817  0.10126907  0.91451226  1
  O  O246  1  0.38172120  0.62368000  0.42553420  1
  O  O247  1  0.39771752  0.61624306  0.91599804  1
  O  O248  1  0.73061135  0.12587437  0.41569989  1
  O  O249  1  0.73822099  0.11623816  0.92807127  1
  O  O250  1  0.72132003  0.61397236  0.41230440  1
  O  O251  1  0.72796105  0.61602295  0.91112927  1
  O  O252  1  0.20193557  0.34533842  0.41887959  1
  O  O253  1  0.21676455  0.36964732  0.92251894  1
  O  O254  1  0.23502911  0.87853782  0.41718589  1
  O  O255  1  0.23552378  0.85951810  0.92412330  1
  O  O256  1  0.56009480  0.36163281  0.41528370  1
  O  O257  1  0.56720209  0.37916020  0.91606901  1
  O  O258  1  0.54954547  0.85361333  0.41041760  1
  O  O259  1  0.55405367  0.84700560  0.91002409  1
  O  O260  1  0.88648059  0.36561689  0.41119332  1
  O  O261  1  0.88968474  0.36931236  0.91233604  1
  O  O262  1  0.89151859  0.86210318  0.43682575  1
  O  O263  1  0.86983126  0.86227337  0.92470102  1
  O  O264  1  0.04674106  0.39244889  0.41240827  1
  O  O265  1  0.05221350  0.38254400  0.91422311  1
  O  O266  1  0.07457329  0.88445344  0.42653271  1
  O  O267  1  0.05424895  0.89045180  0.93298548  1
  O  O268  1  0.39965318  0.39206661  0.42325289  1
  O  O269  1  0.40618454  0.39858731  0.92565987  1
  O  O270  1  0.39366184  0.89027840  0.41392382  1
  O  O271  1  0.39742454  0.86750313  0.91596929  1
  O  O272  1  0.72500538  0.37995814  0.41432314  1
  O  O273  1  0.72684509  0.38987686  0.91146640  1
  O  O274  1  0.70559173  0.89420071  0.42094040  1
  O  O275  1  0.71074425  0.89051508  0.91428310  1
  O  O276  1  0.23201671  0.12806416  0.41947193  1
  O  O277  1  0.21221599  0.15226140  0.91282081  1
  O  O278  1  0.21921845  0.65393914  0.42069196  1
  O  O279  1  0.23114228  0.62200880  0.91453229  1
  O  O280  1  0.56327850  0.12879481  0.41360422  1
  O  O281  1  0.55434798  0.13677891  0.93634653  1
  O  O282  1  0.56500591  0.65225578  0.42065940  1
  O  O283  1  0.56308017  0.63951931  0.91362531  1
  O  O284  1  0.89514055  0.14411094  0.41401480  1
  O  O285  1  0.89630419  0.12865646  0.91735663  1
  O  O286  1  0.88158783  0.63251958  0.41291825  1
  O  O287  1  0.89548599  0.62413982  0.91373902  1
  O  O288  1  0.19831681  0.00338279  0.08728725  1
  O  O289  1  0.18221309  -0.00918432  0.58556131  1
  O  O290  1  0.16917888  0.49903122  0.08702876  1
  O  O291  1  0.17372165  0.51207527  0.58130238  1
  O  O292  1  0.47823899  -0.00106977  0.07232923  1
  O  O293  1  0.51103027  0.00205883  0.58195678  1
  O  O294  1  0.51399392  0.50372690  0.08524311  1
  O  O295  1  0.50769916  0.49541995  0.58551501  1
  O  O296  1  0.82991389  0.00830350  0.08812939  1
  O  O297  1  0.84597889  0.00027544  0.58549608  1
  O  O298  1  0.83980500  0.50807848  0.07239899  1
  O  O299  1  0.84335675  0.49947981  0.58309842  1
  O  O300  1  0.02159236  0.24439595  0.08610318  1
  O  O301  1  0.01776943  0.23561176  0.57248360  1
  O  O302  1  0.01065995  0.74545825  0.07780188  1
  O  O303  1  0.00422305  0.74967658  0.58660824  1
  O  O304  1  0.33444952  0.26103984  0.09276383  1
  O  O305  1  0.32980301  0.23770271  0.57266817  1
  O  O306  1  0.32550679  0.74334028  0.08749444  1
  O  O307  1  0.35827373  0.75016295  0.58474341  1
  O  O308  1  0.66422707  0.24790969  0.08771957  1
  O  O309  1  0.67951523  0.25002200  0.58222752  1
  O  O310  1  0.68289811  0.75087796  0.08249696  1
  O  O311  1  0.67272360  0.76231012  0.57136594  1
  O  O312  1  0.15656144  0.00475884  0.41765227  1
  O  O313  1  0.16599708  0.01650961  0.92442690  1
  O  O314  1  0.17551301  0.48646868  0.41972760  1
  O  O315  1  0.15165151  0.49887083  0.91807473  1
  O  O316  1  0.50545080  -0.00486954  0.41251812  1
  O  O317  1  0.49921095  -0.01938916  0.92291034  1
  O  O318  1  0.51303153  0.49591155  0.42288692  1
  O  O319  1  0.50487795  0.50810580  0.91368754  1
  O  O320  1  0.83403014  0.01451690  0.42437329  1
  O  O321  1  0.82346401  -0.00127895  0.91719517  1
  O  O322  1  0.81800580  0.49813533  0.41391531  1
  O  O323  1  0.82427235  0.49989584  0.91078894  1
  O  O324  1  0.34435865  0.23474373  0.41931893  1
  O  O325  1  0.33883616  0.24276964  0.92666799  1
  O  O326  1  0.32874799  0.75892166  0.41563190  1
  O  O327  1  0.32380192  0.74164063  0.91645250  1
  O  O328  1  0.65549428  0.24967426  0.41386462  1
  O  O329  1  0.66252984  0.26259890  0.92348115  1
  O  O330  1  0.67364655  0.75360823  0.41126322  1
  O  O331  1  0.67000521  0.74904549  0.91163596  1
  O  O332  1  0.99396663  0.25558549  0.41329307  1
  O  O333  1  0.98072384  0.25109232  0.91347377  1
  O  O334  1  1.00016451  0.73336682  0.42555718  1
  O  O335  1  0.99175050  0.73873823  0.92335223  1
  O  O336  1  0.21254455  0.08444068  0.19620657  1
  O  O337  1  0.19850247  0.07545899  0.69580903  1
  O  O338  1  0.21040173  0.58385872  0.19667627  1
  O  O339  1  0.21129913  0.58748476  0.69499289  1
  O  O340  1  0.54586136  0.08539048  0.19936904  1
  O  O341  1  0.53774138  0.08222680  0.69207966  1
  O  O342  1  0.54335364  0.58558776  0.19410159  1
  O  O343  1  0.54493017  0.58569747  0.69125425  1
  O  O344  1  0.87974009  0.08630633  0.19783398  1
  O  O345  1  0.87624712  0.08768802  0.69396792  1
  O  O346  1  0.87642106  0.58047248  0.19131063  1
  O  O347  1  0.87789979  0.58215813  0.69172028  1
  O  O348  1  0.04293773  0.33229063  0.19309404  1
  O  O349  1  0.03246453  0.33103465  0.69620671  1
  O  O350  1  0.04734390  0.83606490  0.20272992  1
  O  O351  1  0.04376160  0.82997027  0.69585766  1
  O  O352  1  0.38383930  0.34597954  0.19756092  1
  O  O353  1  0.38037821  0.33360264  0.69841858  1
  O  O354  1  0.37686422  0.82908664  0.19525618  1
  O  O355  1  0.37646853  0.83019800  0.69510996  1
  O  O356  1  0.70742573  0.33484795  0.19255365  1
  O  O357  1  0.71091428  0.33256451  0.69348178  1
  O  O358  1  0.70983907  0.83398131  0.19095971  1
  O  O359  1  0.70109400  0.83402181  0.68971616  1
  O  O360  1  0.20787071  0.41946103  0.19731129  1
  O  O361  1  0.21501768  0.42829037  0.68856002  1
  O  O362  1  0.21418892  0.91825161  0.19538765  1
  O  O363  1  0.21053988  0.90899988  0.69563693  1
  O  O364  1  0.54278235  0.42034305  0.19544847  1
  O  O365  1  0.54720460  0.41166321  0.69265044  1
  O  O366  1  0.54694518  0.91598899  0.19952600  1
  O  O367  1  0.54152098  0.91566389  0.69317997  1
  O  O368  1  0.87635803  0.41627984  0.19824431  1
  O  O369  1  0.87602861  0.41569536  0.69048872  1
  O  O370  1  0.87898379  0.92288078  0.19382800  1
  O  O371  1  0.87766279  0.91829618  0.69694638  1
  O  O372  1  0.04488695  0.16438508  0.19644033  1
  O  O373  1  0.03981514  0.16177700  0.69034790  1
  O  O374  1  0.04146575  0.66845268  0.19387022  1
  O  O375  1  0.04483347  0.66581237  0.69650543  1
  O  O376  1  0.38103540  0.16234739  0.19272301  1
  O  O377  1  0.38060914  0.17099373  0.69112844  1
  O  O378  1  0.37328238  0.66537152  0.19592863  1
  O  O379  1  0.37705390  0.66745095  0.69445674  1
  O  O380  1  0.71237770  0.16846800  0.19621700  1
  O  O381  1  0.71089072  0.17103457  0.69281245  1
  O  O382  1  0.70357800  0.66763976  0.19311047  1
  O  O383  1  0.71106798  0.66566722  0.69691737  1
  O  O384  1  0.12543314  0.08507056  0.30723645  1
  O  O385  1  0.12025479  0.08393491  0.80642977  1
  O  O386  1  0.11953827  0.58306095  0.29885487  1
  O  O387  1  0.12463122  0.58182596  0.80494495  1
  O  O388  1  0.45974195  0.08131054  0.30489903  1
  O  O389  1  0.46715933  0.08096402  0.80400537  1
  O  O390  1  0.45523176  0.58580206  0.30054584  1
  O  O391  1  0.45710721  0.59083982  0.80470362  1
  O  O392  1  0.79305893  0.08763703  0.30717663  1
  O  O393  1  0.78974357  0.08577512  0.80918705  1
  O  O394  1  0.78548694  0.57784330  0.30308820  1
  O  O395  1  0.79182150  0.58183079  0.80134665  1
  O  O396  1  0.28383498  0.34095913  0.30355001  1
  O  O397  1  0.29930992  0.33612607  0.80145000  1
  O  O398  1  0.29103033  0.83684384  0.30526045  1
  O  O399  1  0.28975579  0.82665589  0.80770830  1
  O  O400  1  0.62534527  0.33467173  0.30420807  1
  O  O401  1  0.62513263  0.33540517  0.80527426  1
  O  O402  1  0.62432506  0.83361060  0.30448578  1
  O  O403  1  0.62419355  0.82998447  0.80188030  1
  O  O404  1  0.95449442  0.33279095  0.30313946  1
  O  O405  1  0.95235371  0.33347513  0.80355275  1
  O  O406  1  0.95404442  0.83507295  0.30252292  1
  O  O407  1  0.95557988  0.83075751  0.80114002  1
  O  O408  1  0.11871628  0.41369454  0.30632518  1
  O  O409  1  0.11846698  0.42270042  0.80747597  1
  O  O410  1  0.12757042  0.92021492  0.30920181  1
  O  O411  1  0.11875721  0.91431797  0.80128091  1
  O  O412  1  0.46103233  0.41891463  0.30983377  1
  O  O413  1  0.45974391  0.41943850  0.80682677  1
  O  O414  1  0.45659461  0.91610833  0.30320048  1
  O  O415  1  0.45605734  0.90937483  0.80590075  1
  O  O416  1  0.78567858  0.41631974  0.30341888  1
  O  O417  1  0.79119205  0.41699767  0.80038560  1
  O  O418  1  0.78915378  0.91776204  0.29892235  1
  O  O419  1  0.78385839  0.91518278  0.80809657  1
  O  O420  1  0.28985854  0.15467575  0.30898331  1
  O  O421  1  0.28479400  0.17587759  0.80811431  1
  O  O422  1  0.28947574  0.67013768  0.30947476  1
  O  O423  1  0.29164868  0.66297338  0.80567260  1
  O  O424  1  0.62662463  0.16815197  0.30461264  1
  O  O425  1  0.62186862  0.16858766  0.80114016  1
  O  O426  1  0.62425738  0.66814075  0.30470993  1
  O  O427  1  0.62435755  0.66614845  0.80278990  1
  O  O428  1  0.95926396  0.16924770  0.30492918  1
  O  O429  1  0.95209812  0.16711334  0.80397823  1
  O  O430  1  0.95910652  0.66450709  0.30801287  1
  O  O431  1  0.95755214  0.66278015  0.80561525  1
  F  F432  1  0.04886955  0.00180497  0.20564942  1
  F  F433  1  0.04165924  -0.00132653  0.70191794  1
  F  F434  1  0.04395292  0.49794643  0.20039803  1
  F  F435  1  0.04605583  0.50089535  0.70096613  1
  F  F436  1  0.37933095  -0.00055917  0.20193304  1
  F  F437  1  0.38172691  -0.01424126  0.69957580  1
  F  F438  1  0.37661465  0.50095373  0.20442367  1
  F  F439  1  0.37870695  0.50290730  0.70169450  1
  F  F440  1  0.71458392  0.00417864  0.20206702  1
  F  F441  1  0.70813708  -0.00113912  0.69728762  1
  F  F442  1  0.70860125  0.50050444  0.19809762  1
  F  F443  1  0.71272916  0.49862518  0.69692397  1
  F  F444  1  0.19944866  0.24882047  0.20011427  1
  F  F445  1  0.21478723  0.23570656  0.69381158  1
  F  F446  1  0.21225202  0.74999151  0.20512229  1
  F  F447  1  0.21252117  0.74841042  0.70422004  1
  F  F448  1  0.54631903  0.25410539  0.20082423  1
  F  F449  1  0.54643228  0.25220398  0.70082367  1
  F  F450  1  0.54547797  0.74838704  0.20237735  1
  F  F451  1  0.54403801  0.74935837  0.69936335  1
  F  F452  1  0.87913597  0.25001036  0.20133941  1
  F  F453  1  0.87472483  0.24769087  0.70008164  1
  F  F454  1  0.87944869  0.75250895  0.20002232  1
  F  F455  1  0.88404550  0.73947367  0.69460157  1
  F  F456  1  0.29121717  -0.00131088  0.29765214  1
  F  F457  1  0.28095861  -0.01489247  0.80292698  1
  F  F458  1  0.28701772  0.50295457  0.30046133  1
  F  F459  1  0.28821944  0.50281692  0.79869899  1
  F  F460  1  0.62520539  0.00192313  0.29937403  1
  F  F461  1  0.61841781  -0.00822824  0.79876712  1
  F  F462  1  0.62211591  0.50137012  0.29597379  1
  F  F463  1  0.62965599  0.50122972  0.79601137  1
  F  F464  1  0.95730896  0.00299330  0.30028483  1
  F  F465  1  0.95925446  0.00238574  0.80275248  1
  F  F466  1  0.95230295  0.49999551  0.29673516  1
  F  F467  1  0.95270324  0.49874174  0.79437772  1
  F  F468  1  0.11848391  0.24771801  0.29908410  1
  F  F469  1  0.11179786  0.23914546  0.79805523  1
  F  F470  1  0.12264800  0.75083897  0.30036717  1
  F  F471  1  0.12141419  0.74593992  0.79981081  1
  F  F472  1  0.47141421  0.24886447  0.30190672  1
  F  F473  1  0.45818893  0.24895726  0.79838375  1
  F  F474  1  0.45490772  0.75112337  0.29754818  1
  F  F475  1  0.45629202  0.74820019  0.79620587  1
  F  F476  1  0.78818470  0.25283524  0.29650951  1
  F  F477  1  0.78838891  0.25202375  0.79751624  1
  F  F478  1  0.78610310  0.75329644  0.29686780  1
  F  F479  1  0.78853130  0.74612585  0.79749310  1
