# generated using pymatgen
data_K24Na3Li5Mg64Fe17Si79(O5F)48
_symmetry_space_group_name_H-M   'P 1'
_cell_length_a   16.08964949
_cell_length_b   18.59098152
_cell_length_c   20.56453337
_cell_angle_alpha   90.00507136
_cell_angle_beta   100.03098817
_cell_angle_gamma   90.00965666
_symmetry_Int_Tables_number   1
_chemical_formula_structural   K24Na3Li5Mg64Fe17Si79(O5F)48
_chemical_formula_sum   'K24 Na3 Li5 Mg64 Fe17 Si79 O240 F48'
_cell_volume   6057.28110926
_cell_formula_units_Z   1
loop_
 _symmetry_equiv_pos_site_id
 _symmetry_equiv_pos_as_xyz
  1  'x, y, z'
loop_
 _atom_site_type_symbol
 _atom_site_label
 _atom_site_symmetry_multiplicity
 _atom_site_fract_x
 _atom_site_fract_y
 _atom_site_fract_z
 _atom_site_occupancy
  K  K0  1  0.00143582  0.00568705  0.00444615  1
  K  K1  1  0.00071017  0.01352160  0.49322947  1
  K  K2  1  0.01095568  0.49717280  0.00904402  1
  K  K3  1  -0.00734885  0.49791232  0.49726218  1
  K  K4  1  0.32703426  0.00087113  0.00325418  1
  K  K5  1  0.33089173  0.00627709  0.49578600  1
  K  K6  1  0.33247066  0.49897701  0.00297108  1
  K  K7  1  0.33929768  0.49978980  0.49279848  1
  K  K8  1  0.66828412  0.00427087  -0.00164143  1
  K  K9  1  0.66222526  0.00314083  0.50059182  1
  K  K10  1  0.66632039  0.49182307  0.00020869  1
  K  K11  1  0.66175341  0.48597792  0.49951345  1
  K  K12  1  0.17178658  0.25108451  0.00736245  1
  K  K13  1  0.15855340  0.25176055  0.49045968  1
  K  K14  1  0.17516107  0.75178723  0.00691262  1
  K  K15  1  0.17062926  0.74004213  0.49497974  1
  K  K16  1  0.49949437  0.24806205  0.00670309  1
  K  K17  1  0.50555362  0.25486376  0.49275638  1
  K  K18  1  0.50015859  0.75170088  0.00350982  1
  K  K19  1  0.49480539  0.73609033  0.49260735  1
  K  K20  1  0.82904069  0.25438220  0.00182822  1
  K  K21  1  0.83622876  0.26301136  0.49500628  1
  K  K22  1  0.83245794  0.75548622  -0.00159699  1
  K  K23  1  0.83234239  0.74588273  0.49673406  1
  Na  Na24  1  0.33412150  0.25048420  0.24790683  1
  Na  Na25  1  0.00264354  0.58057571  0.24688415  1
  Na  Na26  1  0.49824867  0.32907755  0.25527933  1
  Li  Li27  1  0.16242259  0.49778175  0.24631463  1
  Li  Li28  1  0.16474610  0.00386426  0.24920885  1
  Li  Li29  1  0.49852425  0.16779609  0.75319564  1
  Li  Li30  1  0.83286384  0.66443231  0.74878249  1
  Li  Li31  1  0.83579872  0.83281107  0.25174366  1
  Mg  Mg32  1  0.00313975  0.24878690  0.25238418  1
  Mg  Mg33  1  0.33436621  0.74932666  0.74417907  1
  Mg  Mg34  1  0.66960214  0.74950843  0.75242101  1
  Mg  Mg35  1  0.66857475  0.24952121  0.25268322  1
  Mg  Mg36  1  0.16536053  0.49830701  0.74965740  1
  Mg  Mg37  1  0.66887670  0.75070805  0.25241100  1
  Mg  Mg38  1  -0.00336165  0.25029119  0.75211730  1
  Mg  Mg39  1  0.66279856  0.24876627  0.74790744  1
  Mg  Mg40  1  0.16579446  0.00110646  0.75187903  1
  Mg  Mg41  1  0.49573415  0.49551547  0.25146073  1
  Mg  Mg42  1  0.83616526  -0.00293386  0.25356767  1
  Mg  Mg43  1  0.33374950  0.75080817  0.24785881  1
  Mg  Mg44  1  -0.00162429  0.75200071  0.25002947  1
  Mg  Mg45  1  0.33305367  0.24821459  0.75471195  1
  Mg  Mg46  1  0.49917354  0.00136062  0.75152867  1
  Mg  Mg47  1  0.83097509  0.00130215  0.75456100  1
  Mg  Mg48  1  0.50044962  0.49975837  0.74720895  1
  Mg  Mg49  1  0.83605482  0.50260032  0.25100945  1
  Mg  Mg50  1  -0.00293361  0.74779621  0.74805937  1
  Mg  Mg51  1  0.83367411  0.50039252  0.74532734  1
  Mg  Mg52  1  0.50040693  -0.00067601  0.24785594  1
  Mg  Mg53  1  -0.00133995  0.91477086  0.74975457  1
  Mg  Mg54  1  0.49866080  0.33158281  0.74887079  1
  Mg  Mg55  1  0.16469529  0.16504515  0.25041611  1
  Mg  Mg56  1  0.32965330  0.08194348  0.24892796  1
  Mg  Mg57  1  -0.00117072  0.41565058  0.74976739  1
  Mg  Mg58  1  0.16475054  0.33542351  0.24865962  1
  Mg  Mg59  1  0.16753686  0.33344964  0.75386916  1
  Mg  Mg60  1  -0.00254406  0.58480748  0.74720908  1
  Mg  Mg61  1  0.50093821  0.16516288  0.25231788  1
  Mg  Mg62  1  0.00328099  0.08398645  0.25324281  1
  Mg  Mg63  1  -0.00122007  0.08468157  0.75531752  1
  Mg  Mg64  1  0.16656506  0.83363500  0.74712755  1
  Mg  Mg65  1  0.49846353  0.66441471  0.24910272  1
  Mg  Mg66  1  0.66587526  0.41409741  0.74577855  1
  Mg  Mg67  1  0.16758624  0.16578748  0.75496444  1
  Mg  Mg68  1  0.83170590  0.16545276  0.75132533  1
  Mg  Mg69  1  0.33306366  0.41390651  0.75266051  1
  Mg  Mg70  1  0.32789905  0.41867667  0.25335950  1
  Mg  Mg71  1  0.67028763  0.08290109  0.25298343  1
  Mg  Mg72  1  0.66392063  0.08547304  0.75218182  1
  Mg  Mg73  1  0.66997784  0.91446412  0.25030204  1
  Mg  Mg74  1  0.66790193  0.91508978  0.75370684  1
  Mg  Mg75  1  0.66593380  0.58426731  0.25202434  1
  Mg  Mg76  1  0.67005839  0.58446925  0.74833735  1
  Mg  Mg77  1  0.83313984  0.83145244  0.75175569  1
  Mg  Mg78  1  0.83786462  0.16552318  0.25315630  1
  Mg  Mg79  1  0.50278493  0.83354106  0.74969598  1
  Mg  Mg80  1  0.83488081  0.67092093  0.25078182  1
  Mg  Mg81  1  0.33029007  0.58323867  0.24823273  1
  Mg  Mg82  1  0.66678199  0.41592644  0.25246570  1
  Mg  Mg83  1  0.16530421  0.66598902  0.24891237  1
  Mg  Mg84  1  0.83076653  0.33450757  0.74688933  1
  Mg  Mg85  1  0.16718021  0.66497103  0.74644133  1
  Mg  Mg86  1  0.33346111  0.58436188  0.74518087  1
  Mg  Mg87  1  0.83740077  0.33619036  0.25429728  1
  Mg  Mg88  1  0.49863692  0.83418611  0.24792928  1
  Mg  Mg89  1  0.33511959  0.08627315  0.75255652  1
  Mg  Mg90  1  0.33434249  0.91652134  0.74789266  1
  Mg  Mg91  1  0.00405598  0.41806451  0.24977817  1
  Mg  Mg92  1  0.16569991  0.83697493  0.24868619  1
  Mg  Mg93  1  0.00095047  0.91715857  0.25241600  1
  Mg  Mg94  1  0.49995584  0.66627259  0.74657877  1
  Mg  Mg95  1  0.32981873  0.91614232  0.24641684  1
  Fe  Fe96  1  0.36290561  0.33337684  0.10906500  1
  Fe  Fe97  1  0.02124691  0.33375252  0.11054965  1
  Fe  Fe98  1  0.86304615  0.42070181  0.60647319  1
  Fe  Fe99  1  0.47557115  0.57964423  0.38909258  1
  Fe  Fe100  1  0.64568466  0.32893914  0.39104468  1
  Fe  Fe101  1  0.02155208  0.16264166  0.11021789  1
  Fe  Fe102  1  0.19472526  0.42085707  0.10957214  1
  Fe  Fe103  1  0.69061262  0.32714946  0.60717843  1
  Fe  Fe104  1  0.97531961  0.17031050  0.39429546  1
  Fe  Fe105  1  0.36033576  0.83634731  0.10775088  1
  Fe  Fe106  1  0.13723158  0.42088063  0.88963449  1
  Fe  Fe107  1  0.31038868  0.33066785  0.89367505  1
  Fe  Fe108  1  0.35399290  0.66513762  0.60529549  1
  Fe  Fe109  1  0.64472275  0.83113494  0.89115667  1
  Fe  Fe110  1  0.80462303  0.08937112  0.89216410  1
  Fe  Fe111  1  0.30913898  0.15992732  0.89456514  1
  Fe  Fe112  1  0.97626849  0.17275046  0.89194303  1
  Si  Si113  1  0.64463773  0.67000869  0.38826071  1
  Si  Si114  1  0.19053864  0.92202993  0.61311006  1
  Si  Si115  1  0.80363372  0.41246025  0.88364348  1
  Si  Si116  1  0.19422793  0.08155315  0.11411766  1
  Si  Si117  1  0.47739121  0.58682344  0.88274351  1
  Si  Si118  1  0.14724445  0.59009138  0.88495051  1
  Si  Si119  1  0.52955956  0.58488498  0.61219327  1
  Si  Si120  1  0.81554093  0.91832668  0.89028298  1
  Si  Si121  1  0.02324338  0.16428831  0.61635912  1
  Si  Si122  1  0.13591426  0.07547124  0.89012265  1
  Si  Si123  1  0.64764635  0.66235262  0.88658733  1
  Si  Si124  1  0.97887711  0.66964156  0.38599731  1
  Si  Si125  1  0.14132611  0.90961470  0.88377721  1
  Si  Si126  1  0.47442329  0.42309920  0.88569378  1
  Si  Si127  1  0.68857249  0.66878010  0.11468408  1
  Si  Si128  1  0.35826562  0.16759273  0.61589308  1
  Si  Si129  1  0.63530061  0.33434410  0.88452657  1
  Si  Si130  1  0.85861850  0.07792144  0.61491599  1
  Si  Si131  1  0.52208332  0.91641618  0.61387508  1
  Si  Si132  1  0.35923970  0.33338380  0.61418741  1
  Si  Si133  1  0.30735625  0.83555860  0.38504113  1
  Si  Si134  1  0.47222225  0.08281132  0.38518249  1
  Si  Si135  1  0.80970389  0.57592679  0.88271300  1
  Si  Si136  1  0.47232406  0.07633693  0.88631743  1
  Si  Si137  1  0.69754186  0.16971669  0.11843733  1
  Si  Si138  1  0.30603977  0.67012710  0.38617840  1
  Si  Si139  1  0.68927704  0.83461676  0.61463684  1
  Si  Si140  1  0.69234703  0.66965315  0.61550707  1
  Si  Si141  1  0.31145768  0.67118083  0.88127782  1
  Si  Si142  1  0.70258826  0.33583351  0.11733454  1
  Si  Si143  1  0.81124100  0.91307427  0.38655494  1
  Si  Si144  1  0.18566672  0.57529142  0.60950610  1
  Si  Si145  1  0.53395749  0.92053625  0.11149550  1
  Si  Si146  1  0.80953973  0.42515193  0.38770568  1
  Si  Si147  1  0.29995530  0.33217551  0.38760031  1
  Si  Si148  1  0.86017113  0.42512846  0.11385363  1
  Si  Si149  1  0.14407099  0.58529071  0.38373578  1
  Si  Si150  1  0.02679894  0.66854726  0.61200006  1
  Si  Si151  1  0.68781860  0.15751676  0.61131829  1
  Si  Si152  1  0.36220451  0.15679938  0.11485100  1
  Si  Si153  1  0.85748763  0.59129263  0.61021394  1
  Si  Si154  1  0.18689135  0.91570333  0.11114722  1
  Si  Si155  1  0.85333340  0.58944183  0.11524397  1
  Si  Si156  1  0.53592625  0.41713466  0.11378294  1
  Si  Si157  1  0.97920950  0.83275264  0.38764342  1
  Si  Si158  1  0.63072970  0.16771898  0.88654149  1
  Si  Si159  1  0.14169794  0.42079481  0.38735107  1
  Si  Si160  1  0.46804791  0.41284401  0.39249809  1
  Si  Si161  1  0.53302745  0.08552514  0.11639861  1
  Si  Si162  1  0.85546788  0.91453848  0.11934712  1
  Si  Si163  1  0.97495717  0.82808589  0.88485274  1
  Si  Si164  1  0.52143817  0.07979506  0.61591958  1
  Si  Si165  1  0.47446890  0.91767635  0.38535314  1
  Si  Si166  1  0.18753950  0.59265834  0.11095307  1
  Si  Si167  1  0.97648750  0.34210715  0.39023512  1
  Si  Si168  1  0.85827210  0.91267707  0.61460476  1
  Si  Si169  1  0.85431285  0.07585752  0.11632613  1
  Si  Si170  1  0.02143344  0.67388244  0.11389438  1
  Si  Si171  1  0.30921817  0.83498464  0.88059042  1
  Si  Si172  1  0.19077154  0.08650972  0.61510508  1
  Si  Si173  1  0.02730680  0.83422861  0.61283650  1
  Si  Si174  1  0.02996279  0.32930772  0.61342774  1
  Si  Si175  1  0.64348933  0.15748213  0.38897116  1
  Si  Si176  1  0.69380364  0.83157564  0.11752283  1
  Si  Si177  1  0.19293106  0.41084188  0.61462475  1
  Si  Si178  1  0.14425797  0.08183380  0.39088077  1
  Si  Si179  1  0.52701475  0.58082299  0.11371848  1
  Si  Si180  1  0.80760149  0.07713501  0.39056375  1
  Si  Si181  1  0.64180660  0.83653023  0.38628530  1
  Si  Si182  1  0.81226868  0.59096419  0.38559845  1
  Si  Si183  1  0.01976021  0.83708018  0.11417401  1
  Si  Si184  1  0.97189818  0.34027715  0.88612391  1
  Si  Si185  1  0.52250306  0.41809745  0.61182204  1
  Si  Si186  1  0.30591792  0.16422524  0.38581069  1
  Si  Si187  1  0.35950781  0.66552968  0.10970665  1
  Si  Si188  1  0.14213925  0.91640417  0.38681408  1
  Si  Si189  1  0.35402585  0.83662829  0.60977299  1
  Si  Si190  1  0.97464120  0.66279927  0.88277607  1
  Si  Si191  1  0.47439889  0.91431179  0.88506878  1
  O  O192  1  0.28363713  0.10083865  0.08793251  1
  O  O193  1  0.26960684  0.12336614  0.58519063  1
  O  O194  1  0.26750553  0.62869079  0.07988293  1
  O  O195  1  0.25993823  0.60547037  0.57324799  1
  O  O196  1  0.60770534  0.13028963  0.08822668  1
  O  O197  1  0.60349364  0.10623246  0.58457757  1
  O  O198  1  0.60244565  0.62410391  0.08350397  1
  O  O199  1  0.61510561  0.61460605  0.58551519  1
  O  O200  1  0.93377221  0.09409733  0.08226522  1
  O  O201  1  0.93763767  0.11686858  0.58665859  1
  O  O202  1  0.93536656  0.62481049  0.08742906  1
  O  O203  1  0.93445836  0.63570189  0.58165840  1
  O  O204  1  0.10963454  0.36035465  0.07014599  1
  O  O205  1  0.11926578  0.35178055  0.58819422  1
  O  O206  1  0.09784473  0.87092486  0.08289783  1
  O  O207  1  0.10245115  0.87792955  0.58380478  1
  O  O208  1  0.46161944  0.36599699  0.07836812  1
  O  O209  1  0.43501753  0.37238499  0.58368957  1
  O  O210  1  0.44927616  0.88194939  0.07407372  1
  O  O211  1  0.43733883  0.87009037  0.58262061  1
  O  O212  1  0.77870900  0.37208194  0.08484652  1
  O  O213  1  0.77715893  0.36131364  0.56813911  1
  O  O214  1  0.77905154  0.85772340  0.09063483  1
  O  O215  1  0.76934772  0.87017746  0.58424673  1
  O  O216  1  0.28185653  0.39511255  0.06688509  1
  O  O217  1  0.27471927  0.38101868  0.58421072  1
  O  O218  1  0.25686279  0.88066394  0.07202273  1
  O  O219  1  0.27209295  0.89078831  0.58400178  1
  O  O220  1  0.62116914  0.38544292  0.08720720  1
  O  O221  1  0.59504490  0.38534722  0.57634666  1
  O  O222  1  0.61585033  0.88400476  0.08497656  1
  O  O223  1  0.60441804  0.88289013  0.58532054  1
  O  O224  1  0.93649404  0.40294175  0.07785962  1
  O  O225  1  0.95969278  0.38334034  0.57588835  1
  O  O226  1  0.93619454  0.88656139  0.08620555  1
  O  O227  1  0.93492703  0.87142557  0.58440601  1
  O  O228  1  0.11989929  0.13318989  0.07779192  1
  O  O229  1  0.10254027  0.12880307  0.58543310  1
  O  O230  1  0.10230776  0.64431412  0.08261463  1
  O  O231  1  0.09870825  0.62288364  0.58208638  1
  O  O232  1  0.44379331  0.12258240  0.08435733  1
  O  O233  1  0.43572915  0.12718718  0.58602151  1
  O  O234  1  0.43515043  0.61738563  0.08408919  1
  O  O235  1  0.45370181  0.63634448  0.57741818  1
  O  O236  1  0.77206613  0.12839767  0.08809698  1
  O  O237  1  0.76781453  0.11549915  0.58484220  1
  O  O238  1  0.76922205  0.63806095  0.08333995  1
  O  O239  1  0.77554819  0.64515428  0.58528551  1
  O  O240  1  0.07493181  0.11827904  0.42949027  1
  O  O241  1  0.04877143  0.09274661  0.91550702  1
  O  O242  1  0.06362430  0.62194926  0.41405727  1
  O  O243  1  0.06371725  0.62216893  0.91320974  1
  O  O244  1  0.39735872  0.12420937  0.41602573  1
  O  O245  1  0.39159871  0.08804699  0.92146288  1
  O  O246  1  0.39013191  0.63037142  0.42271509  1
  O  O247  1  0.39444142  0.62081519  0.91031694  1
  O  O248  1  0.71871661  0.09793527  0.41569944  1
  O  O249  1  0.70543420  0.11700986  0.92443368  1
  O  O250  1  0.73910956  0.63512479  0.41578429  1
  O  O251  1  0.72678168  0.60592018  0.91236658  1
  O  O252  1  0.22408808  0.37117715  0.42107041  1
  O  O253  1  0.21043021  0.34899295  0.92272511  1
  O  O254  1  0.23211169  0.87518446  0.41704565  1
  O  O255  1  0.22373013  0.85763914  0.90937628  1
  O  O256  1  0.54862804  0.36188816  0.42016350  1
  O  O257  1  0.55936060  0.37457708  0.91481242  1
  O  O258  1  0.56510288  0.87751096  0.41625855  1
  O  O259  1  0.54240508  0.85584390  0.91933791  1
  O  O260  1  0.89956184  0.38526631  0.41743658  1
  O  O261  1  0.87944150  0.35648538  0.91083388  1
  O  O262  1  0.89688001  0.86599902  0.41646335  1
  O  O263  1  0.89673279  0.86213492  0.91494679  1
  O  O264  1  0.06172207  0.39014996  0.41987019  1
  O  O265  1  0.02914097  0.40993525  0.91129233  1
  O  O266  1  0.06519948  0.87838814  0.41977916  1
  O  O267  1  0.06296027  0.87194572  0.91334023  1
  O  O268  1  0.38748200  0.37287012  0.42055979  1
  O  O269  1  0.39495327  0.40246747  0.91873082  1
  O  O270  1  0.39795153  0.87625731  0.41454211  1
  O  O271  1  0.38301222  0.89312583  0.90876260  1
  O  O272  1  0.73658518  0.39166476  0.42273350  1
  O  O273  1  0.72094006  0.38187178  0.91342407  1
  O  O274  1  0.73096295  0.87785693  0.41680099  1
  O  O275  1  0.73748746  0.88991966  0.92441928  1
  O  O276  1  0.23674240  0.11990484  0.42149909  1
  O  O277  1  0.21197544  0.12590690  0.92543097  1
  O  O278  1  0.22558221  0.63566138  0.41628372  1
  O  O279  1  0.22653412  0.64809529  0.91011388  1
  O  O280  1  0.56103641  0.12222952  0.41672398  1
  O  O281  1  0.54462744  0.13787564  0.91205817  1
  O  O282  1  0.57621499  0.63128055  0.42435547  1
  O  O283  1  0.56080679  0.63505127  0.91306197  1
  O  O284  1  0.88429473  0.12600477  0.42770997  1
  O  O285  1  0.88033120  0.15824487  0.92732764  1
  O  O286  1  0.90042068  0.63350506  0.41678105  1
  O  O287  1  0.89522333  0.62440179  0.91128269  1
  O  O288  1  0.17004494  -0.00115259  0.08569507  1
  O  O289  1  0.17731261  0.00427364  0.58404080  1
  O  O290  1  0.16661048  0.51592968  0.07704407  1
  O  O291  1  0.16453108  0.49132030  0.58443079  1
  O  O292  1  0.53521265  0.00426435  0.08555745  1
  O  O293  1  0.50313982  -0.00211810  0.58372269  1
  O  O294  1  0.52563505  0.50026274  0.08167880  1
  O  O295  1  0.50699526  0.50231988  0.58647527  1
  O  O296  1  0.82266701  -0.00643865  0.09025318  1
  O  O297  1  0.85245569  -0.00522775  0.58430218  1
  O  O298  1  0.83219642  0.50805959  0.08608254  1
  O  O299  1  0.84327102  0.51609548  0.57128453  1
  O  O300  1  -0.02301075  0.24777321  0.07508666  1
  O  O301  1  0.00952223  0.24559065  0.58620060  1
  O  O302  1  -0.00041603  0.75572605  0.08260883  1
  O  O303  1  0.02751805  0.75203222  0.58341904  1
  O  O304  1  0.34168114  0.23517074  0.08361160  1
  O  O305  1  0.34769826  0.25001159  0.58510938  1
  O  O306  1  0.35965431  0.74256500  0.07257035  1
  O  O307  1  0.32934385  0.76051904  0.57438441  1
  O  O308  1  0.69013252  0.25243191  0.08903880  1
  O  O309  1  0.66813708  0.23264036  0.57394855  1
  O  O310  1  0.67160753  0.75096520  0.08602933  1
  O  O311  1  0.67130805  0.75250857  0.58544438  1
  O  O312  1  0.15464529  -0.00281371  0.41888602  1
  O  O313  1  0.16114638  -0.01027428  0.91352907  1
  O  O314  1  0.15852739  0.50404862  0.41656403  1
  O  O315  1  0.17666156  0.51482538  0.91860579  1
  O  O316  1  0.47883922  -0.00042956  0.41664571  1
  O  O317  1  0.50791077  -0.00553471  0.91153820  1
  O  O318  1  0.48153769  0.49008173  0.43134812  1
  O  O319  1  0.50030406  0.50639339  0.91208446  1
  O  O320  1  0.82739339  -0.00646737  0.41880994  1
  O  O321  1  0.84597182  -0.00379874  0.91952731  1
  O  O322  1  0.82315866  0.50950360  0.41457293  1
  O  O323  1  0.82525280  0.49427547  0.91419647  1
  O  O324  1  0.30811709  0.24730021  0.41492984  1
  O  O325  1  0.35518714  0.24487305  0.92923736  1
  O  O326  1  0.31334620  0.75419849  0.41517156  1
  O  O327  1  0.33641455  0.75360864  0.90822149  1
  O  O328  1  0.66822577  0.23360781  0.42374348  1
  O  O329  1  0.64428973  0.25239955  0.91465984  1
  O  O330  1  0.65228551  0.75478619  0.41590367  1
  O  O331  1  0.67505663  0.73761022  0.92302605  1
  O  O332  1  0.98847792  0.26499402  0.42785496  1
  O  O333  1  1.01330937  0.26623107  0.91795034  1
  O  O334  1  0.99356865  0.75100067  0.41980128  1
  O  O335  1  0.98498053  0.74534179  0.91338793  1
  O  O336  1  0.21067786  0.08352866  0.19444406  1
  O  O337  1  0.20789744  0.08208068  0.69497172  1
  O  O338  1  0.21149624  0.59508321  0.19065975  1
  O  O339  1  0.20733862  0.58214939  0.69043594  1
  O  O340  1  0.54939466  0.08077030  0.19681305  1
  O  O341  1  0.54210195  0.07854444  0.69527399  1
  O  O342  1  0.54671530  0.58523043  0.19377619  1
  O  O343  1  0.54534521  0.58514344  0.69339545  1
  O  O344  1  0.87272682  0.07905712  0.19725932  1
  O  O345  1  0.87692208  0.07751136  0.69471649  1
  O  O346  1  0.86546867  0.58860578  0.19446139  1
  O  O347  1  0.87816812  0.58481289  0.69010581  1
  O  O348  1  0.04111122  0.33188727  0.20299832  1
  O  O349  1  0.04258556  0.33017592  0.69391857  1
  O  O350  1  0.04090833  0.83591541  0.19441664  1
  O  O351  1  0.04395395  0.83406861  0.69308176  1
  O  O352  1  0.37248554  0.34585996  0.19591569  1
  O  O353  1  0.37671497  0.33354993  0.69418269  1
  O  O354  1  0.37933115  0.83402647  0.19964976  1
  O  O355  1  0.37451152  0.83495646  0.69082660  1
  O  O356  1  0.71826094  0.33462034  0.19720650  1
  O  O357  1  0.70880045  0.33166901  0.69925829  1
  O  O358  1  0.70602664  0.83169320  0.19705272  1
  O  O359  1  0.71100969  0.83488013  0.69451684  1
  O  O360  1  0.21020420  0.41700614  0.19972991  1
  O  O361  1  0.21261422  0.41668469  0.69436743  1
  O  O362  1  0.21039433  0.91079570  0.19109646  1
  O  O363  1  0.20771876  0.91773491  0.69339047  1
  O  O364  1  0.55092896  0.42510124  0.19328865  1
  O  O365  1  0.54075294  0.41672621  0.69296755  1
  O  O366  1  0.54637090  0.91645825  0.19267193  1
  O  O367  1  0.54064382  0.91647632  0.69391196  1
  O  O368  1  0.87498559  0.42080678  0.19457907  1
  O  O369  1  0.87806545  0.41794905  0.69884243  1
  O  O370  1  0.87861102  0.91650237  0.19884501  1
  O  O371  1  0.87636430  0.91369633  0.69473619  1
  O  O372  1  0.04366945  0.16386087  0.20229014  1
  O  O373  1  0.04402615  0.16249247  0.69623274  1
  O  O374  1  0.04456712  0.67781065  0.19287075  1
  O  O375  1  0.04456886  0.66864513  0.69236262  1
  O  O376  1  0.38474311  0.15360683  0.19472839  1
  O  O377  1  0.37318890  0.16652223  0.69508283  1
  O  O378  1  0.37683492  0.66970116  0.19054913  1
  O  O379  1  0.37733234  0.66664365  0.69707576  1
  O  O380  1  0.71490938  0.16588549  0.19885921  1
  O  O381  1  0.70613589  0.16269561  0.69179225  1
  O  O382  1  0.70697583  0.66784811  0.19500842  1
  O  O383  1  0.70685500  0.66939028  0.69518304  1
  O  O384  1  0.12302635  0.08366520  0.31147932  1
  O  O385  1  0.12294360  0.07854919  0.80780788  1
  O  O386  1  0.13134268  0.58770527  0.30551519  1
  O  O387  1  0.12549109  0.58802448  0.80359145  1
  O  O388  1  0.45728088  0.07760525  0.30550089  1
  O  O389  1  0.45287633  0.07664451  0.80584429  1
  O  O390  1  0.45541660  0.58492118  0.29763992  1
  O  O391  1  0.45820317  0.58508504  0.80233689  1
  O  O392  1  0.79243453  0.07947019  0.30959509  1
  O  O393  1  0.78506105  0.08352693  0.79911675  1
  O  O394  1  0.79124991  0.58909127  0.30546807  1
  O  O395  1  0.78989643  0.57826758  0.80302541  1
  O  O396  1  0.28157259  0.33802249  0.30915444  1
  O  O397  1  0.28931696  0.33300044  0.80009386  1
  O  O398  1  0.28926856  0.83565453  0.30517402  1
  O  O399  1  0.28935811  0.83329637  0.79980785  1
  O  O400  1  0.63499265  0.33186739  0.30131992  1
  O  O401  1  0.61911463  0.33476390  0.80436379  1
  O  O402  1  0.62271403  0.83564454  0.30607122  1
  O  O403  1  0.62280089  0.83228004  0.79907292  1
  O  O404  1  0.95660103  0.33582568  0.30995673  1
  O  O405  1  0.95301903  0.33439720  0.80428620  1
  O  O406  1  0.96330525  0.83381436  0.30833552  1
  O  O407  1  0.95867079  0.83102309  0.80421035  1
  O  O408  1  0.12143313  0.41683140  0.30866635  1
  O  O409  1  0.12010090  0.41848648  0.79652322  1
  O  O410  1  0.12223357  0.91263254  0.30754158  1
  O  O411  1  0.12215347  0.91213699  0.80296309  1
  O  O412  1  0.44987084  0.42411700  0.31293597  1
  O  O413  1  0.45805088  0.41983115  0.80449491  1
  O  O414  1  0.46000890  0.91661978  0.30551893  1
  O  O415  1  0.45575126  0.91384220  0.80352377  1
  O  O416  1  0.79161111  0.42156214  0.30691176  1
  O  O417  1  0.78539073  0.41778307  0.80362018  1
  O  O418  1  0.78956923  0.91593215  0.30723026  1
  O  O419  1  0.79337226  0.91477903  0.80816574  1
  O  O420  1  0.28538411  0.15742294  0.30717197  1
  O  O421  1  0.28727003  0.16384234  0.80150713  1
  O  O422  1  0.29092706  0.67100933  0.30548195  1
  O  O423  1  0.29035289  0.66845160  0.80081741  1
  O  O424  1  0.62729841  0.16000887  0.30828387  1
  O  O425  1  0.62303671  0.16772669  0.80636238  1
  O  O426  1  0.62476721  0.66853522  0.30727789  1
  O  O427  1  0.62581501  0.66495006  0.80558852  1
  O  O428  1  0.95472187  0.16523691  0.30358504  1
  O  O429  1  0.95276762  0.16686189  0.79875304  1
  O  O430  1  0.95467095  0.67530150  0.30724734  1
  O  O431  1  0.96008186  0.66627258  0.80297672  1
  F  F432  1  0.04118460  -0.00124479  0.20574293  1
  F  F433  1  0.04485371  -0.00205637  0.70217606  1
  F  F434  1  0.04327884  0.49105132  0.19410735  1
  F  F435  1  0.04491439  0.50507418  0.69880932  1
  F  F436  1  0.38128800  -0.00386845  0.20020956  1
  F  F437  1  0.37655679  -0.00051675  0.69995421  1
  F  F438  1  0.37778143  0.50281788  0.19962292  1
  F  F439  1  0.37872746  0.49936428  0.70063351  1
  F  F440  1  0.71390854  -0.00105057  0.20480211  1
  F  F441  1  0.71061083  -0.00514888  0.70178899  1
  F  F442  1  0.71309193  0.50281440  0.20520897  1
  F  F443  1  0.71047316  0.50080551  0.69855625  1
  F  F444  1  0.19784911  0.24840507  0.20139932  1
  F  F445  1  0.20879130  0.24778638  0.70139180  1
  F  F446  1  0.21205036  0.75308079  0.20244484  1
  F  F447  1  0.21022145  0.75070365  0.69756242  1
  F  F448  1  0.55386126  0.23602828  0.19955841  1
  F  F449  1  0.54438184  0.25290969  0.69897301  1
  F  F450  1  0.54713110  0.75002341  0.20354230  1
  F  F451  1  0.54586086  0.74944015  0.70008264  1
  F  F452  1  0.87691798  0.25187893  0.20523004  1
  F  F453  1  0.87556715  0.24917712  0.69929676  1
  F  F454  1  0.87860069  0.75010965  0.20114504  1
  F  F455  1  0.88142299  0.75650883  0.69800133  1
  F  F456  1  0.29480264  -0.00371121  0.29855116  1
  F  F457  1  0.28624909  -0.00347572  0.79552072  1
  F  F458  1  0.29200149  0.50601806  0.30006386  1
  F  F459  1  0.28875286  0.50409191  0.79471632  1
  F  F460  1  0.62193741  -0.00355493  0.29858020  1
  F  F461  1  0.62051332  -0.00181380  0.79791635  1
  F  F462  1  0.62136820  0.50261692  0.30012971  1
  F  F463  1  0.62129072  0.50023216  0.79435164  1
  F  F464  1  0.95528613  -0.00200624  0.30389877  1
  F  F465  1  0.95475208  -0.00471781  0.79707413  1
  F  F466  1  0.95053085  0.49421353  0.30221814  1
  F  F467  1  0.95432357  0.50512643  0.79565100  1
  F  F468  1  0.12295781  0.24823399  0.30556328  1
  F  F469  1  0.11858816  0.24845411  0.79701323  1
  F  F470  1  0.12186944  0.75312931  0.29790326  1
  F  F471  1  0.12152875  0.75033708  0.79401409  1
  F  F472  1  0.46521197  0.23240140  0.31277036  1
  F  F473  1  0.45374971  0.25397896  0.79811718  1
  F  F474  1  0.45674802  0.75000430  0.29882528  1
  F  F475  1  0.45437520  0.75104659  0.79549932  1
  F  F476  1  0.79144446  0.24894867  0.30112724  1
  F  F477  1  0.78480813  0.24879319  0.79579210  1
  F  F478  1  0.78553655  0.74770886  0.30194360  1
  F  F479  1  0.78926628  0.75214978  0.79922863  1
