# generated using pymatgen
data_K24Na3Li5Mg64Fe17Si79(O5F)48
_symmetry_space_group_name_H-M   'P 1'
_cell_length_a   16.09995433
_cell_length_b   18.60166985
_cell_length_c   20.58511530
_cell_angle_alpha   89.99370577
_cell_angle_beta   100.00619239
_cell_angle_gamma   90.01210493
_symmetry_Int_Tables_number   1
_chemical_formula_structural   K24Na3Li5Mg64Fe17Si79(O5F)48
_chemical_formula_sum   'K24 Na3 Li5 Mg64 Fe17 Si79 O240 F48'
_cell_volume   6071.17916400
_cell_formula_units_Z   1
loop_
 _symmetry_equiv_pos_site_id
 _symmetry_equiv_pos_as_xyz
  1  'x, y, z'
loop_
 _atom_site_type_symbol
 _atom_site_label
 _atom_site_symmetry_multiplicity
 _atom_site_fract_x
 _atom_site_fract_y
 _atom_site_fract_z
 _atom_site_occupancy
  K  K0  1  0.00488822  0.00711469  -0.01286655  1
  K  K1  1  0.00165313  0.01188862  0.50921660  1
  K  K2  1  0.00065459  0.49550051  0.00175034  1
  K  K3  1  0.00584912  0.48815386  0.49127310  1
  K  K4  1  0.32509714  0.00839608  -0.00408366  1
  K  K5  1  0.33391007  0.00974243  0.50451623  1
  K  K6  1  0.32516778  0.48732819  -0.00630119  1
  K  K7  1  0.33411948  0.49908608  0.50100143  1
  K  K8  1  0.65949909  0.01508960  -0.01070275  1
  K  K9  1  0.66302882  0.01521858  0.50671505  1
  K  K10  1  0.66964028  0.48840862  -0.00118848  1
  K  K11  1  0.66372579  0.49422088  0.49936603  1
  K  K12  1  0.18440537  0.25055064  0.00125035  1
  K  K13  1  0.16358989  0.25215239  0.49928419  1
  K  K14  1  0.14698622  0.76093164  -0.01081627  1
  K  K15  1  0.16291822  0.74302030  0.50109746  1
  K  K16  1  0.49322087  0.24431553  -0.00463213  1
  K  K17  1  0.50936479  0.24910446  0.50230030  1
  K  K18  1  0.49378471  0.74906495  -0.00690314  1
  K  K19  1  0.49997245  0.74653480  0.50481918  1
  K  K20  1  0.83066386  0.25105424  -0.00237644  1
  K  K21  1  0.82293708  0.25581278  0.49948104  1
  K  K22  1  0.84094492  0.74857394  -0.00285745  1
  K  K23  1  0.82846566  0.74198104  0.50351366  1
  Na  Na24  1  0.67135600  0.25284617  0.25563285  1
  Na  Na25  1  0.16672044  0.33054554  0.25609227  1
  Na  Na26  1  0.83463655  0.16920126  0.74928884  1
  Li  Li27  1  0.33047636  0.25351453  0.74661006  1
  Li  Li28  1  0.00238173  0.74617078  0.25280171  1
  Li  Li29  1  0.83033892  0.33337046  0.26214683  1
  Li  Li30  1  0.00014000  0.08817284  0.75100744  1
  Li  Li31  1  0.66543620  0.58107507  0.74835384  1
  Mg  Mg32  1  0.66931838  0.74709803  0.24845176  1
  Mg  Mg33  1  0.49607625  0.00282923  0.74829913  1
  Mg  Mg34  1  0.83153506  0.49746309  0.25092136  1
  Mg  Mg35  1  0.83446443  0.00290378  0.75507525  1
  Mg  Mg36  1  0.83219415  0.50131194  0.75121390  1
  Mg  Mg37  1  0.17020843  0.49922277  0.75158361  1
  Mg  Mg38  1  0.50418816  0.49927056  0.74823877  1
  Mg  Mg39  1  0.33364834  0.24791007  0.24822025  1
  Mg  Mg40  1  0.33258893  0.74984619  0.24735495  1
  Mg  Mg41  1  -0.00252892  0.75257524  0.75601286  1
  Mg  Mg42  1  -0.00317018  0.24967291  0.25046294  1
  Mg  Mg43  1  0.83513522  -0.00087909  0.24679806  1
  Mg  Mg44  1  0.50216887  0.00081820  0.24588484  1
  Mg  Mg45  1  0.16136174  0.49926389  0.25252975  1
  Mg  Mg46  1  0.16866890  -0.00011477  0.24760727  1
  Mg  Mg47  1  0.66697393  0.25119094  0.74930546  1
  Mg  Mg48  1  0.66650628  0.74820628  0.74972148  1
  Mg  Mg49  1  0.33187831  0.74856292  0.75051198  1
  Mg  Mg50  1  0.16067125  0.00322644  0.75504350  1
  Mg  Mg51  1  0.49970171  0.49911134  0.24955219  1
  Mg  Mg52  1  0.00088750  0.24833943  0.74987442  1
  Mg  Mg53  1  0.32877778  0.91603665  0.75163511  1
  Mg  Mg54  1  0.16963352  0.16600192  0.24846860  1
  Mg  Mg55  1  0.17158106  0.33244986  0.74965290  1
  Mg  Mg56  1  0.83377317  0.83591155  0.75531105  1
  Mg  Mg57  1  0.66987328  0.91373759  0.24647279  1
  Mg  Mg58  1  0.66388831  0.08631990  0.74983955  1
  Mg  Mg59  1  0.33527023  0.08599379  0.24811577  1
  Mg  Mg60  1  0.66827364  0.08425912  0.24728023  1
  Mg  Mg61  1  0.50209928  0.83290119  0.24591404  1
  Mg  Mg62  1  0.00218913  0.91356698  0.24767694  1
  Mg  Mg63  1  0.83385041  0.33475784  0.75101864  1
  Mg  Mg64  1  0.67073749  0.58270007  0.25007039  1
  Mg  Mg65  1  0.83886249  0.83062956  0.24741286  1
  Mg  Mg66  1  0.33488459  0.91602478  0.24570172  1
  Mg  Mg67  1  0.33197008  0.58277981  0.74862808  1
  Mg  Mg68  1  0.33038583  0.58455954  0.24851984  1
  Mg  Mg69  1  0.16301533  0.66646612  0.25072069  1
  Mg  Mg70  1  0.49730749  0.33404749  0.74875429  1
  Mg  Mg71  1  0.32953082  0.08828889  0.74932108  1
  Mg  Mg72  1  -0.00331110  0.41312623  0.25347084  1
  Mg  Mg73  1  0.00304643  0.41552508  0.75310041  1
  Mg  Mg74  1  0.00014304  0.58463748  0.75361924  1
  Mg  Mg75  1  0.16519540  0.83226400  0.24737755  1
  Mg  Mg76  1  0.66445889  0.41915354  0.74708830  1
  Mg  Mg77  1  0.16645954  0.16631927  0.75253052  1
  Mg  Mg78  1  0.00204135  0.58458404  0.25301505  1
  Mg  Mg79  1  0.50204479  0.66463942  0.74719030  1
  Mg  Mg80  1  0.00281131  0.08298271  0.24763663  1
  Mg  Mg81  1  0.16492410  0.66533528  0.75068909  1
  Mg  Mg82  1  -0.00060890  0.91938504  0.75739185  1
  Mg  Mg83  1  0.49754304  0.83412994  0.74872557  1
  Mg  Mg84  1  0.33104809  0.41586737  0.25105178  1
  Mg  Mg85  1  0.83454304  0.16769934  0.24840186  1
  Mg  Mg86  1  0.50075015  0.66517640  0.24799009  1
  Mg  Mg87  1  0.67031982  0.41466414  0.25187058  1
  Mg  Mg88  1  0.49385292  0.16705145  0.74766293  1
  Mg  Mg89  1  0.50223911  0.16770692  0.24815691  1
  Mg  Mg90  1  0.83154652  0.66554021  0.75400735  1
  Mg  Mg91  1  0.83896454  0.66492286  0.25195424  1
  Mg  Mg92  1  0.50065742  0.33409583  0.24902943  1
  Mg  Mg93  1  0.66437494  0.91755677  0.75013070  1
  Mg  Mg94  1  0.33309270  0.41365063  0.74891222  1
  Mg  Mg95  1  0.16328499  0.83583155  0.75444603  1
  Fe  Fe96  1  0.47306825  0.07860291  0.88963565  1
  Fe  Fe97  1  0.35624204  0.33219143  0.60746383  1
  Fe  Fe98  1  0.81042649  0.58556935  0.39048331  1
  Fe  Fe99  1  0.14136288  0.58491015  0.39223581  1
  Fe  Fe100  1  0.18518319  0.41729729  0.60971447  1
  Fe  Fe101  1  0.14384719  0.92224546  0.89618861  1
  Fe  Fe102  1  0.31435998  0.16704092  0.39017865  1
  Fe  Fe103  1  0.52443005  0.08614651  0.60856506  1
  Fe  Fe104  1  0.31469832  0.33575523  0.89176447  1
  Fe  Fe105  1  0.96695166  0.83625819  0.89591354  1
  Fe  Fe106  1  0.63481927  0.33492840  0.39270798  1
  Fe  Fe107  1  0.14324771  0.41112202  0.39221829  1
  Fe  Fe108  1  0.18398175  0.08039995  0.61235937  1
  Fe  Fe109  1  0.52754847  0.41712075  0.60674699  1
  Fe  Fe110  1  0.18546914  0.58800077  0.61107925  1
  Fe  Fe111  1  0.36031456  0.16767254  0.10745519  1
  Fe  Fe112  1  0.81221564  0.41487296  0.39396570  1
  Si  Si113  1  0.97426699  0.66286711  0.89184700  1
  Si  Si114  1  0.97375390  0.17050200  0.88706072  1
  Si  Si115  1  0.85564953  0.92015832  0.61733803  1
  Si  Si116  1  0.35199730  0.16475746  0.60992685  1
  Si  Si117  1  0.53247776  0.08043926  0.10950985  1
  Si  Si118  1  0.13894533  0.41639434  0.89100044  1
  Si  Si119  1  0.47954673  0.91341172  0.38062204  1
  Si  Si120  1  0.97907867  0.83671220  0.38275701  1
  Si  Si121  1  0.02565233  0.16685379  0.11236288  1
  Si  Si122  1  0.14552937  0.91673549  0.38269499  1
  Si  Si123  1  0.35394200  0.83233203  0.61545193  1
  Si  Si124  1  0.52768480  0.41953490  0.11245718  1
  Si  Si125  1  0.19109188  0.91346197  0.11217971  1
  Si  Si126  1  0.30714983  0.16639350  0.88882965  1
  Si  Si127  1  0.46951447  0.58828708  0.38198952  1
  Si  Si128  1  0.36004831  0.83337768  0.11084757  1
  Si  Si129  1  0.69606093  0.83100693  0.11127005  1
  Si  Si130  1  0.64371534  0.83002697  0.38165133  1
  Si  Si131  1  0.01854694  0.67299792  0.61778200  1
  Si  Si132  1  0.47458397  0.90820404  0.88667543  1
  Si  Si133  1  0.64547680  0.66910810  0.88392421  1
  Si  Si134  1  0.97362211  0.32151308  0.38865996  1
  Si  Si135  1  0.36078213  0.66725657  0.61328026  1
  Si  Si136  1  0.02335162  0.33344730  0.11453794  1
  Si  Si137  1  0.64223054  0.33505992  0.88455751  1
  Si  Si138  1  0.48131737  0.58693613  0.88480417  1
  Si  Si139  1  0.35814295  0.34112682  0.11175718  1
  Si  Si140  1  0.86040813  0.08368448  0.11146354  1
  Si  Si141  1  0.14155939  0.08115472  0.38411571  1
  Si  Si142  1  0.80562281  0.08619954  0.88656398  1
  Si  Si143  1  0.69743416  0.16677593  0.11335362  1
  Si  Si144  1  0.79653173  0.92135795  0.89029589  1
  Si  Si145  1  0.64171424  0.15944788  0.38505700  1
  Si  Si146  1  0.31133871  0.66194541  0.88675716  1
  Si  Si147  1  0.02354461  0.32923782  0.61705113  1
  Si  Si148  1  0.69489350  0.16904961  0.61358931  1
  Si  Si149  1  0.47904160  0.07537016  0.38447606  1
  Si  Si150  1  0.52261736  0.91262307  0.61226597  1
  Si  Si151  1  0.86037106  0.58127515  0.11328173  1
  Si  Si152  1  0.18419399  0.90955022  0.61427536  1
  Si  Si153  1  0.01757142  0.83360886  0.61917981  1
  Si  Si154  1  0.52665467  0.58888803  0.61259078  1
  Si  Si155  1  0.80768311  0.58058532  0.88651370  1
  Si  Si156  1  0.69478034  0.66590152  0.11221676  1
  Si  Si157  1  0.69639834  0.66770953  0.61719570  1
  Si  Si158  1  0.18809564  0.07977082  0.10977934  1
  Si  Si159  1  0.86000985  0.08147279  0.61902695  1
  Si  Si160  1  0.70231749  0.33559826  0.61455617  1
  Si  Si161  1  0.14004240  0.09320199  0.89076191  1
  Si  Si162  1  0.64233004  0.17065092  0.88798934  1
  Si  Si163  1  0.86037300  0.91727833  0.11121069  1
  Si  Si164  1  0.31220421  0.83626887  0.38128780  1
  Si  Si165  1  0.69328398  0.83256153  0.61612206  1
  Si  Si166  1  0.52965181  0.91342025  0.11076903  1
  Si  Si167  1  0.97143888  0.67325233  0.38784738  1
  Si  Si168  1  0.48195958  0.42326584  0.88870189  1
  Si  Si169  1  0.80739776  0.07804759  0.38251485  1
  Si  Si170  1  0.85940468  0.41618501  0.11358090  1
  Si  Si171  1  0.97211192  0.33487494  0.88847011  1
  Si  Si172  1  0.30756994  0.67330256  0.38400912  1
  Si  Si173  1  0.30823692  0.82759840  0.88960294  1
  Si  Si174  1  0.19041048  0.58652976  0.11200379  1
  Si  Si175  1  0.31599037  0.33153135  0.38476039  1
  Si  Si176  1  0.80641222  0.41677712  0.88570694  1
  Si  Si177  1  0.02541330  0.83173678  0.11392850  1
  Si  Si178  1  0.97398933  0.15684904  0.38221306  1
  Si  Si179  1  0.02395853  0.66644583  0.11410214  1
  Si  Si180  1  0.19023925  0.42179160  0.11522832  1
  Si  Si181  1  0.85990945  0.58268591  0.61814990  1
  Si  Si182  1  0.86697303  0.41843403  0.61943953  1
  Si  Si183  1  0.46659898  0.42299139  0.38506523  1
  Si  Si184  1  0.35852306  0.66652489  0.11117155  1
  Si  Si185  1  0.63675145  0.66537503  0.38487994  1
  Si  Si186  1  0.14190561  0.58266905  0.88843138  1
  Si  Si187  1  0.69373630  0.33517200  0.11450938  1
  Si  Si188  1  0.81041461  0.91291957  0.38252536  1
  Si  Si189  1  0.63854610  0.83159854  0.88360403  1
  Si  Si190  1  0.01933902  0.16870179  0.61522391  1
  Si  Si191  1  0.52748073  0.58524291  0.11215073  1
  O  O192  1  0.26003515  0.11547130  0.07503767  1
  O  O193  1  0.28292828  0.10185444  0.58211245  1
  O  O194  1  0.26939238  0.62515546  0.08167235  1
  O  O195  1  0.28556116  0.61606903  0.57914694  1
  O  O196  1  0.61233158  0.12042050  0.08272229  1
  O  O197  1  0.61584908  0.12486182  0.57316749  1
  O  O198  1  0.60186763  0.62976021  0.08221199  1
  O  O199  1  0.60863928  0.62732016  0.58590202  1
  O  O200  1  0.93607177  0.12517856  0.08188307  1
  O  O201  1  0.93917723  0.11340067  0.58757898  1
  O  O202  1  0.93590468  0.62312013  0.08222324  1
  O  O203  1  0.93850985  0.61908191  0.58922917  1
  O  O204  1  0.10147567  0.37696357  0.08767420  1
  O  O205  1  0.10378274  0.34449337  0.58273801  1
  O  O206  1  0.10668069  0.86512085  0.08470590  1
  O  O207  1  0.10267080  0.85411516  0.58887231  1
  O  O208  1  0.43397109  0.38656351  0.08323762  1
  O  O209  1  0.44888052  0.35232864  0.56802871  1
  O  O210  1  0.43850753  0.87312659  0.08251461  1
  O  O211  1  0.43563582  0.86473559  0.58637361  1
  O  O212  1  0.76925844  0.37562021  0.08089021  1
  O  O213  1  0.79002182  0.36410806  0.59125512  1
  O  O214  1  0.77123864  0.87436715  0.08228147  1
  O  O215  1  0.76999833  0.87290497  0.58628072  1
  O  O216  1  0.26851869  0.38577367  0.08441892  1
  O  O217  1  0.28016210  0.40263081  0.57338148  1
  O  O218  1  0.27154940  0.87620323  0.08367257  1
  O  O219  1  0.26716938  0.87605009  0.58535381  1
  O  O220  1  0.60255048  0.37593237  0.08221046  1
  O  O221  1  0.62844687  0.38714712  0.57916642  1
  O  O222  1  0.60345242  0.86728146  0.08213465  1
  O  O223  1  0.60135673  0.86851491  0.58592141  1
  O  O224  1  0.93438562  0.37494798  0.08045153  1
  O  O225  1  0.94949847  0.39027086  0.59101395  1
  O  O226  1  0.93833930  0.87678818  0.08364912  1
  O  O227  1  0.93837808  0.88786214  0.58923788  1
  O  O228  1  0.09795215  0.12198068  0.08194224  1
  O  O229  1  0.09361512  0.14249946  0.57649730  1
  O  O230  1  0.10257894  0.63046928  0.08218262  1
  O  O231  1  0.10053639  0.65907079  0.58540759  1
  O  O232  1  0.44721425  0.11827125  0.07393438  1
  O  O233  1  0.43477584  0.14598532  0.57568060  1
  O  O234  1  0.43680393  0.62639889  0.08265891  1
  O  O235  1  0.44937772  0.64720168  0.58713691  1
  O  O236  1  0.77385702  0.12790157  0.08062560  1
  O  O237  1  0.77913592  0.13290654  0.58977832  1
  O  O238  1  0.76945435  0.62231034  0.08301967  1
  O  O239  1  0.77458306  0.62926894  0.58825366  1
  O  O240  1  0.05126865  0.10015952  0.40866592  1
  O  O241  1  0.05964462  0.12863966  0.92198132  1
  O  O242  1  0.04501265  0.62004624  0.42327437  1
  O  O243  1  0.06602459  0.62244946  0.91928430  1
  O  O244  1  0.39892070  0.09611677  0.41724963  1
  O  O245  1  0.37627363  0.10611614  0.92154621  1
  O  O246  1  0.38884562  0.62066049  0.41138400  1
  O  O247  1  0.39973424  0.61820072  0.91584219  1
  O  O248  1  0.72644866  0.10796391  0.41219730  1
  O  O249  1  0.73443091  0.13156979  0.91850153  1
  O  O250  1  0.70842891  0.61320265  0.42143934  1
  O  O251  1  0.73022372  0.62189749  0.91511994  1
  O  O252  1  0.22825920  0.34093990  0.41177114  1
  O  O253  1  0.22148161  0.37498260  0.92781778  1
  O  O254  1  0.22975229  0.86671949  0.41035249  1
  O  O255  1  0.23686291  0.85969855  0.92692818  1
  O  O256  1  0.53818160  0.37081376  0.42297824  1
  O  O257  1  0.57008830  0.37782987  0.91688346  1
  O  O258  1  0.56010146  0.86045610  0.40911096  1
  O  O259  1  0.55203858  0.84958341  0.91158102  1
  O  O260  1  0.89024085  0.34009168  0.41959301  1
  O  O261  1  0.89463788  0.37580006  0.91766534  1
  O  O262  1  0.89659529  0.86835948  0.41294556  1
  O  O263  1  0.87090304  0.87145170  0.92851948  1
  O  O264  1  0.05155729  0.37019630  0.42506875  1
  O  O265  1  0.05646804  0.38166429  0.91959946  1
  O  O266  1  0.06270916  0.88678731  0.41126604  1
  O  O267  1  0.05990025  0.88536254  0.93872541  1
  O  O268  1  0.37653718  0.40336363  0.40809230  1
  O  O269  1  0.40915235  0.39532917  0.92702050  1
  O  O270  1  0.39516568  0.88672586  0.40915488  1
  O  O271  1  0.39709646  0.87024078  0.91711982  1
  O  O272  1  0.72264288  0.39027579  0.43522936  1
  O  O273  1  0.73134292  0.37663851  0.91633832  1
  O  O274  1  0.72899459  0.87714429  0.41029425  1
  O  O275  1  0.70842286  0.89203292  0.91411814  1
  O  O276  1  0.21442293  0.13407560  0.41913560  1
  O  O277  1  0.21787659  0.14912597  0.91680375  1
  O  O278  1  0.22855128  0.65514809  0.41808150  1
  O  O279  1  0.23345439  0.62282983  0.91667566  1
  O  O280  1  0.56370766  0.12138226  0.41529164  1
  O  O281  1  0.57167191  0.13331485  0.92384324  1
  O  O282  1  0.54665628  0.64479122  0.40899380  1
  O  O283  1  0.56344179  0.63889565  0.91484454  1
  O  O284  1  0.89264887  0.12345697  0.41212240  1
  O  O285  1  0.89553143  0.12773117  0.91449608  1
  O  O286  1  0.88403057  0.66390262  0.41639236  1
  O  O287  1  0.89947289  0.61559786  0.91956673  1
  O  O288  1  0.17448154  -0.00522632  0.08319358  1
  O  O289  1  0.15800445  -0.01483489  0.57875248  1
  O  O290  1  0.17773002  0.50417105  0.08183135  1
  O  O291  1  0.13651091  0.50410377  0.57961674  1
  O  O292  1  0.53212587  -0.00486694  0.08285911  1
  O  O293  1  0.51188783  -0.01109064  0.57535950  1
  O  O294  1  0.52636158  0.50328688  0.08239018  1
  O  O295  1  0.50682858  0.51390913  0.57459551  1
  O  O296  1  0.85183706  0.00008916  0.08221385  1
  O  O297  1  0.83899098  0.00039040  0.58430033  1
  O  O298  1  0.85237359  0.49946122  0.08131689  1
  O  O299  1  0.84475242  0.50043899  0.59090864  1
  O  O300  1  0.01952002  0.25023635  0.08359700  1
  O  O301  1  -0.01595916  0.25002952  0.59099444  1
  O  O302  1  0.01169614  0.74938347  0.08450220  1
  O  O303  1  -0.01702524  0.75406812  0.59247208  1
  O  O304  1  0.34946605  0.26352995  0.07618565  1
  O  O305  1  0.31243448  0.24127973  0.58129311  1
  O  O306  1  0.35376410  0.75006253  0.08211486  1
  O  O307  1  0.34027200  0.75065228  0.58592122  1
  O  O308  1  0.68822185  0.25062241  0.08598436  1
  O  O309  1  0.69112628  0.25263166  0.58603898  1
  O  O310  1  0.69299084  0.74850412  0.08167990  1
  O  O311  1  0.68992957  0.75031944  0.58605431  1
  O  O312  1  0.16558250  -0.00228559  0.41131997  1
  O  O313  1  0.16216440  0.01704670  0.92875922  1
  O  O314  1  0.17756377  0.49917502  0.43073736  1
  O  O315  1  0.14686083  0.50123061  0.91927859  1
  O  O316  1  0.50740176  -0.00789812  0.40981190  1
  O  O317  1  0.50034047  -0.01646843  0.92282115  1
  O  O318  1  0.48998565  0.50758473  0.41053951  1
  O  O319  1  0.50566845  0.50730911  0.91578140  1
  O  O320  1  0.82281654  -0.00505720  0.41143317  1
  O  O321  1  0.80971613  0.00465719  0.91950199  1
  O  O322  1  0.85220261  0.50262353  0.43112706  1
  O  O323  1  0.81078517  0.49855916  0.91724755  1
  O  O324  1  0.36046196  0.25723497  0.41599916  1
  O  O325  1  0.33912221  0.24272801  0.92344916  1
  O  O326  1  0.33933910  0.75598400  0.40928693  1
  O  O327  1  0.32581640  0.74324855  0.91745023  1
  O  O328  1  0.65939323  0.23687783  0.41842413  1
  O  O329  1  0.65395384  0.25429236  0.91664336  1
  O  O330  1  0.65881120  0.74913779  0.41176804  1
  O  O331  1  0.66741338  0.75109204  0.91377097  1
  O  O332  1  0.99757136  0.23589604  0.41242474  1
  O  O333  1  0.97637241  0.25319526  0.91985048  1
  O  O334  1  1.00326816  0.75711838  0.41180935  1
  O  O335  1  0.97789456  0.73923238  0.92855668  1
  O  O336  1  0.20799710  0.07860073  0.19045893  1
  O  O337  1  0.20713068  0.08088501  0.70376376  1
  O  O338  1  0.21155242  0.58900369  0.19159868  1
  O  O339  1  0.21054905  0.58554957  0.70370604  1
  O  O340  1  0.54755396  0.07941757  0.19037749  1
  O  O341  1  0.54530648  0.08250989  0.70000578  1
  O  O342  1  0.54344899  0.58657701  0.19215212  1
  O  O343  1  0.54169842  0.58526345  0.69280982  1
  O  O344  1  0.87820694  0.07966533  0.19144048  1
  O  O345  1  0.87796434  0.07381708  0.69715942  1
  O  O346  1  0.87790206  0.58429401  0.19264415  1
  O  O347  1  0.87723408  0.58517004  0.69872864  1
  O  O348  1  0.03214996  0.33139608  0.19290046  1
  O  O349  1  0.04334366  0.33436393  0.69816835  1
  O  O350  1  0.04513321  0.83579745  0.19317059  1
  O  O351  1  0.03903257  0.83356425  0.69911250  1
  O  O352  1  0.37684720  0.33851420  0.19205407  1
  O  O353  1  0.38122004  0.33746203  0.69859861  1
  O  O354  1  0.37865019  0.83251997  0.19124421  1
  O  O355  1  0.37349000  0.83235930  0.69609890  1
  O  O356  1  0.71193199  0.34054978  0.19224081  1
  O  O357  1  0.71323952  0.33549723  0.69543242  1
  O  O358  1  0.71204737  0.83194871  0.19155147  1
  O  O359  1  0.71024570  0.83367961  0.69649270  1
  O  O360  1  0.21256258  0.42668495  0.19384863  1
  O  O361  1  0.20969096  0.41928718  0.70231298  1
  O  O362  1  0.21162311  0.91371857  0.19257789  1
  O  O363  1  0.20755079  0.91084071  0.69476791  1
  O  O364  1  0.54307761  0.42113135  0.19208482  1
  O  O365  1  0.54556555  0.41760164  0.69951766  1
  O  O366  1  0.54615846  0.91255860  0.19126069  1
  O  O367  1  0.54153888  0.91412060  0.69326448  1
  O  O368  1  0.87910619  0.42064430  0.19219662  1
  O  O369  1  0.88107846  0.42041818  0.70002191  1
  O  O370  1  0.87666988  0.91584186  0.19150398  1
  O  O371  1  0.87075037  0.91688488  0.69716727  1
  O  O372  1  0.04363222  0.16305567  0.19207816  1
  O  O373  1  0.04330946  0.16847589  0.69507826  1
  O  O374  1  0.04336972  0.66566831  0.19305160  1
  O  O375  1  0.03799817  0.66894632  0.69911610  1
  O  O376  1  0.38234375  0.16355330  0.19834425  1
  O  O377  1  0.37592278  0.16283388  0.69087753  1
  O  O378  1  0.37675434  0.66814816  0.19141104  1
  O  O379  1  0.37667119  0.66760552  0.69460958  1
  O  O380  1  0.71687322  0.15848744  0.19215543  1
  O  O381  1  0.70028362  0.16801550  0.69294598  1
  O  O382  1  0.70884782  0.66802591  0.19190244  1
  O  O383  1  0.71365307  0.67041131  0.69667640  1
  O  O384  1  0.12472800  0.07860502  0.30277178  1
  O  O385  1  0.12195436  0.08597074  0.81130271  1
  O  O386  1  0.12308645  0.58600234  0.29927063  1
  O  O387  1  0.12208117  0.58495750  0.80866505  1
  O  O388  1  0.46058646  0.07699145  0.30335514  1
  O  O389  1  0.45170853  0.08171812  0.79890058  1
  O  O390  1  0.45372788  0.58764445  0.30111078  1
  O  O391  1  0.45991625  0.58725120  0.80503048  1
  O  O392  1  0.79075629  0.07741171  0.30202498  1
  O  O393  1  0.78249143  0.07909746  0.80791346  1
  O  O394  1  0.78840897  0.58561067  0.29732131  1
  O  O395  1  0.79405013  0.58308753  0.80742052  1
  O  O396  1  0.30339029  0.33090663  0.30393356  1
  O  O397  1  0.28881371  0.33714848  0.80275822  1
  O  O398  1  0.29273883  0.83539140  0.30067614  1
  O  O399  1  0.28952007  0.82956275  0.80873109  1
  O  O400  1  0.61438992  0.34409101  0.30225509  1
  O  O401  1  0.62551502  0.33558754  0.80508692  1
  O  O402  1  0.62557457  0.83173343  0.30094516  1
  O  O403  1  0.62216226  0.83196500  0.80319894  1
  O  O404  1  0.96007679  0.32760197  0.30791488  1
  O  O405  1  0.95620523  0.33619264  0.80880185  1
  O  O406  1  0.95618835  0.83901205  0.30300925  1
  O  O407  1  0.95214671  0.83353911  0.80391197  1
  O  O408  1  0.11353037  0.42456311  0.30215641  1
  O  O409  1  0.12134310  0.41830067  0.81082850  1
  O  O410  1  0.12672528  0.91553028  0.30209826  1
  O  O411  1  0.12191916  0.91628904  0.80437498  1
  O  O412  1  0.45425167  0.42202623  0.30370364  1
  O  O413  1  0.46058277  0.42145149  0.80891168  1
  O  O414  1  0.45988504  0.91295863  0.29992558  1
  O  O415  1  0.45503309  0.91198328  0.80585149  1
  O  O416  1  0.78683654  0.42163528  0.30236853  1
  O  O417  1  0.79064733  0.41882114  0.80611071  1
  O  O418  1  0.79179170  0.91322434  0.30184310  1
  O  O419  1  0.78443226  0.91726695  0.80955500  1
  O  O420  1  0.28865659  0.16317496  0.29831671  1
  O  O421  1  0.28841194  0.16438519  0.80887182  1
  O  O422  1  0.29150329  0.67063753  0.30267196  1
  O  O423  1  0.29248673  0.66576063  0.80705307  1
  O  O424  1  0.62048113  0.15454327  0.30500435  1
  O  O425  1  0.62623269  0.16860483  0.80795966  1
  O  O426  1  0.62208485  0.66773985  0.30342766  1
  O  O427  1  0.62315891  0.66995320  0.80476882  1
  O  O428  1  0.95527926  0.15775997  0.30182349  1
  O  O429  1  0.96336836  0.17357183  0.80913367  1
  O  O430  1  0.95626808  0.66754334  0.30676300  1
  O  O431  1  0.95580713  0.66533807  0.81107676  1
  F  F432  1  0.04609217  -0.00262222  0.19929927  1
  F  F433  1  0.04191618  -0.00328960  0.70531045  1
  F  F434  1  0.04146508  0.50351416  0.19685047  1
  F  F435  1  0.04453982  0.50201997  0.70840748  1
  F  F436  1  0.38146836  -0.00365630  0.19785825  1
  F  F437  1  0.37579404  -0.00732357  0.70119002  1
  F  F438  1  0.37894793  0.50425637  0.19956195  1
  F  F439  1  0.38118031  0.50254579  0.70560237  1
  F  F440  1  0.71415525  -0.00431820  0.19809816  1
  F  F441  1  0.71102711  -0.00161704  0.70336961  1
  F  F442  1  0.70775301  0.50283830  0.19595276  1
  F  F443  1  0.71647619  0.49928970  0.70148538  1
  F  F444  1  0.21487929  0.24164788  0.19427725  1
  F  F445  1  0.20574861  0.24758028  0.70321074  1
  F  F446  1  0.21366778  0.75123596  0.19787109  1
  F  F447  1  0.21028188  0.75056544  0.70651145  1
  F  F448  1  0.53556947  0.24968516  0.19580999  1
  F  F449  1  0.54771563  0.25062504  0.70293344  1
  F  F450  1  0.54649346  0.74934599  0.19806537  1
  F  F451  1  0.54528649  0.75121679  0.70062142  1
  F  F452  1  0.88330804  0.23829117  0.19434239  1
  F  F453  1  0.88336925  0.26213607  0.70127568  1
  F  F454  1  0.87298985  0.74879419  0.19830290  1
  F  F455  1  0.87506772  0.74880379  0.70601251  1
  F  F456  1  0.29054923  -0.00329726  0.29329300  1
  F  F457  1  0.28636102  -0.00517266  0.80022417  1
  F  F458  1  0.28812428  0.50433013  0.29562736  1
  F  F459  1  0.29210205  0.50355630  0.80394837  1
  F  F460  1  0.62391512  -0.00545175  0.29319009  1
  F  F461  1  0.61858853  -0.00349077  0.79885548  1
  F  F462  1  0.61819566  0.50548374  0.29495498  1
  F  F463  1  0.62377088  0.50079909  0.80043251  1
  F  F464  1  0.95558115  -0.00271083  0.29403954  1
  F  F465  1  0.94755697  -0.00781688  0.80929377  1
  F  F466  1  0.95253846  0.50157558  0.29591482  1
  F  F467  1  0.95435479  0.50173176  0.80266888  1
  F  F468  1  0.11296997  0.23494660  0.29785949  1
  F  F469  1  0.12029163  0.25299434  0.80036415  1
  F  F470  1  0.12803151  0.75292210  0.29671358  1
  F  F471  1  0.12071662  0.74824418  0.80175954  1
  F  F472  1  0.45762893  0.24992600  0.29595339  1
  F  F473  1  0.46576338  0.25002908  0.80096510  1
  F  F474  1  0.45562076  0.75118342  0.29335333  1
  F  F475  1  0.45514771  0.74879903  0.79646711  1
  F  F476  1  0.80257996  0.24142080  0.30333310  1
  F  F477  1  0.78345233  0.26127713  0.80347064  1
  F  F478  1  0.78682944  0.75272855  0.29596339  1
  F  F479  1  0.78604534  0.75030126  0.80175899  1
