# generated using pymatgen
data_K24Na3Li5Mg64Fe17Si79(O5F)48
_symmetry_space_group_name_H-M   'P 1'
_cell_length_a   16.08375433
_cell_length_b   18.58012356
_cell_length_c   20.54741955
_cell_angle_alpha   89.98360477
_cell_angle_beta   100.01231009
_cell_angle_gamma   90.01986311
_symmetry_Int_Tables_number   1
_chemical_formula_structural   K24Na3Li5Mg64Fe17Si79(O5F)48
_chemical_formula_sum   'K24 Na3 Li5 Mg64 Fe17 Si79 O240 F48'
_cell_volume   6046.83719265
_cell_formula_units_Z   1
loop_
 _symmetry_equiv_pos_site_id
 _symmetry_equiv_pos_as_xyz
  1  'x, y, z'
loop_
 _atom_site_type_symbol
 _atom_site_label
 _atom_site_symmetry_multiplicity
 _atom_site_fract_x
 _atom_site_fract_y
 _atom_site_fract_z
 _atom_site_occupancy
  K  K0  1  -0.00463244  -0.00324432  -0.00506127  1
  K  K1  1  0.01278040  -0.01028880  0.50874432  1
  K  K2  1  -0.00447516  0.50758818  -0.00400349  1
  K  K3  1  0.00381387  0.50310820  0.50388745  1
  K  K4  1  0.33064103  0.00668053  -0.00538318  1
  K  K5  1  0.33760820  -0.00939264  0.50445376  1
  K  K6  1  0.33591086  0.50459226  -0.00504431  1
  K  K7  1  0.33940801  0.50772843  0.51206476  1
  K  K8  1  0.66254270  -0.00816890  0.00510566  1
  K  K9  1  0.65575436  0.00204759  0.49412554  1
  K  K10  1  0.65930440  0.49979466  -0.00451748  1
  K  K11  1  0.66569354  0.50480977  0.49945989  1
  K  K12  1  0.17515509  0.24188789  -0.01080220  1
  K  K13  1  0.16480282  0.24683513  0.51234601  1
  K  K14  1  0.17031602  0.75648592  -0.00502431  1
  K  K15  1  0.16676452  0.76088415  0.50429337  1
  K  K16  1  0.49595317  0.24501381  -0.00495808  1
  K  K17  1  0.50135113  0.23979038  0.50056863  1
  K  K18  1  0.49320478  0.75342210  0.00129801  1
  K  K19  1  0.50190466  0.75559427  0.50232620  1
  K  K20  1  0.82572324  0.25000324  -0.00053757  1
  K  K21  1  0.83058904  0.24393556  0.49993964  1
  K  K22  1  0.84060594  0.75484874  0.00091805  1
  K  K23  1  0.83706803  0.75529419  0.50049832  1
  Na  Na24  1  0.50274175  0.50359151  0.75690095  1
  Na  Na25  1  0.16759375  0.83199171  0.74955592  1
  Na  Na26  1  0.16981946  0.82539240  0.24850436  1
  Li  Li27  1  0.00457232  0.75223646  0.25168798  1
  Li  Li28  1  0.33627967  0.75363882  0.25140427  1
  Li  Li29  1  0.33326817  0.08153433  0.75328641  1
  Li  Li30  1  0.50357444  0.66419767  0.76004155  1
  Li  Li31  1  0.49383753  0.83068481  0.25190833  1
  Mg  Mg32  1  0.16505911  0.50186469  0.25218250  1
  Mg  Mg33  1  0.33345586  0.24892278  0.75064090  1
  Mg  Mg34  1  0.66472307  0.75093114  0.24811201  1
  Mg  Mg35  1  0.33739950  0.74962629  0.74909751  1
  Mg  Mg36  1  0.83258667  -0.00385203  0.24806686  1
  Mg  Mg37  1  -0.00138147  0.75121088  0.74795487  1
  Mg  Mg38  1  0.00099628  0.24852019  0.74523154  1
  Mg  Mg39  1  0.49965012  -0.00232406  0.25285954  1
  Mg  Mg40  1  0.83217713  0.49974275  0.74917126  1
  Mg  Mg41  1  0.49876739  0.50234081  0.25164280  1
  Mg  Mg42  1  0.66062438  0.74964083  0.75112573  1
  Mg  Mg43  1  0.66641821  0.25046045  0.74986364  1
  Mg  Mg44  1  0.66670800  0.24829390  0.24830582  1
  Mg  Mg45  1  0.16714245  0.49943748  0.74574356  1
  Mg  Mg46  1  0.16957100  -0.00263160  0.24933040  1
  Mg  Mg47  1  0.49666497  0.00040718  0.75277112  1
  Mg  Mg48  1  0.83211235  -0.00010692  0.74893782  1
  Mg  Mg49  1  -0.00048054  0.24865361  0.24939202  1
  Mg  Mg50  1  0.33491534  0.24973399  0.25399711  1
  Mg  Mg51  1  0.83268919  0.50195398  0.25055106  1
  Mg  Mg52  1  0.17000253  -0.00111631  0.74904635  1
  Mg  Mg53  1  0.33478455  0.91856346  0.74892152  1
  Mg  Mg54  1  0.50139268  0.33482257  0.25342926  1
  Mg  Mg55  1  0.83054476  0.33381020  0.24771259  1
  Mg  Mg56  1  0.33643940  0.91109912  0.25340737  1
  Mg  Mg57  1  0.16561155  0.66952981  0.25143682  1
  Mg  Mg58  1  0.16840272  0.66669014  0.74845825  1
  Mg  Mg59  1  0.00082758  0.08165060  0.24873565  1
  Mg  Mg60  1  0.83077338  0.16318484  0.24780574  1
  Mg  Mg61  1  0.83518102  0.33323014  0.74662349  1
  Mg  Mg62  1  0.00048761  0.91394394  0.74665217  1
  Mg  Mg63  1  -0.00056907  0.58435886  0.74786230  1
  Mg  Mg64  1  0.33283330  0.41810817  0.25299287  1
  Mg  Mg65  1  0.83568955  0.16600583  0.74849597  1
  Mg  Mg66  1  0.66747434  0.58478863  0.25213482  1
  Mg  Mg67  1  -0.00011541  0.41450361  0.74515255  1
  Mg  Mg68  1  0.50085284  0.83231946  0.75041076  1
  Mg  Mg69  1  0.66347349  0.08282958  0.25001666  1
  Mg  Mg70  1  0.17027336  0.16339572  0.74721678  1
  Mg  Mg71  1  0.66100287  0.91188657  0.24594606  1
  Mg  Mg72  1  0.16875047  0.16527498  0.25198768  1
  Mg  Mg73  1  0.66546248  0.91557477  0.75284091  1
  Mg  Mg74  1  0.33974362  0.58448367  0.75377170  1
  Mg  Mg75  1  0.83128960  0.66650055  0.75202477  1
  Mg  Mg76  1  0.83290440  0.83481920  0.74875907  1
  Mg  Mg77  1  -0.00037684  0.58853486  0.25248065  1
  Mg  Mg78  1  0.49731375  0.16552742  0.75182680  1
  Mg  Mg79  1  0.66695568  0.41666482  0.75100587  1
  Mg  Mg80  1  0.50305038  0.16283987  0.25345378  1
  Mg  Mg81  1  0.00200814  0.08371449  0.74872608  1
  Mg  Mg82  1  0.66596004  0.08422872  0.75006253  1
  Mg  Mg83  1  0.33706786  0.08297815  0.25324997  1
  Mg  Mg84  1  0.16614296  0.33290620  0.74707320  1
  Mg  Mg85  1  0.83431840  0.83086712  0.24631714  1
  Mg  Mg86  1  0.16676933  0.33474262  0.25223193  1
  Mg  Mg87  1  0.00270747  0.91300106  0.24768218  1
  Mg  Mg88  1  0.66467166  0.58483446  0.75393498  1
  Mg  Mg89  1  -0.00173753  0.41647406  0.24930201  1
  Mg  Mg90  1  0.33059677  0.58829521  0.25193052  1
  Mg  Mg91  1  0.83417236  0.66666603  0.25117755  1
  Mg  Mg92  1  0.33590573  0.41704634  0.75137884  1
  Mg  Mg93  1  0.50080748  0.33552366  0.75163026  1
  Mg  Mg94  1  0.49707873  0.67117561  0.25248949  1
  Mg  Mg95  1  0.66724347  0.41501929  0.25092199  1
  Fe  Fe96  1  0.96945819  0.83369584  0.88890800  1
  Fe  Fe97  1  0.47492355  0.91810388  0.89207713  1
  Fe  Fe98  1  0.19756665  0.91769087  0.60450048  1
  Fe  Fe99  1  0.31058354  0.16521152  0.88683598  1
  Fe  Fe100  1  0.64373346  0.16983884  0.39319421  1
  Fe  Fe101  1  0.68902832  0.83126563  0.10728011  1
  Fe  Fe102  1  0.64457359  0.83415337  0.89185232  1
  Fe  Fe103  1  0.64544501  0.66631868  0.89398997  1
  Fe  Fe104  1  0.51984475  0.08193122  0.11039019  1
  Fe  Fe105  1  0.81338694  0.58598534  0.39199209  1
  Fe  Fe106  1  0.02257218  0.33476894  0.60489767  1
  Fe  Fe107  1  0.30643658  0.83464515  0.88966186  1
  Fe  Fe108  1  0.46954594  0.08012719  0.39638499  1
  Fe  Fe109  1  0.97622075  0.16760932  0.88709781  1
  Fe  Fe110  1  0.69023343  0.33491358  0.10881704  1
  Fe  Fe111  1  0.47509973  0.41630121  0.89279122  1
  Fe  Fe112  1  0.01912414  0.83043104  0.60316502  1
  Si  Si113  1  0.02146342  0.16234909  0.60767818  1
  Si  Si114  1  0.64393607  0.16728079  0.88350298  1
  Si  Si115  1  0.97832395  0.67243048  0.38822859  1
  Si  Si116  1  0.02650456  0.66968093  0.11567485  1
  Si  Si117  1  0.19818118  0.41769470  0.61022198  1
  Si  Si118  1  0.02245054  0.65814104  0.60994099  1
  Si  Si119  1  0.85351616  0.08235295  0.61171999  1
  Si  Si120  1  0.64355561  0.83187206  0.38494694  1
  Si  Si121  1  0.35613059  0.82996950  0.11795699  1
  Si  Si122  1  0.86548661  0.41875114  0.11167262  1
  Si  Si123  1  0.18929733  0.58457270  0.11612147  1
  Si  Si124  1  0.53056166  0.58258629  0.61526106  1
  Si  Si125  1  0.51509310  0.91517488  0.11409334  1
  Si  Si126  1  0.30172167  0.66481453  0.38798472  1
  Si  Si127  1  0.19294820  0.08726448  0.60929973  1
  Si  Si128  1  0.69445133  0.16132387  0.10909154  1
  Si  Si129  1  0.30634485  0.66385736  0.88867495  1
  Si  Si130  1  0.36444251  0.66407437  0.61634750  1
  Si  Si131  1  0.97526291  0.66201821  0.88583405  1
  Si  Si132  1  0.48451449  0.08555013  0.88886609  1
  Si  Si133  1  0.36133119  0.17152892  0.61402613  1
  Si  Si134  1  0.30052356  0.17069060  0.39043662  1
  Si  Si135  1  0.53042231  0.41697508  0.61400119  1
  Si  Si136  1  0.19694196  0.91848421  0.11484487  1
  Si  Si137  1  0.30827829  0.82994001  0.38697154  1
  Si  Si138  1  0.97358214  0.32796715  0.38377281  1
  Si  Si139  1  0.86179433  0.58483200  0.11473730  1
  Si  Si140  1  0.47353796  0.42124932  0.38850872  1
  Si  Si141  1  0.19214860  0.42006355  0.11687705  1
  Si  Si142  1  0.19673992  0.58418803  0.61428824  1
  Si  Si143  1  0.51890772  0.41902078  0.11599243  1
  Si  Si144  1  0.03050253  0.33297863  0.11522944  1
  Si  Si145  1  0.80652606  0.08727641  0.88480432  1
  Si  Si146  1  0.13722014  0.41867856  0.88145902  1
  Si  Si147  1  0.47252177  0.58802379  0.89350625  1
  Si  Si148  1  0.13859546  0.58269523  0.38779133  1
  Si  Si149  1  0.81443613  0.41663253  0.38719404  1
  Si  Si150  1  0.63855157  0.66618174  0.38883567  1
  Si  Si151  1  0.69011904  0.33202401  0.61273149  1
  Si  Si152  1  0.36659428  0.82893262  0.60968319  1
  Si  Si153  1  0.52371552  0.08351293  0.61496357  1
  Si  Si154  1  0.36454151  0.33507104  0.61325604  1
  Si  Si155  1  0.81053786  0.57636238  0.88698409  1
  Si  Si156  1  0.81181711  0.41209197  0.88283337  1
  Si  Si157  1  0.14135627  0.07941598  0.88663885  1
  Si  Si158  1  0.80372717  0.92415486  0.88629854  1
  Si  Si159  1  0.35567211  0.66633010  0.11757823  1
  Si  Si160  1  0.86424593  0.91656617  0.10993427  1
  Si  Si161  1  0.46959465  0.58752693  0.38778770  1
  Si  Si162  1  0.64673047  0.33069193  0.88679133  1
  Si  Si163  1  0.14462329  0.92024566  0.38410645  1
  Si  Si164  1  0.13922215  0.08382499  0.38487699  1
  Si  Si165  1  0.13700696  0.41685042  0.38679670  1
  Si  Si166  1  0.68785639  0.65877628  0.11333814  1
  Si  Si167  1  0.86432198  0.08324121  0.11345350  1
  Si  Si168  1  0.14044692  0.58112576  0.88193950  1
  Si  Si169  1  0.51901325  0.58317164  0.11803000  1
  Si  Si170  1  0.85315318  0.58291269  0.61453452  1
  Si  Si171  1  0.85185533  0.41907450  0.60987942  1
  Si  Si172  1  0.81002726  0.07836799  0.38648615  1
  Si  Si173  1  0.69099410  0.66891993  0.61417663  1
  Si  Si174  1  0.64371168  0.34160860  0.39011427  1
  Si  Si175  1  0.35560146  0.17336945  0.11615485  1
  Si  Si176  1  0.69029554  0.16679728  0.61402297  1
  Si  Si177  1  0.30630109  0.33741208  0.38825505  1
  Si  Si178  1  0.52780374  0.91830971  0.61459457  1
  Si  Si179  1  0.03001962  0.16709185  0.11515724  1
  Si  Si180  1  0.30240444  0.33684659  0.88785153  1
  Si  Si181  1  0.97792139  0.33500583  0.88416562  1
  Si  Si182  1  0.35492223  0.33664271  0.11876206  1
  Si  Si183  1  0.85078763  0.91885671  0.60832488  1
  Si  Si184  1  0.02995110  0.83530595  0.11484339  1
  Si  Si185  1  0.19506115  0.08331258  0.11554880  1
  Si  Si186  1  0.81172757  0.91274306  0.38411266  1
  Si  Si187  1  0.97359203  0.16254024  0.38322432  1
  Si  Si188  1  0.47492839  0.91020447  0.39131598  1
  Si  Si189  1  0.69025605  0.83440615  0.61402474  1
  Si  Si190  1  0.97922803  0.83670190  0.38267217  1
  Si  Si191  1  0.13448045  0.91911988  0.88556145  1
  O  O192  1  0.27202927  0.12312149  0.08711809  1
  O  O193  1  0.26745211  0.13922841  0.58469964  1
  O  O194  1  0.27107776  0.61655457  0.08740715  1
  O  O195  1  0.27136217  0.62740294  0.58389627  1
  O  O196  1  0.62013639  0.10608867  0.07926626  1
  O  O197  1  0.60326339  0.12192008  0.58598804  1
  O  O198  1  0.60411391  0.60589074  0.08924570  1
  O  O199  1  0.60495870  0.62369526  0.58089469  1
  O  O200  1  0.94466263  0.12181583  0.08633668  1
  O  O201  1  0.93547340  0.11220435  0.58164759  1
  O  O202  1  0.93546773  0.63004851  0.08486366  1
  O  O203  1  0.93843311  0.60493045  0.58543374  1
  O  O204  1  0.11161058  0.36800109  0.08750015  1
  O  O205  1  0.11409931  0.37796931  0.57178470  1
  O  O206  1  0.11034684  0.87237946  0.08665225  1
  O  O207  1  0.10088305  0.87131582  0.56192882  1
  O  O208  1  0.43627670  0.36657824  0.08955403  1
  O  O209  1  0.44017561  0.37744445  0.58330830  1
  O  O210  1  0.43918709  0.85537945  0.08849548  1
  O  O211  1  0.44573473  0.87043876  0.58193674  1
  O  O212  1  0.78299511  0.37668471  0.07571923  1
  O  O213  1  0.76782141  0.36859556  0.58231855  1
  O  O214  1  0.78226950  0.87300609  0.07525482  1
  O  O215  1  0.76508803  0.87063789  0.58018626  1
  O  O216  1  0.27538878  0.39041532  0.08965323  1
  O  O217  1  0.27816106  0.37906119  0.58200030  1
  O  O218  1  0.27328338  0.87962435  0.08420897  1
  O  O219  1  0.28241852  0.86578261  0.56957515  1
  O  O220  1  0.59559038  0.39428408  0.08055290  1
  O  O221  1  0.60413009  0.37607940  0.58041378  1
  O  O222  1  0.59611986  0.89108018  0.08140203  1
  O  O223  1  0.60580021  0.88157609  0.58345304  1
  O  O224  1  0.94843073  0.38164161  0.08567766  1
  O  O225  1  0.92730699  0.39342505  0.57302126  1
  O  O226  1  0.94657072  0.88273677  0.08160360  1
  O  O227  1  0.92245381  0.88843325  0.57012485  1
  O  O228  1  0.10899683  0.13038266  0.08689436  1
  O  O229  1  0.10109295  0.12730933  0.57744452  1
  O  O230  1  0.10246141  0.62796229  0.08438721  1
  O  O231  1  0.10323538  0.61777605  0.58334784  1
  O  O232  1  0.43440338  0.15232624  0.08219249  1
  O  O233  1  0.43616082  0.12691333  0.58393582  1
  O  O234  1  0.43732478  0.63389196  0.08726833  1
  O  O235  1  0.43681491  0.61726726  0.58495043  1
  O  O236  1  0.78223148  0.13148306  0.08389608  1
  O  O237  1  0.77031208  0.13370906  0.58357313  1
  O  O238  1  0.76821368  0.61775086  0.08690788  1
  O  O239  1  0.77270983  0.63554080  0.58457945  1
  O  O240  1  0.05502281  0.11213438  0.41254213  1
  O  O241  1  0.05660193  0.09781472  0.91804883  1
  O  O242  1  0.06379920  0.62335754  0.41757758  1
  O  O243  1  0.05616567  0.60659588  0.91084692  1
  O  O244  1  0.37583336  0.12280219  0.42848283  1
  O  O245  1  0.40567770  0.11079666  0.92329785  1
  O  O246  1  0.39148801  0.62332029  0.41869559  1
  O  O247  1  0.38165149  0.60719719  0.91979417  1
  O  O248  1  0.73814937  0.10953328  0.42401473  1
  O  O249  1  0.71747347  0.10815632  0.91076685  1
  O  O250  1  0.71547742  0.61604073  0.42453112  1
  O  O251  1  0.73345845  0.59665573  0.92334352  1
  O  O252  1  0.22749753  0.37702662  0.41614007  1
  O  O253  1  0.21131705  0.36223285  0.91169946  1
  O  O254  1  0.23042003  0.87417583  0.41410427  1
  O  O255  1  0.20195128  0.85704849  0.91402341  1
  O  O256  1  0.56288596  0.38147567  0.41796239  1
  O  O257  1  0.57041281  0.35461656  0.92311533  1
  O  O258  1  0.56592771  0.86688796  0.41701165  1
  O  O259  1  0.55000356  0.84783115  0.92866421  1
  O  O260  1  0.89026971  0.35573928  0.41215357  1
  O  O261  1  0.89201003  0.35987765  0.91259840  1
  O  O262  1  0.89732444  0.86616627  0.41421781  1
  O  O263  1  0.87403425  0.86712570  0.92124235  1
  O  O264  1  0.05898143  0.37525597  0.41358575  1
  O  O265  1  0.04984051  0.39804217  0.90895126  1
  O  O266  1  0.06228844  0.88720850  0.41222971  1
  O  O267  1  0.05142335  0.90282585  0.91949151  1
  O  O268  1  0.39437119  0.38146686  0.41675724  1
  O  O269  1  0.37249074  0.39466844  0.92180054  1
  O  O270  1  0.40102780  0.86301030  0.42139709  1
  O  O271  1  0.38220003  0.90106389  0.93149566  1
  O  O272  1  0.72711169  0.39371244  0.41426633  1
  O  O273  1  0.73072103  0.38197454  0.91303981  1
  O  O274  1  0.73214862  0.87691342  0.41451902  1
  O  O275  1  0.71608079  0.91452415  0.91329265  1
  O  O276  1  0.21189179  0.14315830  0.41354850  1
  O  O277  1  0.21576382  0.13330638  0.92111731  1
  O  O278  1  0.22930278  0.61966847  0.41991149  1
  O  O279  1  0.21988082  0.63135567  0.91407788  1
  O  O280  1  0.56053340  0.13503279  0.43621429  1
  O  O281  1  0.55949404  0.14845871  0.91323895  1
  O  O282  1  0.55355266  0.63491359  0.41674391  1
  O  O283  1  0.54462120  0.64530571  0.92645239  1
  O  O284  1  0.89509224  0.12866711  0.41318210  1
  O  O285  1  0.87521599  0.14603824  0.91851180  1
  O  O286  1  0.90356686  0.64727224  0.42700136  1
  O  O287  1  0.89642046  0.62384708  0.91534911  1
  O  O288  1  0.18277514  0.00189094  0.08456410  1
  O  O289  1  0.19503114  0.01303895  0.56895040  1
  O  O290  1  0.17264535  0.50122227  0.08692423  1
  O  O291  1  0.19755631  0.50200719  0.58338255  1
  O  O292  1  0.47828790  -0.00832514  0.08212216  1
  O  O293  1  0.51541152  0.00141481  0.58459738  1
  O  O294  1  0.48990687  0.50155300  0.09200787  1
  O  O295  1  0.52493308  0.49939683  0.58358195  1
  O  O296  1  0.85759690  0.00175182  0.08349428  1
  O  O297  1  0.82772777  0.00248013  0.58129466  1
  O  O298  1  0.86595582  0.50266192  0.08515398  1
  O  O299  1  0.82380908  0.50219556  0.58621263  1
  O  O300  1  0.01815333  0.25027996  0.08697566  1
  O  O301  1  0.00193817  0.24011860  0.57157027  1
  O  O302  1  0.02068169  0.75176041  0.08536330  1
  O  O303  1  0.00284795  0.73307101  0.57153836  1
  O  O304  1  0.32605218  0.25650005  0.09148878  1
  O  O305  1  0.36031829  0.25368939  0.58074931  1
  O  O306  1  0.33518269  0.74728425  0.08826679  1
  O  O307  1  0.36838700  0.74413489  0.58295356  1
  O  O308  1  0.67682202  0.24079105  0.07602821  1
  O  O309  1  0.67680465  0.24918234  0.58438833  1
  O  O310  1  0.67014558  0.73517187  0.07739301  1
  O  O311  1  0.67651865  0.75141828  0.58450163  1
  O  O312  1  0.16172197  0.00305699  0.41463626  1
  O  O313  1  0.17259680  -0.00153212  0.91355117  1
  O  O314  1  0.14225344  0.49873160  0.41655458  1
  O  O315  1  0.16285577  0.49928526  0.91162163  1
  O  O316  1  0.48317113  -0.01435136  0.43149892  1
  O  O317  1  0.52221744  0.00952884  0.91868021  1
  O  O318  1  0.47994883  0.50409077  0.41791946  1
  O  O319  1  0.50189311  0.50915611  0.92577395  1
  O  O320  1  0.83075748  -0.00503742  0.41300567  1
  O  O321  1  0.83807538  0.00673473  0.91049635  1
  O  O322  1  0.84714640  0.49155884  0.42179458  1
  O  O323  1  0.83900417  0.49254063  0.91087897  1
  O  O324  1  0.31326175  0.25557894  0.41736143  1
  O  O325  1  0.32580535  0.25952680  0.92244377  1
  O  O326  1  0.30531398  0.74699629  0.41756981  1
  O  O327  1  0.32653547  0.73988981  0.92527068  1
  O  O328  1  0.66333147  0.26584400  0.42707219  1
  O  O329  1  0.67750450  0.24777889  0.91013491  1
  O  O330  1  0.65490023  0.74962444  0.41654229  1
  O  O331  1  0.69633781  0.75090982  0.92677678  1
  O  O332  1  0.99299762  0.24527757  0.41097683  1
  O  O333  1  1.01184900  0.26075075  0.91963144  1
  O  O334  1  1.00322835  0.75593538  0.41186175  1
  O  O335  1  0.99652890  0.73846330  0.92174163  1
  O  O336  1  0.21110586  0.08535061  0.19635892  1
  O  O337  1  0.20202537  0.08416930  0.68855816  1
  O  O338  1  0.20734032  0.58021703  0.19637476  1
  O  O339  1  0.21061439  0.58251477  0.69425941  1
  O  O340  1  0.54345819  0.08218548  0.20213255  1
  O  O341  1  0.54335263  0.08571206  0.69478636  1
  O  O342  1  0.53996054  0.58371979  0.19880880  1
  O  O343  1  0.55299616  0.58407317  0.69312867  1
  O  O344  1  0.87972142  0.08293232  0.19429622  1
  O  O345  1  0.87228939  0.08337066  0.69176676  1
  O  O346  1  0.88037399  0.58281684  0.19514454  1
  O  O347  1  0.87346267  0.58309906  0.69496066  1
  O  O348  1  0.04600766  0.33304247  0.19603770  1
  O  O349  1  0.04354944  0.33350599  0.69645121  1
  O  O350  1  0.03841676  0.83494115  0.19311069  1
  O  O351  1  0.03291132  0.83108548  0.69305343  1
  O  O352  1  0.37399927  0.33656026  0.19970714  1
  O  O353  1  0.37789048  0.33352142  0.69298381  1
  O  O354  1  0.37194666  0.83332095  0.19674513  1
  O  O355  1  0.37977792  0.83147247  0.68931566  1
  O  O356  1  0.71060425  0.33339737  0.20150808  1
  O  O357  1  0.70959417  0.33292373  0.69302034  1
  O  O358  1  0.71255697  0.83181757  0.19930468  1
  O  O359  1  0.71138628  0.83518604  0.69373094  1
  O  O360  1  0.20833251  0.41778242  0.19766224  1
  O  O361  1  0.20995320  0.41560373  0.69082851  1
  O  O362  1  0.21628278  0.92396290  0.19403303  1
  O  O363  1  0.21603538  0.92424771  0.69388579  1
  O  O364  1  0.53952883  0.41718967  0.19741866  1
  O  O365  1  0.55092449  0.41014327  0.69285973  1
  O  O366  1  0.53977661  0.91818139  0.19499023  1
  O  O367  1  0.54593838  0.92062955  0.69388729  1
  O  O368  1  0.87917394  0.41627154  0.19298151  1
  O  O369  1  0.87419095  0.41621977  0.69088346  1
  O  O370  1  0.87864529  0.91742971  0.19108962  1
  O  O371  1  0.86989781  0.91884822  0.68899301  1
  O  O372  1  0.04627688  0.16770826  0.19589816  1
  O  O373  1  0.04183301  0.16549894  0.68827509  1
  O  O374  1  0.04518065  0.66216042  0.19484470  1
  O  O375  1  0.04098520  0.66204782  0.69065738  1
  O  O376  1  0.37288967  0.17041317  0.19730870  1
  O  O377  1  0.38285029  0.17438991  0.69284101  1
  O  O378  1  0.37738231  0.66080143  0.19684283  1
  O  O379  1  0.37678686  0.66328783  0.69521251  1
  O  O380  1  0.71297623  0.16468670  0.19113177  1
  O  O381  1  0.70968384  0.16743179  0.69416740  1
  O  O382  1  0.70792502  0.66336002  0.19427650  1
  O  O383  1  0.71097546  0.66596155  0.69387896  1
  O  O384  1  0.12266151  0.08462059  0.30416869  1
  O  O385  1  0.12300790  0.08453365  0.80481372  1
  O  O386  1  0.12224037  0.58021256  0.30743936  1
  O  O387  1  0.12212431  0.58006585  0.80143082  1
  O  O388  1  0.45377605  0.08508638  0.30432855  1
  O  O389  1  0.46487731  0.08589906  0.80794371  1
  O  O390  1  0.45306367  0.58276861  0.30777607  1
  O  O391  1  0.45144069  0.58865452  0.81376216  1
  O  O392  1  0.79213832  0.08123642  0.30521586  1
  O  O393  1  0.78933635  0.08698176  0.80329145  1
  O  O394  1  0.78907778  0.58272293  0.30000406  1
  O  O395  1  0.79280793  0.58089028  0.80575841  1
  O  O396  1  0.28855840  0.33651418  0.30757159  1
  O  O397  1  0.28636712  0.33517322  0.80581140  1
  O  O398  1  0.29720447  0.83300937  0.30887148  1
  O  O399  1  0.30260260  0.83183810  0.80032606  1
  O  O400  1  0.62170054  0.33766736  0.30927700  1
  O  O401  1  0.62685155  0.33287224  0.80557396  1
  O  O402  1  0.62691675  0.83154157  0.30569222  1
  O  O403  1  0.62283479  0.83398529  0.79921468  1
  O  O404  1  0.95767325  0.33169338  0.30308105  1
  O  O405  1  0.95653019  0.33361874  0.80305816  1
  O  O406  1  0.95530795  0.83854551  0.30330180  1
  O  O407  1  0.95091895  0.83268234  0.79725549  1
  O  O408  1  0.12178943  0.41580038  0.30614889  1
  O  O409  1  0.12175596  0.41843343  0.80094645  1
  O  O410  1  0.12170954  0.92433610  0.30496963  1
  O  O411  1  0.11440869  0.92506098  0.80539440  1
  O  O412  1  0.45471830  0.41933104  0.30800094  1
  O  O413  1  0.45194244  0.40845786  0.80249528  1
  O  O414  1  0.45522633  0.91874685  0.31176321  1
  O  O415  1  0.45736770  0.91674310  0.79923215  1
  O  O416  1  0.79525348  0.41667418  0.30602956  1
  O  O417  1  0.79316848  0.41286701  0.80208563  1
  O  O418  1  0.79308832  0.91467005  0.30394791  1
  O  O419  1  0.79021345  0.91986319  0.80431984  1
  O  O420  1  0.28789601  0.17017110  0.30914338  1
  O  O421  1  0.28787198  0.16891472  0.79621580  1
  O  O422  1  0.28378063  0.65923328  0.30897760  1
  O  O423  1  0.28847364  0.66430413  0.80763390  1
  O  O424  1  0.62592231  0.16932005  0.30069055  1
  O  O425  1  0.62514431  0.16805027  0.80258367  1
  O  O426  1  0.62253368  0.66440552  0.30813713  1
  O  O427  1  0.62749345  0.66639687  0.80256740  1
  O  O428  1  0.95699319  0.16473675  0.30253838  1
  O  O429  1  0.95545643  0.16820832  0.79489826  1
  O  O430  1  0.95443889  0.66256162  0.30874393  1
  O  O431  1  0.95480661  0.66322652  0.80463978  1
  F  F432  1  0.04711054  0.00247172  0.19946452  1
  F  F433  1  0.04279237  0.00163802  0.69856190  1
  F  F434  1  0.04588818  0.49874732  0.20263345  1
  F  F435  1  0.04379208  0.49983803  0.69768042  1
  F  F436  1  0.37630594  -0.00089916  0.20570135  1
  F  F437  1  0.38246678  0.00213304  0.69845002  1
  F  F438  1  0.37518241  0.50027719  0.20519693  1
  F  F439  1  0.36662841  0.50044494  0.69791042  1
  F  F440  1  0.71323990  -0.00050444  0.20281639  1
  F  F441  1  0.71072470  0.00223486  0.70068054  1
  F  F442  1  0.71043601  0.49758380  0.20242815  1
  F  F443  1  0.71351688  0.49835180  0.70056124  1
  F  F444  1  0.21173038  0.25206906  0.20512351  1
  F  F445  1  0.21180072  0.25361919  0.69652749  1
  F  F446  1  0.21268597  0.73358383  0.19393929  1
  F  F447  1  0.21817438  0.73741611  0.69607322  1
  F  F448  1  0.54195337  0.25377620  0.20442509  1
  F  F449  1  0.54654735  0.25070851  0.70176781  1
  F  F450  1  0.54712622  0.74306995  0.20103607  1
  F  F451  1  0.54898996  0.75884392  0.69246325  1
  F  F452  1  0.88072721  0.24924623  0.20046044  1
  F  F453  1  0.87554810  0.25181781  0.69575680  1
  F  F454  1  0.87498700  0.74652139  0.20105846  1
  F  F455  1  0.87421910  0.74530703  0.69909162  1
  F  F456  1  0.28672371  0.00288380  0.30137719  1
  F  F457  1  0.28824244  0.00046715  0.79807876  1
  F  F458  1  0.28593233  0.49892937  0.30150234  1
  F  F459  1  0.28401434  0.49899274  0.79698563  1
  F  F460  1  0.62510844  -0.00400462  0.30003458  1
  F  F461  1  0.62197431  0.00294739  0.79529576  1
  F  F462  1  0.61990770  0.49929342  0.29910743  1
  F  F463  1  0.63921743  0.49690251  0.80378925  1
  F  F464  1  0.95519395  -0.00007804  0.29537176  1
  F  F465  1  0.95136390  0.00115060  0.79228942  1
  F  F466  1  0.95643878  0.49822084  0.29765217  1
  F  F467  1  0.95472726  0.49812458  0.79343145  1
  F  F468  1  0.12073693  0.25083388  0.29948676  1
  F  F469  1  0.12172922  0.24822979  0.79342089  1
  F  F470  1  0.11931724  0.73794383  0.30622585  1
  F  F471  1  0.11384140  0.73593343  0.79873060  1
  F  F472  1  0.45354849  0.25383761  0.30194223  1
  F  F473  1  0.45625175  0.25114351  0.79789478  1
  F  F474  1  0.45644463  0.74449969  0.30459644  1
  F  F475  1  0.45628760  0.75068314  0.79477906  1
  F  F476  1  0.79244543  0.24735399  0.29740906  1
  F  F477  1  0.78904051  0.25116799  0.79412582  1
  F  F478  1  0.78800318  0.74787451  0.29944358  1
  F  F479  1  0.78742894  0.75047050  0.79518586  1
