# generated using pymatgen
data_K24Na3Li5Mg64Fe17Si79(O5F)48
_symmetry_space_group_name_H-M   'P 1'
_cell_length_a   16.11220595
_cell_length_b   18.61060219
_cell_length_c   20.57232144
_cell_angle_alpha   89.98831596
_cell_angle_beta   100.01794006
_cell_angle_gamma   90.02189381
_symmetry_Int_Tables_number   1
_chemical_formula_structural   K24Na3Li5Mg64Fe17Si79(O5F)48
_chemical_formula_sum   'K24 Na3 Li5 Mg64 Fe17 Si79 O240 F48'
_cell_volume   6074.71847127
_cell_formula_units_Z   1
loop_
 _symmetry_equiv_pos_site_id
 _symmetry_equiv_pos_as_xyz
  1  'x, y, z'
loop_
 _atom_site_type_symbol
 _atom_site_label
 _atom_site_symmetry_multiplicity
 _atom_site_fract_x
 _atom_site_fract_y
 _atom_site_fract_z
 _atom_site_occupancy
  K  K0  1  0.00701654  0.00240390  0.00962086  1
  K  K1  1  0.01354442  0.01187174  0.49663836  1
  K  K2  1  0.00616853  0.48152724  0.00237543  1
  K  K3  1  0.00005948  0.49226326  0.49900603  1
  K  K4  1  0.36001437  0.00399450  0.00838578  1
  K  K5  1  0.33488590  0.01330095  0.48920828  1
  K  K6  1  0.33149144  0.50076045  0.01013021  1
  K  K7  1  0.32007395  0.49323440  0.49251223  1
  K  K8  1  0.65299645  0.00845183  0.00646387  1
  K  K9  1  0.65293502  0.00329935  0.49056465  1
  K  K10  1  0.66594408  0.49697107  0.00404649  1
  K  K11  1  0.67000857  0.50151877  0.49809930  1
  K  K12  1  0.17019144  0.24781702  0.00899540  1
  K  K13  1  0.16840277  0.24619888  0.49561602  1
  K  K14  1  0.17423267  0.75484130  0.00567802  1
  K  K15  1  0.17487285  0.75206506  0.49953665  1
  K  K16  1  0.49585264  0.23827967  0.00923340  1
  K  K17  1  0.49705956  0.23711833  0.48729795  1
  K  K18  1  0.50508133  0.76456295  0.00936793  1
  K  K19  1  0.49997910  0.76011589  0.50035820  1
  K  K20  1  0.83764041  0.24129174  0.00335193  1
  K  K21  1  0.83295094  0.24397200  0.49575665  1
  K  K22  1  0.82686879  0.75244834  0.00061425  1
  K  K23  1  0.82694149  0.75091843  0.49944159  1
  Na  Na24  1  0.17135398  0.00299292  0.25236210  1
  Na  Na25  1  0.33270492  0.41914867  0.24748660  1
  Na  Na26  1  0.49970132  0.16773502  0.24811108  1
  Li  Li27  1  0.49446475  0.00309465  0.75298915  1
  Li  Li28  1  0.66342389  0.75261731  0.24704531  1
  Li  Li29  1  0.16577879  0.33212077  0.74824027  1
  Li  Li30  1  0.33359988  0.08531488  0.25275943  1
  Li  Li31  1  0.66158537  0.08214316  0.25529376  1
  Mg  Mg32  1  0.33412896  0.75231870  0.24818924  1
  Mg  Mg33  1  0.66642392  0.24809238  0.75215603  1
  Mg  Mg34  1  0.00266493  0.24890945  0.75024622  1
  Mg  Mg35  1  0.83282546  0.50166294  0.25052571  1
  Mg  Mg36  1  0.33472499  0.74796514  0.75055932  1
  Mg  Mg37  1  0.50037011  0.49770136  0.75054613  1
  Mg  Mg38  1  0.32990662  0.25011958  0.75069869  1
  Mg  Mg39  1  0.00151390  0.24796775  0.25045750  1
  Mg  Mg40  1  0.16594770  0.50017258  0.25245720  1
  Mg  Mg41  1  0.16502914  0.49796568  0.74660933  1
  Mg  Mg42  1  -0.00011800  0.75272926  0.25329413  1
  Mg  Mg43  1  0.16982740  -0.00020930  0.74746132  1
  Mg  Mg44  1  0.33286122  0.25168708  0.25455791  1
  Mg  Mg45  1  0.83206029  -0.00080175  0.74798872  1
  Mg  Mg46  1  0.83098994  0.00208940  0.24960273  1
  Mg  Mg47  1  0.66716238  0.24852844  0.24995356  1
  Mg  Mg48  1  -0.00055497  0.74974625  0.74582994  1
  Mg  Mg49  1  0.66732832  0.75099306  0.74625811  1
  Mg  Mg50  1  0.83471657  0.49883991  0.74854099  1
  Mg  Mg51  1  0.50390356  0.00051684  0.24619055  1
  Mg  Mg52  1  0.49981550  0.50269130  0.24617739  1
  Mg  Mg53  1  0.82985678  0.66913951  0.24959683  1
  Mg  Mg54  1  0.83401733  0.33444344  0.25159946  1
  Mg  Mg55  1  0.33466414  0.08361065  0.75038708  1
  Mg  Mg56  1  0.16821695  0.83565526  0.25346577  1
  Mg  Mg57  1  0.33254433  0.58539450  0.24734518  1
  Mg  Mg58  1  0.50185022  0.66738045  0.24651343  1
  Mg  Mg59  1  0.32791116  0.41480216  0.74859190  1
  Mg  Mg60  1  0.33065858  0.58173423  0.74695715  1
  Mg  Mg61  1  0.00152095  0.41582702  0.25067771  1
  Mg  Mg62  1  -0.00026449  0.91888059  0.25290697  1
  Mg  Mg63  1  0.66115704  0.91609677  0.74675447  1
  Mg  Mg64  1  0.83006281  0.83458447  0.74591700  1
  Mg  Mg65  1  0.33710672  0.91633998  0.75035095  1
  Mg  Mg66  1  0.66301375  0.08131980  0.75322432  1
  Mg  Mg67  1  0.83135437  0.16435100  0.25051209  1
  Mg  Mg68  1  0.49907767  0.33282879  0.75217997  1
  Mg  Mg69  1  0.66574819  0.91574434  0.24944902  1
  Mg  Mg70  1  0.49805130  0.16286480  0.75177742  1
  Mg  Mg71  1  0.49679954  0.33437102  0.24749984  1
  Mg  Mg72  1  0.16832789  0.83261993  0.74952255  1
  Mg  Mg73  1  0.16517489  0.66350357  0.74565317  1
  Mg  Mg74  1  0.83435627  0.33364708  0.75114657  1
  Mg  Mg75  1  0.00067000  0.41362556  0.74872700  1
  Mg  Mg76  1  0.33726437  0.92075064  0.25116184  1
  Mg  Mg77  1  0.82942219  0.83350725  0.25063433  1
  Mg  Mg78  1  0.16671500  0.33715556  0.25226932  1
  Mg  Mg79  1  0.66433780  0.58705480  0.24690580  1
  Mg  Mg80  1  -0.00244095  0.58353602  0.74521565  1
  Mg  Mg81  1  -0.00024702  0.91621499  0.74720944  1
  Mg  Mg82  1  0.50312357  0.83325747  0.24877318  1
  Mg  Mg83  1  0.00191121  0.08313684  0.74794301  1
  Mg  Mg84  1  0.66965802  0.58306114  0.74881040  1
  Mg  Mg85  1  -0.00014761  0.58574691  0.25339926  1
  Mg  Mg86  1  0.00001992  0.08500252  0.24917841  1
  Mg  Mg87  1  0.50058614  0.83620599  0.74913396  1
  Mg  Mg88  1  0.66391899  0.41728244  0.24824841  1
  Mg  Mg89  1  0.67002425  0.41474419  0.75236661  1
  Mg  Mg90  1  0.17009518  0.16449867  0.24867272  1
  Mg  Mg91  1  0.50096767  0.66412948  0.74884619  1
  Mg  Mg92  1  0.16831944  0.16689088  0.74969673  1
  Mg  Mg93  1  0.16710345  0.66655779  0.25171965  1
  Mg  Mg94  1  0.83296655  0.16457300  0.74967756  1
  Mg  Mg95  1  0.83302366  0.66473464  0.74580219  1
  Fe  Fe96  1  0.47591957  0.91308031  0.89017607  1
  Fe  Fe97  1  0.81450356  0.41793117  0.89100680  1
  Fe  Fe98  1  0.85935512  0.58161010  0.60703132  1
  Fe  Fe99  1  0.52989241  0.91716651  0.11013488  1
  Fe  Fe100  1  0.52259701  0.58362135  0.10665915  1
  Fe  Fe101  1  0.35335214  0.16345207  0.11326984  1
  Fe  Fe102  1  0.02635437  0.16420109  0.10763525  1
  Fe  Fe103  1  0.19885215  0.08103732  0.61117732  1
  Fe  Fe104  1  0.85518523  0.07868977  0.10962947  1
  Fe  Fe105  1  0.19012107  0.41921919  0.10943917  1
  Fe  Fe106  1  0.14039382  0.41624231  0.39357102  1
  Fe  Fe107  1  0.47634935  0.08030726  0.38696842  1
  Fe  Fe108  1  0.14142001  0.08595971  0.39213495  1
  Fe  Fe109  1  0.19031088  0.58364837  0.60720378  1
  Fe  Fe110  1  0.52430767  0.08412652  0.61371442  1
  Fe  Fe111  1  0.47420456  0.08982586  0.89353966  1
  Fe  Fe112  1  0.68660178  0.83674293  0.60694111  1
  Si  Si113  1  0.02620685  0.67212525  0.60874240  1
  Si  Si114  1  0.31335786  0.33605597  0.38953153  1
  Si  Si115  1  0.53008620  0.57835342  0.61526694  1
  Si  Si116  1  0.97642925  0.16051392  0.88360890  1
  Si  Si117  1  0.35442899  0.33662012  0.61534516  1
  Si  Si118  1  0.85579981  0.41084987  0.61107343  1
  Si  Si119  1  0.47996388  0.41948903  0.38395630  1
  Si  Si120  1  0.97989777  0.32579898  0.88707320  1
  Si  Si121  1  0.35909035  0.82594156  0.61445551  1
  Si  Si122  1  0.02448093  0.83493754  0.61431151  1
  Si  Si123  1  0.80837338  0.91657653  0.88386824  1
  Si  Si124  1  0.80796568  0.08253071  0.88475074  1
  Si  Si125  1  0.97085166  0.83502436  0.38813445  1
  Si  Si126  1  0.80376970  0.08237270  0.38623157  1
  Si  Si127  1  0.19316314  0.90873630  0.61312690  1
  Si  Si128  1  0.36558003  0.66050330  0.61203262  1
  Si  Si129  1  0.01871337  0.33378945  0.11113173  1
  Si  Si130  1  0.36336332  0.17405430  0.61313103  1
  Si  Si131  1  0.81441901  0.58685479  0.88652206  1
  Si  Si132  1  0.13943733  0.58972775  0.38865968  1
  Si  Si133  1  0.86185643  0.91916538  0.61100754  1
  Si  Si134  1  0.64139065  0.33761686  0.88824063  1
  Si  Si135  1  0.02221646  0.32927607  0.61539264  1
  Si  Si136  1  0.97591806  0.67327405  0.88323805  1
  Si  Si137  1  0.47540222  0.58193094  0.88425001  1
  Si  Si138  1  0.97489632  0.83779851  0.88284200  1
  Si  Si139  1  0.96741906  0.16667019  0.38919872  1
  Si  Si140  1  0.14069466  0.08070492  0.88407840  1
  Si  Si141  1  0.80726781  0.58468070  0.38472217  1
  Si  Si142  1  0.13775044  0.41852475  0.88248323  1
  Si  Si143  1  0.64583935  0.82775846  0.88600552  1
  Si  Si144  1  0.69534675  0.16338343  0.61460161  1
  Si  Si145  1  0.85828171  0.42101847  0.11667066  1
  Si  Si146  1  0.52347871  0.41377398  0.11144195  1
  Si  Si147  1  0.69643334  0.17496746  0.11326670  1
  Si  Si148  1  0.02483845  0.83394126  0.11756072  1
  Si  Si149  1  0.53452146  0.08688553  0.11504092  1
  Si  Si150  1  0.47679721  0.91031935  0.38789022  1
  Si  Si151  1  0.80472989  0.91714059  0.38642601  1
  Si  Si152  1  0.69319379  0.33829158  0.11558330  1
  Si  Si153  1  0.86315134  0.58594020  0.11634597  1
  Si  Si154  1  0.68820528  0.66573509  0.60991324  1
  Si  Si155  1  0.36038676  0.33094691  0.11058659  1
  Si  Si156  1  0.80506862  0.42005300  0.38527662  1
  Si  Si157  1  0.02624760  0.16599845  0.61301191  1
  Si  Si158  1  0.64753594  0.17247199  0.88958602  1
  Si  Si159  1  0.64132291  0.66603126  0.38434752  1
  Si  Si160  1  0.18711875  0.58928327  0.11267133  1
  Si  Si161  1  0.64265749  0.33643087  0.38600807  1
  Si  Si162  1  0.30304060  0.82667501  0.88724814  1
  Si  Si163  1  0.14079910  0.91006328  0.38989204  1
  Si  Si164  1  0.96747171  0.33225500  0.38904559  1
  Si  Si165  1  0.64441149  0.66229973  0.88349335  1
  Si  Si166  1  0.35436596  0.83576524  0.11345420  1
  Si  Si167  1  0.69849850  0.82774233  0.11459022  1
  Si  Si168  1  0.19040798  0.91376799  0.11717693  1
  Si  Si169  1  0.30065119  0.17291018  0.88905079  1
  Si  Si170  1  0.85772862  0.91076705  0.11540062  1
  Si  Si171  1  0.35396456  0.67132686  0.11200187  1
  Si  Si172  1  0.30922133  0.17285979  0.39186715  1
  Si  Si173  1  0.30992464  0.66601746  0.38473957  1
  Si  Si174  1  0.18560240  0.41435477  0.61327615  1
  Si  Si175  1  0.52440871  0.41319797  0.61574506  1
  Si  Si176  1  0.51685529  0.91732852  0.61009477  1
  Si  Si177  1  0.97119166  0.67050852  0.38665934  1
  Si  Si178  1  0.30386768  0.33859435  0.88432598  1
  Si  Si179  1  0.68972894  0.32836419  0.61551829  1
  Si  Si180  1  0.86129407  0.08449628  0.61473750  1
  Si  Si181  1  0.47603269  0.58434521  0.38508476  1
  Si  Si182  1  0.19430615  0.07957028  0.10939830  1
  Si  Si183  1  0.69707249  0.66300771  0.11177272  1
  Si  Si184  1  0.30579105  0.66068747  0.88430225  1
  Si  Si185  1  0.64229513  0.82945556  0.38461973  1
  Si  Si186  1  0.13565211  0.58263442  0.88338140  1
  Si  Si187  1  0.47223451  0.41496380  0.88572732  1
  Si  Si188  1  0.64658717  0.17160541  0.38786892  1
  Si  Si189  1  0.14173965  0.91654609  0.88324802  1
  Si  Si190  1  0.30949628  0.83038868  0.38641479  1
  Si  Si191  1  0.02501289  0.67054777  0.11743008  1
  O  O192  1  0.27587811  0.09324216  0.07401244  1
  O  O193  1  0.29147434  0.11797380  0.57928401  1
  O  O194  1  0.26806119  0.62394052  0.08427395  1
  O  O195  1  0.29166887  0.60784900  0.57710595  1
  O  O196  1  0.61313662  0.12666455  0.08564034  1
  O  O197  1  0.62453712  0.10850440  0.58048735  1
  O  O198  1  0.62183687  0.61193689  0.07514490  1
  O  O199  1  0.61366015  0.60350559  0.58668013  1
  O  O200  1  0.94175062  0.10378599  0.06670287  1
  O  O201  1  0.94302800  0.11471388  0.58580217  1
  O  O202  1  0.94628120  0.61655160  0.08808677  1
  O  O203  1  0.95426734  0.61626173  0.57475015  1
  O  O204  1  0.09438955  0.36357001  0.07511187  1
  O  O205  1  0.10679562  0.35734109  0.58822221  1
  O  O206  1  0.10731259  0.86150705  0.08740860  1
  O  O207  1  0.11080420  0.85544639  0.58685792  1
  O  O208  1  0.45068117  0.35426900  0.08511764  1
  O  O209  1  0.43733029  0.36936247  0.58692034  1
  O  O210  1  0.43019209  0.86388745  0.07843490  1
  O  O211  1  0.43859846  0.85825827  0.58489274  1
  O  O212  1  0.77291874  0.37552933  0.08671741  1
  O  O213  1  0.77180562  0.35883837  0.58624834  1
  O  O214  1  0.78877546  0.84675219  0.08949440  1
  O  O215  1  0.78718342  0.86700070  0.57669328  1
  O  O216  1  0.29118261  0.39286475  0.08148195  1
  O  O217  1  0.27215646  0.38667076  0.58661729  1
  O  O218  1  0.26813900  0.88224436  0.08312806  1
  O  O219  1  0.27134233  0.86850667  0.58495187  1
  O  O220  1  0.61128040  0.38796712  0.08590688  1
  O  O221  1  0.60493588  0.37747538  0.58714298  1
  O  O222  1  0.62243493  0.87666650  0.07720537  1
  O  O223  1  0.59491096  0.89513811  0.57251908  1
  O  O224  1  0.93770025  0.39078978  0.08631427  1
  O  O225  1  0.93805309  0.37675002  0.58310815  1
  O  O226  1  0.94457150  0.88447763  0.08733786  1
  O  O227  1  0.95135907  0.89462656  0.58718612  1
  O  O228  1  0.11833474  0.13058851  0.07067242  1
  O  O229  1  0.10305344  0.13854434  0.57948887  1
  O  O230  1  0.10824452  0.64672401  0.08745245  1
  O  O231  1  0.11304674  0.65884357  0.58052551  1
  O  O232  1  0.45472311  0.13811290  0.08721702  1
  O  O233  1  0.45094330  0.16130905  0.58636356  1
  O  O234  1  0.42884929  0.64333468  0.07523889  1
  O  O235  1  0.45287592  0.63322151  0.58655875  1
  O  O236  1  0.77077575  0.14601815  0.07645581  1
  O  O237  1  0.78420711  0.14045673  0.58857197  1
  O  O238  1  0.78478759  0.63769076  0.08426073  1
  O  O239  1  0.76751709  0.64206084  0.57570546  1
  O  O240  1  0.05360292  0.13162225  0.42714781  1
  O  O241  1  0.05593301  0.10757334  0.91180528  1
  O  O242  1  0.06449615  0.63733944  0.41570461  1
  O  O243  1  0.06248750  0.62818682  0.91351590  1
  O  O244  1  0.39190180  0.12589460  0.42317341  1
  O  O245  1  0.38375072  0.13445399  0.92752250  1
  O  O246  1  0.39608428  0.62018133  0.41468497  1
  O  O247  1  0.39591325  0.61942128  0.91266543  1
  O  O248  1  0.73407445  0.12681183  0.42007364  1
  O  O249  1  0.73423893  0.12410080  0.91508388  1
  O  O250  1  0.72872098  0.62092150  0.41458012  1
  O  O251  1  0.72869290  0.61502056  0.91367918  1
  O  O252  1  0.24486061  0.37445463  0.42820547  1
  O  O253  1  0.23110370  0.38604408  0.91212125  1
  O  O254  1  0.22853414  0.86246213  0.41627768  1
  O  O255  1  0.21859572  0.86181114  0.91228316  1
  O  O256  1  0.56606289  0.37496131  0.41732410  1
  O  O257  1  0.55421578  0.36491586  0.91417965  1
  O  O258  1  0.56232690  0.86052070  0.41593580  1
  O  O259  1  0.57229136  0.85537171  0.92245180  1
  O  O260  1  0.88941980  0.37541288  0.41642815  1
  O  O261  1  0.90608943  0.35656923  0.92334317  1
  O  O262  1  0.89628647  0.87875218  0.41738467  1
  O  O263  1  0.89709564  0.87339333  0.91364470  1
  O  O264  1  0.05328147  0.36840459  0.42745078  1
  O  O265  1  0.06788839  0.37103941  0.91324291  1
  O  O266  1  0.06354575  0.86760857  0.42048619  1
  O  O267  1  0.05860069  0.88599769  0.91183722  1
  O  O268  1  0.40182015  0.38365930  0.41330130  1
  O  O269  1  0.39270726  0.38091078  0.91525239  1
  O  O270  1  0.39740496  0.87092998  0.41761211  1
  O  O271  1  0.38580135  0.86614632  0.92371657  1
  O  O272  1  0.72626266  0.38615075  0.41600535  1
  O  O273  1  0.71395729  0.39323191  0.92082833  1
  O  O274  1  0.73016812  0.87325890  0.41594214  1
  O  O275  1  0.73517712  0.87217808  0.91283542  1
  O  O276  1  0.23301495  0.14369079  0.42788335  1
  O  O277  1  0.21712342  0.13510686  0.91314525  1
  O  O278  1  0.22972134  0.63260295  0.41428252  1
  O  O279  1  0.22951548  0.61702892  0.91203452  1
  O  O280  1  0.57276623  0.13711941  0.42142449  1
  O  O281  1  0.57312408  0.14499329  0.92546529  1
  O  O282  1  0.56301781  0.62912778  0.41579414  1
  O  O283  1  0.56299219  0.62677566  0.91154511  1
  O  O284  1  0.89306175  0.12125061  0.41853167  1
  O  O285  1  0.89559391  0.12687191  0.91201133  1
  O  O286  1  0.89599377  0.62623227  0.41474056  1
  O  O287  1  0.89240415  0.64509741  0.91161410  1
  O  O288  1  0.16396698  -0.00625291  0.08909149  1
  O  O289  1  0.17326887  -0.01386701  0.57962077  1
  O  O290  1  0.16277567  0.51444854  0.07544149  1
  O  O291  1  0.15718432  0.49021612  0.57747704  1
  O  O292  1  0.52010314  0.00976148  0.07603527  1
  O  O293  1  0.47969862  -0.00530953  0.58308061  1
  O  O294  1  0.49696719  0.48967205  0.07452196  1
  O  O295  1  0.51002422  0.49590633  0.58701743  1
  O  O296  1  0.82418063  -0.01597495  0.07890969  1
  O  O297  1  0.84239067  0.00299808  0.58533203  1
  O  O298  1  0.84248405  0.50412336  0.08837056  1
  O  O299  1  0.83357515  0.48718055  0.57490141  1
  O  O300  1  -0.01145335  0.25710401  0.07834794  1
  O  O301  1  -0.00040198  0.24802911  0.58622795  1
  O  O302  1  0.00097554  0.75188015  0.08844119  1
  O  O303  1  -0.00764166  0.75541872  0.58658767  1
  O  O304  1  0.32971542  0.25582078  0.07397171  1
  O  O305  1  0.33189446  0.25651997  0.58668592  1
  O  O306  1  0.32786657  0.75336979  0.08610510  1
  O  O307  1  0.34682907  0.74331479  0.58467735  1
  O  O308  1  0.67584831  0.25851033  0.08397812  1
  O  O309  1  0.67326251  0.24663830  0.58681555  1
  O  O310  1  0.67915333  0.74528804  0.08468508  1
  O  O311  1  0.65206450  0.74229079  0.58010954  1
  O  O312  1  0.15213103  -0.01165610  0.42310184  1
  O  O313  1  0.16045746  -0.00191132  0.91238192  1
  O  O314  1  0.14446066  0.51313727  0.42484460  1
  O  O315  1  0.13481585  0.50089815  0.91296731  1
  O  O316  1  0.49250492  -0.01343366  0.42448387  1
  O  O317  1  0.49359413  0.00024603  0.93135620  1
  O  O318  1  0.49080148  0.50247678  0.41539440  1
  O  O319  1  0.48769031  0.49893937  0.91292483  1
  O  O320  1  0.80700025  -0.00087017  0.41624899  1
  O  O321  1  0.81749767  -0.00074250  0.91288266  1
  O  O322  1  0.81758380  0.50266686  0.41436235  1
  O  O323  1  0.84442956  0.51200361  0.92218958  1
  O  O324  1  0.33291731  0.25582029  0.42152756  1
  O  O325  1  0.30111778  0.25775288  0.91478770  1
  O  O326  1  0.32300338  0.74730643  0.41589698  1
  O  O327  1  0.30518901  0.74186004  0.91451202  1
  O  O328  1  0.66143240  0.25629377  0.41818676  1
  O  O329  1  0.66938766  0.25635286  0.91482810  1
  O  O330  1  0.65701424  0.74699391  0.41559704  1
  O  O331  1  0.66599239  0.74332165  0.91203200  1
  O  O332  1  0.95927996  0.24998197  0.41646874  1
  O  O333  1  0.99840853  0.24164946  0.91208605  1
  O  O334  1  0.96856804  0.75201890  0.41657387  1
  O  O335  1  0.99249689  0.75579243  0.91234428  1
  O  O336  1  0.21009136  0.09007026  0.18825977  1
  O  O337  1  0.21202601  0.08343486  0.70272352  1
  O  O338  1  0.20585337  0.58750270  0.19371947  1
  O  O339  1  0.21043687  0.58191666  0.69947416  1
  O  O340  1  0.55408545  0.07610207  0.19353882  1
  O  O341  1  0.54829992  0.08529910  0.70423377  1
  O  O342  1  0.54514448  0.58500536  0.19821659  1
  O  O343  1  0.54496035  0.57950645  0.69592692  1
  O  O344  1  0.87727943  0.08325267  0.20182077  1
  O  O345  1  0.87822635  0.08245435  0.69545166  1
  O  O346  1  0.87864899  0.58608571  0.19684080  1
  O  O347  1  0.87747375  0.58234420  0.69941381  1
  O  O348  1  0.03676563  0.33493938  0.19246858  1
  O  O349  1  0.03660678  0.33134278  0.69509032  1
  O  O350  1  0.04323048  0.83246397  0.19784838  1
  O  O351  1  0.04330364  0.83389238  0.69529481  1
  O  O352  1  0.37999710  0.32764142  0.19081774  1
  O  O353  1  0.37636469  0.33653834  0.69588649  1
  O  O354  1  0.37510420  0.83287414  0.19415346  1
  O  O355  1  0.37489574  0.82703461  0.69481428  1
  O  O356  1  0.71310822  0.33866647  0.19598476  1
  O  O357  1  0.70806407  0.33075289  0.69594313  1
  O  O358  1  0.71325305  0.83152566  0.19464658  1
  O  O359  1  0.71119123  0.83414286  0.69916076  1
  O  O360  1  0.19864963  0.42099620  0.19867735  1
  O  O361  1  0.20837509  0.41860506  0.69334419  1
  O  O362  1  0.21355955  0.90714283  0.19613230  1
  O  O363  1  0.21048417  0.91131292  0.69430351  1
  O  O364  1  0.54338004  0.41961290  0.19240833  1
  O  O365  1  0.54392312  0.41477989  0.69633469  1
  O  O366  1  0.54717124  0.91302555  0.20084809  1
  O  O367  1  0.54462726  0.90964318  0.69018331  1
  O  O368  1  0.87584646  0.42000877  0.19728760  1
  O  O369  1  0.87644387  0.41357817  0.69200857  1
  O  O370  1  0.87748852  0.91279968  0.19632284  1
  O  O371  1  0.87764744  0.91748643  0.69236844  1
  O  O372  1  0.04301985  0.16844350  0.19946148  1
  O  O373  1  0.04254936  0.16507229  0.69401193  1
  O  O374  1  0.04208937  0.66902437  0.19787079  1
  O  O375  1  0.04171809  0.66796202  0.69082963  1
  O  O376  1  0.36348147  0.17047501  0.20039209  1
  O  O377  1  0.37490385  0.17202076  0.69448640  1
  O  O378  1  0.37457840  0.66875689  0.19301514  1
  O  O379  1  0.37911005  0.66191813  0.69330615  1
  O  O380  1  0.71742041  0.17728856  0.19297986  1
  O  O381  1  0.71215764  0.16582063  0.69574899  1
  O  O382  1  0.71469153  0.66048074  0.19194211  1
  O  O383  1  0.70914352  0.66484733  0.69198170  1
  O  O384  1  0.11638687  0.09105342  0.30314461  1
  O  O385  1  0.12115272  0.08000012  0.80380618  1
  O  O386  1  0.12063054  0.58820500  0.30767524  1
  O  O387  1  0.11824452  0.58440371  0.80316455  1
  O  O388  1  0.45541814  0.07282778  0.30012824  1
  O  O389  1  0.44971459  0.08777565  0.80272503  1
  O  O390  1  0.45651670  0.58620704  0.30522911  1
  O  O391  1  0.45676492  0.58159563  0.80374011  1
  O  O392  1  0.78981687  0.08240370  0.30702354  1
  O  O393  1  0.79133858  0.08235050  0.80417630  1
  O  O394  1  0.79026339  0.58490881  0.30464231  1
  O  O395  1  0.79199631  0.58440689  0.80562414  1
  O  O396  1  0.28599005  0.33300596  0.31050554  1
  O  O397  1  0.29224592  0.33594619  0.80483774  1
  O  O398  1  0.29085975  0.83012663  0.30635827  1
  O  O399  1  0.28788316  0.82804165  0.80619993  1
  O  O400  1  0.62622491  0.33756885  0.30610296  1
  O  O401  1  0.62324795  0.33608670  0.80693931  1
  O  O402  1  0.62508321  0.83081525  0.30559737  1
  O  O403  1  0.62513052  0.82969025  0.80528276  1
  O  O404  1  0.95402025  0.33645079  0.30833994  1
  O  O405  1  0.95771444  0.33055435  0.80616020  1
  O  O406  1  0.95475193  0.83355025  0.30782484  1
  O  O407  1  0.95637735  0.83490785  0.80248230  1
  O  O408  1  0.11731207  0.42012139  0.30256666  1
  O  O409  1  0.11938291  0.42041464  0.80297264  1
  O  O410  1  0.11778904  0.90641773  0.31025976  1
  O  O411  1  0.12253075  0.91545000  0.80271983  1
  O  O412  1  0.46964959  0.42231296  0.30497958  1
  O  O413  1  0.45569838  0.41683016  0.80512432  1
  O  O414  1  0.45750544  0.90814182  0.30794143  1
  O  O415  1  0.45387585  0.91182830  0.79892520  1
  O  O416  1  0.78860839  0.41983972  0.30510565  1
  O  O417  1  0.79119690  0.41650793  0.79877664  1
  O  O418  1  0.79048255  0.91472349  0.30666684  1
  O  O419  1  0.79467114  0.91654265  0.80381408  1
  O  O420  1  0.28550619  0.17398507  0.31202887  1
  O  O421  1  0.28824475  0.17011872  0.80836206  1
  O  O422  1  0.29133534  0.66832817  0.30445860  1
  O  O423  1  0.29044621  0.66345630  0.80404010  1
  O  O424  1  0.63504865  0.17327816  0.30930846  1
  O  O425  1  0.62832588  0.16949662  0.80875539  1
  O  O426  1  0.62262534  0.66402520  0.30519328  1
  O  O427  1  0.62484865  0.66287867  0.80291373  1
  O  O428  1  0.95242127  0.16842898  0.30895558  1
  O  O429  1  0.95675736  0.16278724  0.80305708  1
  O  O430  1  0.95482990  0.66861187  0.30631732  1
  O  O431  1  0.95892212  0.67000749  0.80304900  1
  F  F432  1  0.03255352  -0.00299187  0.20062279  1
  F  F433  1  0.04561358  -0.00133482  0.70043282  1
  F  F434  1  0.04016119  0.50606076  0.20353665  1
  F  F435  1  0.04260926  0.49910548  0.69965072  1
  F  F436  1  0.38542812  -0.01235083  0.19534842  1
  F  F437  1  0.36506660  -0.00066474  0.69912818  1
  F  F438  1  0.38257382  0.51283680  0.19722652  1
  F  F439  1  0.37998369  0.49810298  0.70230920  1
  F  F440  1  0.71662546  -0.00832027  0.20113792  1
  F  F441  1  0.71381138  0.00002322  0.70159779  1
  F  F442  1  0.71368108  0.50096389  0.20168123  1
  F  F443  1  0.71028194  0.49939364  0.70083204  1
  F  F444  1  0.20942808  0.25451889  0.20570522  1
  F  F445  1  0.21193262  0.24866697  0.70234269  1
  F  F446  1  0.20960063  0.74941204  0.20421449  1
  F  F447  1  0.21315560  0.74822636  0.70264833  1
  F  F448  1  0.55391398  0.26308344  0.19987650  1
  F  F449  1  0.54684233  0.25229218  0.70590756  1
  F  F450  1  0.54110919  0.74920909  0.19937054  1
  F  F451  1  0.54471204  0.74690102  0.70298147  1
  F  F452  1  0.87923921  0.25327020  0.20544717  1
  F  F453  1  0.87871658  0.24868777  0.70351578  1
  F  F454  1  0.88139080  0.74977697  0.20334769  1
  F  F455  1  0.87862169  0.75089438  0.70051710  1
  F  F456  1  0.30043881  -0.00739515  0.30696172  1
  F  F457  1  0.28531417  -0.00612123  0.80096719  1
  F  F458  1  0.28341025  0.51560599  0.30246433  1
  F  F459  1  0.28865319  0.49899562  0.79885184  1
  F  F460  1  0.62376939  -0.00645919  0.30357654  1
  F  F461  1  0.63550017  -0.00457406  0.80325344  1
  F  F462  1  0.62499403  0.50161248  0.29769388  1
  F  F463  1  0.62195062  0.49990911  0.79801050  1
  F  F464  1  0.95241084  -0.00321910  0.30284816  1
  F  F465  1  0.95520243  -0.00142012  0.79621037  1
  F  F466  1  0.95206546  0.50294237  0.30037002  1
  F  F467  1  0.95659704  0.49796555  0.79702124  1
  F  F468  1  0.11724864  0.25760316  0.30066438  1
  F  F469  1  0.11797473  0.24399526  0.79952848  1
  F  F470  1  0.12124049  0.74873445  0.30075169  1
  F  F471  1  0.12029831  0.74811535  0.79583314  1
  F  F472  1  0.45231518  0.26511942  0.30483856  1
  F  F473  1  0.45309128  0.25246478  0.79851731  1
  F  F474  1  0.45437764  0.74774281  0.29702361  1
  F  F475  1  0.45495669  0.74468302  0.79766916  1
  F  F476  1  0.78933618  0.25445355  0.30016129  1
  F  F477  1  0.78964699  0.24886577  0.79827012  1
  F  F478  1  0.79436237  0.74885073  0.30095675  1
  F  F479  1  0.79053651  0.74742183  0.79633670  1
