# generated using pymatgen
data_K24Na3Li5Mg64Fe17Si79(O5F)48
_symmetry_space_group_name_H-M   'P 1'
_cell_length_a   16.10118642
_cell_length_b   18.59623715
_cell_length_c   20.56398797
_cell_angle_alpha   90.00255046
_cell_angle_beta   100.02056159
_cell_angle_gamma   89.98309861
_symmetry_Int_Tables_number   1
_chemical_formula_structural   K24Na3Li5Mg64Fe17Si79(O5F)48
_chemical_formula_sum   'K24 Na3 Li5 Mg64 Fe17 Si79 O240 F48'
_cell_volume   6063.37215939
_cell_formula_units_Z   1
loop_
 _symmetry_equiv_pos_site_id
 _symmetry_equiv_pos_as_xyz
  1  'x, y, z'
loop_
 _atom_site_type_symbol
 _atom_site_label
 _atom_site_symmetry_multiplicity
 _atom_site_fract_x
 _atom_site_fract_y
 _atom_site_fract_z
 _atom_site_occupancy
  K  K0  1  0.01261330  -0.00156941  0.00669798  1
  K  K1  1  0.00709921  -0.00006979  0.49993747  1
  K  K2  1  -0.00633034  0.50339051  0.00612518  1
  K  K3  1  -0.01216194  0.50184626  0.49400812  1
  K  K4  1  0.32350894  -0.00423636  -0.00092876  1
  K  K5  1  0.33799289  -0.00548758  0.50642100  1
  K  K6  1  0.34186361  0.50001362  0.00483045  1
  K  K7  1  0.33652564  0.50275367  0.49854256  1
  K  K8  1  0.66599334  0.00366429  0.00389032  1
  K  K9  1  0.64984323  -0.00120842  0.49790823  1
  K  K10  1  0.66749633  0.51596154  0.00939630  1
  K  K11  1  0.67353707  0.49899381  0.49416436  1
  K  K12  1  0.17250781  0.24117576  0.00945842  1
  K  K13  1  0.16419167  0.25273597  0.49233713  1
  K  K14  1  0.16420935  0.75123803  -0.00440637  1
  K  K15  1  0.16843668  0.74352563  0.49882986  1
  K  K16  1  0.51051469  0.25081467  0.02127433  1
  K  K17  1  0.49751389  0.24960253  0.49654390  1
  K  K18  1  0.51207602  0.74426206  -0.00510784  1
  K  K19  1  0.49831306  0.74819220  0.50893514  1
  K  K20  1  0.82907506  0.25077209  0.01495233  1
  K  K21  1  0.82287735  0.25521405  0.48847665  1
  K  K22  1  0.82251716  0.74010603  -0.00188833  1
  K  K23  1  0.83019947  0.74555499  0.50227469  1
  Na  Na24  1  0.00092758  0.75039596  0.75460362  1
  Na  Na25  1  0.66781812  0.58208561  0.25116103  1
  Na  Na26  1  0.50246059  0.66877070  0.75137936  1
  Li  Li27  1  0.66167918  0.25361166  0.23949390  1
  Li  Li28  1  0.16563502  0.49792497  0.25242381  1
  Li  Li29  1  0.66600982  0.58800495  0.75164994  1
  Li  Li30  1  0.50438806  0.33641189  0.25201231  1
  Li  Li31  1  0.33418761  0.91262649  0.74957421  1
  Mg  Mg32  1  0.66854000  0.75049263  0.25076701  1
  Mg  Mg33  1  0.49635037  -0.00082765  0.74795069  1
  Mg  Mg34  1  0.66634043  0.25011508  0.74941428  1
  Mg  Mg35  1  0.00131659  0.25001629  0.74932816  1
  Mg  Mg36  1  0.16628718  0.50203628  0.74789526  1
  Mg  Mg37  1  0.83459476  -0.00058672  0.75337500  1
  Mg  Mg38  1  0.66580471  0.75079760  0.75219837  1
  Mg  Mg39  1  0.50179415  0.49647584  0.24851989  1
  Mg  Mg40  1  0.83259448  0.50039539  0.74943478  1
  Mg  Mg41  1  0.16680306  0.00191367  0.25014688  1
  Mg  Mg42  1  0.33226805  0.74734801  0.24859264  1
  Mg  Mg43  1  0.33535151  0.75121418  0.75006149  1
  Mg  Mg44  1  0.33631157  0.25405709  0.24903201  1
  Mg  Mg45  1  0.50477691  0.50313118  0.75329437  1
  Mg  Mg46  1  0.17078734  -0.00465999  0.75360322  1
  Mg  Mg47  1  0.00080097  0.74865608  0.25352833  1
  Mg  Mg48  1  0.83391581  0.00172389  0.24646551  1
  Mg  Mg49  1  0.33384169  0.24985890  0.74727930  1
  Mg  Mg50  1  -0.00190192  0.25092030  0.25032281  1
  Mg  Mg51  1  0.49785228  0.00247501  0.24763655  1
  Mg  Mg52  1  0.82940603  0.49955534  0.25007866  1
  Mg  Mg53  1  0.16970794  0.83363267  0.75555699  1
  Mg  Mg54  1  0.82941028  0.66553541  0.75395870  1
  Mg  Mg55  1  0.16712431  0.66659128  0.74883500  1
  Mg  Mg56  1  0.83114822  0.16830609  0.25005879  1
  Mg  Mg57  1  0.33346255  0.58399848  0.74901671  1
  Mg  Mg58  1  -0.00208192  0.41625364  0.74737071  1
  Mg  Mg59  1  0.00276097  0.08305928  0.75376591  1
  Mg  Mg60  1  0.33118179  0.91537285  0.24811951  1
  Mg  Mg61  1  0.00026349  0.41700542  0.25029081  1
  Mg  Mg62  1  0.83556471  0.66498564  0.25213829  1
  Mg  Mg63  1  0.00470230  0.91675547  0.25224808  1
  Mg  Mg64  1  0.00259773  0.08531607  0.24912413  1
  Mg  Mg65  1  0.33337047  0.58001697  0.24875648  1
  Mg  Mg66  1  0.16714860  0.83333886  0.25081129  1
  Mg  Mg67  1  -0.00233702  0.58566652  0.74828046  1
  Mg  Mg68  1  0.50205752  0.66471235  0.24840603  1
  Mg  Mg69  1  0.00365474  0.91486218  0.75699194  1
  Mg  Mg70  1  0.49952284  0.33505487  0.74794237  1
  Mg  Mg71  1  0.83080260  0.33350369  0.24970017  1
  Mg  Mg72  1  0.83404915  0.16622390  0.75137291  1
  Mg  Mg73  1  0.49963139  0.83362085  0.24839022  1
  Mg  Mg74  1  0.49622304  0.16570731  0.74631255  1
  Mg  Mg75  1  0.66609824  0.08706936  0.24784321  1
  Mg  Mg76  1  0.83542188  0.83438625  0.24954291  1
  Mg  Mg77  1  0.33201136  0.08699999  0.24847696  1
  Mg  Mg78  1  0.66640828  0.91810294  0.24732415  1
  Mg  Mg79  1  0.83237034  0.33511571  0.74757812  1
  Mg  Mg80  1  0.16820857  0.16360362  0.75010223  1
  Mg  Mg81  1  0.50454554  0.17208476  0.24570529  1
  Mg  Mg82  1  0.66424617  0.08361032  0.74860639  1
  Mg  Mg83  1  0.16677136  0.33681229  0.24987118  1
  Mg  Mg84  1  0.16642178  0.33420733  0.74847904  1
  Mg  Mg85  1  0.33308461  0.41730879  0.74839310  1
  Mg  Mg86  1  0.66375779  0.91665446  0.75119300  1
  Mg  Mg87  1  0.00093850  0.58201403  0.25213331  1
  Mg  Mg88  1  0.83387836  0.83326015  0.75342515  1
  Mg  Mg89  1  0.16785434  0.16607871  0.24940837  1
  Mg  Mg90  1  0.33393002  0.41724942  0.24848782  1
  Mg  Mg91  1  0.49751079  0.83659768  0.75024689  1
  Mg  Mg92  1  0.66606473  0.41245032  0.24800850  1
  Mg  Mg93  1  0.16682915  0.66128487  0.25050564  1
  Mg  Mg94  1  0.33264032  0.08242496  0.74727080  1
  Mg  Mg95  1  0.66664510  0.41853238  0.74996184  1
  Fe  Fe96  1  0.69103910  0.16641092  0.10879060  1
  Fe  Fe97  1  0.52340212  0.91552182  0.61047391  1
  Fe  Fe98  1  0.14886368  0.91701376  0.39070376  1
  Fe  Fe99  1  0.47483583  0.42094174  0.38763869  1
  Fe  Fe100  1  0.19192875  0.08197768  0.10823003  1
  Fe  Fe101  1  0.80428784  0.59123057  0.39384745  1
  Fe  Fe102  1  0.63190730  0.32192506  0.38493687  1
  Fe  Fe103  1  0.35589516  0.17053409  0.60783579  1
  Fe  Fe104  1  0.14277585  0.91169118  0.89635546  1
  Fe  Fe105  1  0.86091597  0.41513994  0.60911375  1
  Fe  Fe106  1  0.69187810  0.67258364  0.11054310  1
  Fe  Fe107  1  0.80185143  0.41593909  0.39056600  1
  Fe  Fe108  1  0.97699676  0.33145457  0.38913368  1
  Fe  Fe109  1  0.14776197  0.08535670  0.39067268  1
  Fe  Fe110  1  0.98168071  0.66851706  0.39254053  1
  Fe  Fe111  1  0.18544416  0.58378661  0.60864675  1
  Fe  Fe112  1  0.64428560  0.66745742  0.89222315  1
  Si  Si113  1  0.30936852  0.66278370  0.88647020  1
  Si  Si114  1  0.86266845  0.08263106  0.11056428  1
  Si  Si115  1  0.35855976  0.66213409  0.61302881  1
  Si  Si116  1  0.46912511  0.91742654  0.38225438  1
  Si  Si117  1  0.18999061  0.07658376  0.61383056  1
  Si  Si118  1  0.97709066  0.83929686  0.38774299  1
  Si  Si119  1  0.80806412  0.41121111  0.88659389  1
  Si  Si120  1  0.02825280  0.66349869  0.11408192  1
  Si  Si121  1  0.52002788  0.91829541  0.11324879  1
  Si  Si122  1  0.52097760  0.08203537  0.11064053  1
  Si  Si123  1  0.35539350  0.82785138  0.61230905  1
  Si  Si124  1  0.80643536  0.92025841  0.88858057  1
  Si  Si125  1  0.35903630  0.82896624  0.11275405  1
  Si  Si126  1  0.97674421  0.33323760  0.88590657  1
  Si  Si127  1  0.69209099  0.33826418  0.10798913  1
  Si  Si128  1  0.80948137  0.91546982  0.38297626  1
  Si  Si129  1  0.97135725  0.66186810  0.88775767  1
  Si  Si130  1  0.30732426  0.16955954  0.88514826  1
  Si  Si131  1  0.52726962  0.08636207  0.61116544  1
  Si  Si132  1  0.63947515  0.84176657  0.38375967  1
  Si  Si133  1  0.18931472  0.41539046  0.61443417  1
  Si  Si134  1  0.31388597  0.82740347  0.88940300  1
  Si  Si135  1  0.47693468  0.58741252  0.38487828  1
  Si  Si136  1  0.52715043  0.41927254  0.61469226  1
  Si  Si137  1  0.51913482  0.58241372  0.11091647  1
  Si  Si138  1  0.86208812  0.91829823  0.61882632  1
  Si  Si139  1  0.19252180  0.41644159  0.11234091  1
  Si  Si140  1  0.31015413  0.66122339  0.38255837  1
  Si  Si141  1  0.35670788  0.34144062  0.61220089  1
  Si  Si142  1  0.81208369  0.57653272  0.88998483  1
  Si  Si143  1  0.97608563  0.16886899  0.88685750  1
  Si  Si144  1  0.63984563  0.16441067  0.88441542  1
  Si  Si145  1  0.35597657  0.66399546  0.11203532  1
  Si  Si146  1  0.02506844  0.82733109  0.11494498  1
  Si  Si147  1  0.80751861  0.07827777  0.38363462  1
  Si  Si148  1  0.14312089  0.08533531  0.88902017  1
  Si  Si149  1  0.85895008  0.41904560  0.11214650  1
  Si  Si150  1  0.64102647  0.84116026  0.89015460  1
  Si  Si151  1  0.30683007  0.33971446  0.38415514  1
  Si  Si152  1  0.19062115  0.91084327  0.61757103  1
  Si  Si153  1  0.69740820  0.83520653  0.61557544  1
  Si  Si154  1  0.64015601  0.15329822  0.38662251  1
  Si  Si155  1  0.14272126  0.41644400  0.38479754  1
  Si  Si156  1  0.86448909  0.91751315  0.11411431  1
  Si  Si157  1  0.63027215  0.67841057  0.38757097  1
  Si  Si158  1  0.85601455  0.58750419  0.61472712  1
  Si  Si159  1  0.47214868  0.91927889  0.88569514  1
  Si  Si160  1  0.31169755  0.82436485  0.38535446  1
  Si  Si161  1  0.47203423  0.08433287  0.88514390  1
  Si  Si162  1  0.69316220  0.67023262  0.61820110  1
  Si  Si163  1  0.02190869  0.67187398  0.61459474  1
  Si  Si164  1  0.19156507  0.90990807  0.11144790  1
  Si  Si165  1  0.69142093  0.84366283  0.11131088  1
  Si  Si166  1  0.64097586  0.33035889  0.88512419  1
  Si  Si167  1  0.13996303  0.58551275  0.88595120  1
  Si  Si168  1  0.14667639  0.57905147  0.38556820  1
  Si  Si169  1  0.03296247  0.32766015  0.61387461  1
  Si  Si170  1  0.31201737  0.17682849  0.38500833  1
  Si  Si171  1  0.46885965  0.08276231  0.38285888  1
  Si  Si172  1  0.02496057  0.83715727  0.61904614  1
  Si  Si173  1  0.97273834  0.15980005  0.38698500  1
  Si  Si174  1  0.86213722  0.58317284  0.11200801  1
  Si  Si175  1  0.96633057  0.83122773  0.89255281  1
  Si  Si176  1  0.47511788  0.41291278  0.88585702  1
  Si  Si177  1  0.19248046  0.58243183  0.11341194  1
  Si  Si178  1  0.53092150  0.58317691  0.61775035  1
  Si  Si179  1  0.85893922  0.08327815  0.61776627  1
  Si  Si180  1  0.69386888  0.16479057  0.61662135  1
  Si  Si181  1  0.47057119  0.57680699  0.88896807  1
  Si  Si182  1  0.02593510  0.16188537  0.61647314  1
  Si  Si183  1  0.02508197  0.33695897  0.11208042  1
  Si  Si184  1  0.14077314  0.41899818  0.88482147  1
  Si  Si185  1  0.30676649  0.33447718  0.88456200  1
  Si  Si186  1  0.02402746  0.17169240  0.11053787  1
  Si  Si187  1  0.35788721  0.33597950  0.11206940  1
  Si  Si188  1  0.68882255  0.32936969  0.61371058  1
  Si  Si189  1  0.80987996  0.08567576  0.88654989  1
  Si  Si190  1  0.35974074  0.17023470  0.11010378  1
  Si  Si191  1  0.52495480  0.41828807  0.11180119  1
  O  O192  1  0.27741100  0.12821451  0.07184339  1
  O  O193  1  0.26480480  0.10771543  0.57922535  1
  O  O194  1  0.26697278  0.62309900  0.08078434  1
  O  O195  1  0.28334486  0.61105265  0.57553765  1
  O  O196  1  0.59637726  0.10780357  0.07381812  1
  O  O197  1  0.61920132  0.10837346  0.58864380  1
  O  O198  1  0.59095937  0.62186234  0.07816008  1
  O  O199  1  0.60790491  0.62357477  0.58790831  1
  O  O200  1  0.93538142  0.12938215  0.08156117  1
  O  O201  1  0.94011583  0.11496111  0.58885908  1
  O  O202  1  0.94413232  0.61786400  0.08309734  1
  O  O203  1  0.93541772  0.62580170  0.58766662  1
  O  O204  1  0.10244662  0.37564902  0.08049261  1
  O  O205  1  0.12425483  0.34731587  0.59211097  1
  O  O206  1  0.10469231  0.86252164  0.08559948  1
  O  O207  1  0.10554244  0.86420932  0.58607590  1
  O  O208  1  0.43572165  0.37457809  0.08172000  1
  O  O209  1  0.43923822  0.37640996  0.58601592  1
  O  O210  1  0.43868023  0.86607870  0.08424945  1
  O  O211  1  0.42758172  0.86140653  0.57490547  1
  O  O212  1  0.76978613  0.38040673  0.07817270  1
  O  O213  1  0.76761753  0.35412034  0.58113050  1
  O  O214  1  0.76925065  0.88756737  0.08436174  1
  O  O215  1  0.78398113  0.86481475  0.58940453  1
  O  O216  1  0.26871015  0.37845437  0.07866092  1
  O  O217  1  0.27879912  0.39836505  0.58883066  1
  O  O218  1  0.27027059  0.86958044  0.08281160  1
  O  O219  1  0.26728525  0.87403866  0.58608051  1
  O  O220  1  0.60221727  0.38242721  0.07905744  1
  O  O221  1  0.60376286  0.37751194  0.58698370  1
  O  O222  1  0.60449810  0.89237615  0.08492448  1
  O  O223  1  0.62091252  0.88441420  0.57832434  1
  O  O224  1  0.93678082  0.37935577  0.08125463  1
  O  O225  1  0.95937713  0.38062182  0.58060136  1
  O  O226  1  0.93631108  0.86939575  0.08494425  1
  O  O227  1  0.94534876  0.89182498  0.58945534  1
  O  O228  1  0.09495510  0.13596931  0.07377695  1
  O  O229  1  0.10171369  0.12220453  0.58701906  1
  O  O230  1  0.10492568  0.62564531  0.08204918  1
  O  O231  1  0.09762433  0.64864852  0.57653586  1
  O  O232  1  0.44030477  0.13426718  0.08213910  1
  O  O233  1  0.45869918  0.14677404  0.58127644  1
  O  O234  1  0.42795663  0.62254547  0.07938922  1
  O  O235  1  0.44659775  0.63212495  0.58939344  1
  O  O236  1  0.77396563  0.11381054  0.07228257  1
  O  O237  1  0.77850392  0.13558311  0.58938381  1
  O  O238  1  0.78021631  0.62676401  0.07624871  1
  O  O239  1  0.77263722  0.63782204  0.58748671  1
  O  O240  1  0.04222069  0.09968380  0.41728421  1
  O  O241  1  0.06337945  0.12643687  0.91594545  1
  O  O242  1  0.07141349  0.60310314  0.42330809  1
  O  O243  1  0.06553452  0.62655924  0.91762285  1
  O  O244  1  0.39559857  0.12575948  0.41299092  1
  O  O245  1  0.39722667  0.12891377  0.91410749  1
  O  O246  1  0.38784669  0.60732632  0.41143753  1
  O  O247  1  0.38662965  0.60825003  0.91739961  1
  O  O248  1  0.72143784  0.09792156  0.41244295  1
  O  O249  1  0.72891862  0.12196979  0.91371668  1
  O  O250  1  0.70503761  0.62784963  0.42316577  1
  O  O251  1  0.74264679  0.61365768  0.92672014  1
  O  O252  1  0.21755579  0.35628338  0.41069513  1
  O  O253  1  0.23009168  0.37655023  0.91355922  1
  O  O254  1  0.23357779  0.84635917  0.42008189  1
  O  O255  1  0.24212101  0.85954462  0.92823937  1
  O  O256  1  0.54415656  0.34827218  0.42603311  1
  O  O257  1  0.56249308  0.36789750  0.91434818  1
  O  O258  1  0.56230490  0.88324489  0.41178202  1
  O  O259  1  0.56364827  0.88377145  0.91793030  1
  O  O260  1  0.88727028  0.35619636  0.42870357  1
  O  O261  1  0.89668725  0.36731469  0.91525829  1
  O  O262  1  0.88520471  0.85996507  0.41202162  1
  O  O263  1  0.88546092  0.86876893  0.92119738  1
  O  O264  1  0.06543552  0.39689579  0.42228218  1
  O  O265  1  0.06336618  0.37917575  0.91474849  1
  O  O266  1  0.04223726  0.90316671  0.41587379  1
  O  O267  1  0.05203227  0.86864371  0.93067250  1
  O  O268  1  0.37247243  0.39978483  0.41773254  1
  O  O269  1  0.39638734  0.37388866  0.91478732  1
  O  O270  1  0.39757429  0.87258656  0.41247408  1
  O  O271  1  0.40119756  0.87397487  0.91733707  1
  O  O272  1  0.71228101  0.38426522  0.42717603  1
  O  O273  1  0.73091767  0.37012273  0.91561642  1
  O  O274  1  0.72455242  0.88921976  0.41163736  1
  O  O275  1  0.72350671  0.89409179  0.91781653  1
  O  O276  1  0.23235595  0.15561397  0.41875056  1
  O  O277  1  0.22922043  0.13356456  0.91537312  1
  O  O278  1  0.22804003  0.63398884  0.41221658  1
  O  O279  1  0.22706886  0.62938933  0.91551229  1
  O  O280  1  0.56094037  0.11465659  0.41684145  1
  O  O281  1  0.56346798  0.12393659  0.91394210  1
  O  O282  1  0.54038457  0.65558222  0.41112354  1
  O  O283  1  0.55114214  0.62295491  0.92270676  1
  O  O284  1  0.88316425  0.13408275  0.41269882  1
  O  O285  1  0.89540119  0.13299432  0.91506501  1
  O  O286  1  0.89120480  0.65074182  0.43336282  1
  O  O287  1  0.90492844  0.61392350  0.92211818  1
  O  O288  1  0.17827922  -0.01323180  0.07525410  1
  O  O289  1  0.17131757  -0.00694598  0.58838699  1
  O  O290  1  0.18362543  0.49989307  0.08283792  1
  O  O291  1  0.15044149  0.48921318  0.58187604  1
  O  O292  1  0.49322182  -0.00128934  0.08445475  1
  O  O293  1  0.50268656  0.00938536  0.57654935  1
  O  O294  1  0.50816325  0.49967998  0.07976020  1
  O  O295  1  0.51876498  0.50129330  0.58435051  1
  O  O296  1  0.87250818  -0.00145582  0.08435637  1
  O  O297  1  0.83962736  0.00087704  0.59017688  1
  O  O298  1  0.85599822  0.50056450  0.08092373  1
  O  O299  1  0.83788818  0.50961568  0.58119537  1
  O  O300  1  0.01195846  0.25530653  0.08124541  1
  O  O301  1  0.01250109  0.24376481  0.58842176  1
  O  O302  1  0.01585175  0.74567591  0.08361922  1
  O  O303  1  -0.00383527  0.75643137  0.59300667  1
  O  O304  1  0.35150690  0.25401489  0.08076533  1
  O  O305  1  0.33103852  0.26532330  0.57706363  1
  O  O306  1  0.34887619  0.74691940  0.08297861  1
  O  O307  1  0.34090750  0.74472009  0.58306956  1
  O  O308  1  0.68222071  0.26040913  0.07065014  1
  O  O309  1  0.66670186  0.24510613  0.58913522  1
  O  O310  1  0.67904795  0.76737557  0.07456717  1
  O  O311  1  0.68021450  0.75245839  0.58743980  1
  O  O312  1  0.19514213  0.00092035  0.42769957  1
  O  O313  1  0.15509212  0.00885368  0.92560019  1
  O  O314  1  0.18016908  0.49732517  0.40880137  1
  O  O315  1  0.14896904  0.50151332  0.91486267  1
  O  O316  1  0.46838971  -0.00066307  0.41093978  1
  O  O317  1  0.47396746  0.00282266  0.91602770  1
  O  O318  1  0.51279398  0.51404501  0.42022389  1
  O  O319  1  0.48283686  0.49293063  0.91889424  1
  O  O320  1  0.83412234  -0.00349015  0.41252895  1
  O  O321  1  0.82590092  0.00388526  0.91611983  1
  O  O322  1  0.82689033  0.50208548  0.43268055  1
  O  O323  1  0.82229152  0.49164939  0.91775836  1
  O  O324  1  0.34020909  0.25878286  0.41045338  1
  O  O325  1  0.31334253  0.25242115  0.91450342  1
  O  O326  1  0.33939441  0.74183229  0.41018656  1
  O  O327  1  0.33169526  0.74319701  0.91781830  1
  O  O328  1  0.66228686  0.22857330  0.42345090  1
  O  O329  1  0.64913701  0.24696792  0.91340949  1
  O  O330  1  0.64891829  0.76218810  0.41704153  1
  O  O331  1  0.65553439  0.76406318  0.92583635  1
  O  O332  1  1.00224493  0.23644926  0.42034412  1
  O  O333  1  0.98920495  0.25118234  0.91620139  1
  O  O334  1  1.01300126  0.76396731  0.41996207  1
  O  O335  1  0.96900188  0.74505058  0.91557133  1
  O  O336  1  0.21366240  0.08328655  0.19917562  1
  O  O337  1  0.20762512  0.08159597  0.69506794  1
  O  O338  1  0.21243400  0.58641118  0.19230413  1
  O  O339  1  0.21116682  0.58238886  0.70098756  1
  O  O340  1  0.54092604  0.08096359  0.19134227  1
  O  O341  1  0.54402762  0.08506817  0.69323218  1
  O  O342  1  0.53123556  0.58366862  0.19045649  1
  O  O343  1  0.54818262  0.57503637  0.69610941  1
  O  O344  1  0.87754920  0.08311808  0.19127895  1
  O  O345  1  0.87772976  0.08368826  0.69852309  1
  O  O346  1  0.87900293  0.58302151  0.19185523  1
  O  O347  1  0.87476859  0.58466917  0.69595533  1
  O  O348  1  0.04511920  0.33539129  0.19156867  1
  O  O349  1  0.04518452  0.33010246  0.69566086  1
  O  O350  1  0.04282913  0.82955478  0.19487778  1
  O  O351  1  0.04670646  0.84171492  0.69822870  1
  O  O352  1  0.36905064  0.33479725  0.19072002  1
  O  O353  1  0.37628955  0.33552500  0.69387009  1
  O  O354  1  0.37620065  0.83159577  0.19306590  1
  O  O355  1  0.37757612  0.82949006  0.69234881  1
  O  O356  1  0.71308363  0.33496120  0.18713671  1
  O  O357  1  0.70824516  0.33103620  0.69529815  1
  O  O358  1  0.70942447  0.83981466  0.19212028  1
  O  O359  1  0.71274121  0.83810834  0.69656698  1
  O  O360  1  0.21076114  0.41359654  0.19127418  1
  O  O361  1  0.20913588  0.41603372  0.69619466  1
  O  O362  1  0.21246713  0.91234857  0.19186767  1
  O  O363  1  0.20906713  0.91412930  0.69732668  1
  O  O364  1  0.54451381  0.41955704  0.19037597  1
  O  O365  1  0.54386160  0.41628637  0.69552617  1
  O  O366  1  0.53940518  0.91680728  0.19367875  1
  O  O367  1  0.54540337  0.91968123  0.70198519  1
  O  O368  1  0.87780295  0.41714154  0.19142598  1
  O  O369  1  0.87854101  0.41522675  0.70171966  1
  O  O370  1  0.87966643  0.91650398  0.19435925  1
  O  O371  1  0.87886787  0.91906141  0.69944658  1
  O  O372  1  0.04240924  0.16986684  0.19096640  1
  O  O373  1  0.04345040  0.16391602  0.69750789  1
  O  O374  1  0.04720171  0.66561179  0.19372297  1
  O  O375  1  0.04727379  0.66121603  0.69415191  1
  O  O376  1  0.37467362  0.16747150  0.19053999  1
  O  O377  1  0.37612443  0.16779968  0.70028104  1
  O  O378  1  0.37431579  0.66610286  0.19216856  1
  O  O379  1  0.36714716  0.66496183  0.69279713  1
  O  O380  1  0.71333979  0.16331856  0.19874509  1
  O  O381  1  0.71254738  0.16566983  0.69765603  1
  O  O382  1  0.71788787  0.67817961  0.19984465  1
  O  O383  1  0.71214326  0.67119439  0.69759177  1
  O  O384  1  0.12189015  0.08449815  0.29788803  1
  O  O385  1  0.12406821  0.08508819  0.80814794  1
  O  O386  1  0.12335519  0.58503699  0.30541047  1
  O  O387  1  0.12117572  0.58305876  0.80620585  1
  O  O388  1  0.45377635  0.08270506  0.30235623  1
  O  O389  1  0.45716629  0.08477717  0.80513726  1
  O  O390  1  0.45710597  0.58565576  0.30361322  1
  O  O391  1  0.45062563  0.57386347  0.80934473  1
  O  O392  1  0.79040539  0.07879399  0.30326345  1
  O  O393  1  0.79139498  0.08516748  0.80617910  1
  O  O394  1  0.80105217  0.58385073  0.30415227  1
  O  O395  1  0.79728521  0.57872752  0.81011472  1
  O  O396  1  0.28908843  0.33609613  0.30302310  1
  O  O397  1  0.28923283  0.33370047  0.80420374  1
  O  O398  1  0.29268585  0.83023280  0.30405333  1
  O  O399  1  0.29097976  0.82921627  0.80970907  1
  O  O400  1  0.62318819  0.32802293  0.29619952  1
  O  O401  1  0.62353224  0.33096141  0.80481233  1
  O  O402  1  0.62179613  0.83880912  0.30314353  1
  O  O403  1  0.62563042  0.83807302  0.80970225  1
  O  O404  1  0.95542129  0.33319909  0.29663309  1
  O  O405  1  0.95950318  0.33117572  0.80581033  1
  O  O406  1  0.95776731  0.83640110  0.30571099  1
  O  O407  1  0.95039281  0.84159664  0.81312148  1
  O  O408  1  0.12080317  0.41347747  0.30436746  1
  O  O409  1  0.12258971  0.41630694  0.80468093  1
  O  O410  1  0.12589788  0.91635720  0.29739018  1
  O  O411  1  0.12361865  0.91681512  0.80527747  1
  O  O412  1  0.45196196  0.41968408  0.29719282  1
  O  O413  1  0.45610101  0.41298422  0.80563324  1
  O  O414  1  0.45415748  0.91603686  0.30172395  1
  O  O415  1  0.45701827  0.92055728  0.80635324  1
  O  O416  1  0.78801478  0.41564512  0.29863137  1
  O  O417  1  0.78918621  0.41125865  0.80665579  1
  O  O418  1  0.78983045  0.91783383  0.30230253  1
  O  O419  1  0.78961556  0.91997360  0.80803815  1
  O  O420  1  0.29332007  0.17079770  0.30408196  1
  O  O421  1  0.28883879  0.16875510  0.80508559  1
  O  O422  1  0.29108116  0.66409000  0.30187516  1
  O  O423  1  0.29219448  0.66464906  0.80657785  1
  O  O424  1  0.61706682  0.15452296  0.30703492  1
  O  O425  1  0.62284467  0.16589349  0.80405201  1
  O  O426  1  0.61561245  0.68010214  0.30751527  1
  O  O427  1  0.63420371  0.66958907  0.80506397  1
  O  O428  1  0.95547814  0.16334580  0.30495266  1
  O  O429  1  0.95723527  0.16783030  0.80630012  1
  O  O430  1  0.95835376  0.66718558  0.29942915  1
  O  O431  1  0.95164649  0.65792952  0.80867389  1
  F  F432  1  0.04360801  -0.00087636  0.19706328  1
  F  F433  1  0.04440321  0.00211999  0.70608322  1
  F  F434  1  0.04165759  0.50045461  0.19973088  1
  F  F435  1  0.04444643  0.49931607  0.70333833  1
  F  F436  1  0.37743945  -0.00129104  0.19928289  1
  F  F437  1  0.37912068  0.00463607  0.69972120  1
  F  F438  1  0.37553996  0.50211917  0.19518575  1
  F  F439  1  0.38086960  0.49823598  0.70362355  1
  F  F440  1  0.71120243  -0.00030904  0.19916404  1
  F  F441  1  0.71493371  0.00165844  0.70435383  1
  F  F442  1  0.71443983  0.49227421  0.19353248  1
  F  F443  1  0.71450912  0.49531788  0.70379540  1
  F  F444  1  0.21208440  0.25113504  0.20045137  1
  F  F445  1  0.21080153  0.24884204  0.70336596  1
  F  F446  1  0.21205607  0.74896987  0.20045511  1
  F  F447  1  0.21249498  0.75139241  0.70372951  1
  F  F448  1  0.54299405  0.23992372  0.18640130  1
  F  F449  1  0.54565814  0.25036433  0.70271289  1
  F  F450  1  0.54415678  0.75289142  0.19923161  1
  F  F451  1  0.55138837  0.76391943  0.69929586  1
  F  F452  1  0.87931472  0.24660932  0.19696468  1
  F  F453  1  0.87944468  0.24798250  0.70329392  1
  F  F454  1  0.88113815  0.75425087  0.20107860  1
  F  F455  1  0.86741703  0.75071344  0.70445339  1
  F  F456  1  0.29200142  -0.00229629  0.29641712  1
  F  F457  1  0.28723506  0.00858368  0.80198409  1
  F  F458  1  0.28966079  0.50043912  0.29415175  1
  F  F459  1  0.28697470  0.49567817  0.80024032  1
  F  F460  1  0.61925460  -0.00149021  0.29452483  1
  F  F461  1  0.62276297  0.00516010  0.80029718  1
  F  F462  1  0.61717041  0.49043960  0.29872564  1
  F  F463  1  0.61907316  0.48803943  0.80606997  1
  F  F464  1  0.95367352  0.00086516  0.29344031  1
  F  F465  1  0.95455140  0.00357670  0.80297555  1
  F  F466  1  0.95410884  0.49902289  0.29643605  1
  F  F467  1  0.95755956  0.49889600  0.79963828  1
  F  F468  1  0.12080022  0.25033232  0.29387703  1
  F  F469  1  0.12225693  0.24945735  0.79906417  1
  F  F470  1  0.12464327  0.74855520  0.29633846  1
  F  F471  1  0.13452791  0.74736866  0.80483358  1
  F  F472  1  0.45386707  0.24636883  0.29411670  1
  F  F473  1  0.45601808  0.25224988  0.79854248  1
  F  F474  1  0.45262826  0.75112045  0.29381685  1
  F  F475  1  0.45119834  0.76045660  0.80231779  1
  F  F476  1  0.79737062  0.25001202  0.29901490  1
  F  F477  1  0.78909703  0.24974345  0.79903367  1
  F  F478  1  0.78851131  0.75868266  0.30019600  1
  F  F479  1  0.78814253  0.75338682  0.80344179  1
