# generated using pymatgen
data_K24Na3Li5Mg64Fe17Si79(O5F)48
_symmetry_space_group_name_H-M   'P 1'
_cell_length_a   16.09234317
_cell_length_b   18.58241007
_cell_length_c   20.54296586
_cell_angle_alpha   89.99392862
_cell_angle_beta   100.01094630
_cell_angle_gamma   90.00779660
_symmetry_Int_Tables_number   1
_chemical_formula_structural   K24Na3Li5Mg64Fe17Si79(O5F)48
_chemical_formula_sum   'K24 Na3 Li5 Mg64 Fe17 Si79 O240 F48'
_cell_volume   6049.52512564
_cell_formula_units_Z   1
loop_
 _symmetry_equiv_pos_site_id
 _symmetry_equiv_pos_as_xyz
  1  'x, y, z'
loop_
 _atom_site_type_symbol
 _atom_site_label
 _atom_site_symmetry_multiplicity
 _atom_site_fract_x
 _atom_site_fract_y
 _atom_site_fract_z
 _atom_site_occupancy
  K  K0  1  0.00227339  -0.00561915  -0.00381436  1
  K  K1  1  -0.00187803  -0.00771421  0.51350618  1
  K  K2  1  -0.01128228  0.49750984  -0.02103810  1
  K  K3  1  -0.00978001  0.49401060  0.51722559  1
  K  K4  1  0.32942390  -0.00256905  0.00688829  1
  K  K5  1  0.34593467  0.00145954  0.49974588  1
  K  K6  1  0.32631433  0.49843748  -0.00530278  1
  K  K7  1  0.33909211  0.50451195  0.50851199  1
  K  K8  1  0.65998374  -0.00006916  -0.00459801  1
  K  K9  1  0.65947958  0.00361390  0.50148271  1
  K  K10  1  0.67536142  0.49311827  -0.00858541  1
  K  K11  1  0.67710530  0.49793010  0.51894169  1
  K  K12  1  0.16154167  0.24875926  -0.00463944  1
  K  K13  1  0.17433528  0.24731990  0.50474399  1
  K  K14  1  0.16480768  0.75273633  -0.00592457  1
  K  K15  1  0.15938028  0.75363974  0.51068877  1
  K  K16  1  0.50321219  0.25271728  -0.00003772  1
  K  K17  1  0.50323215  0.23468968  0.50482598  1
  K  K18  1  0.50189673  0.75606608  -0.00331348  1
  K  K19  1  0.50622173  0.75407510  0.50815382  1
  K  K20  1  0.83242547  0.25098209  -0.00862117  1
  K  K21  1  0.83000681  0.25365718  0.51186072  1
  K  K22  1  0.83771350  0.74641967  -0.01425947  1
  K  K23  1  0.84350159  0.75875586  0.51771686  1
  Na  Na24  1  0.83899779  0.49890012  0.75735606  1
  Na  Na25  1  0.66368632  0.92219520  0.75440102  1
  Na  Na26  1  0.66139561  0.07780816  0.25258424  1
  Li  Li27  1  0.50367632  -0.00093907  0.75088184  1
  Li  Li28  1  0.49764905  0.00282798  0.24654378  1
  Li  Li29  1  -0.00285770  0.57835516  0.75703847  1
  Li  Li30  1  -0.00388619  0.91127137  0.75176814  1
  Li  Li31  1  0.83744944  0.33658977  0.75557124  1
  Mg  Mg32  1  0.33387879  0.25051051  0.74856502  1
  Mg  Mg33  1  0.66646684  0.75118114  0.75085935  1
  Mg  Mg34  1  0.83353997  -0.00002248  0.25108209  1
  Mg  Mg35  1  0.83430734  0.49885954  0.24703046  1
  Mg  Mg36  1  0.50123094  0.50074459  0.24884826  1
  Mg  Mg37  1  0.33253931  0.74954854  0.74671429  1
  Mg  Mg38  1  0.67091872  0.25055211  0.74983004  1
  Mg  Mg39  1  -0.00055956  0.75015436  0.75102829  1
  Mg  Mg40  1  0.66713383  0.75256361  0.25023093  1
  Mg  Mg41  1  0.33372311  0.75017872  0.24765343  1
  Mg  Mg42  1  0.16627697  0.50045286  0.24749637  1
  Mg  Mg43  1  -0.00374666  0.24967132  0.74895127  1
  Mg  Mg44  1  -0.00015297  0.24996508  0.24879560  1
  Mg  Mg45  1  0.16434241  0.49862416  0.74687215  1
  Mg  Mg46  1  0.33527550  0.24878955  0.24926814  1
  Mg  Mg47  1  0.00085447  0.75064429  0.24902491  1
  Mg  Mg48  1  0.16443105  -0.00217602  0.74974231  1
  Mg  Mg49  1  0.66781084  0.24891384  0.24744118  1
  Mg  Mg50  1  0.50189259  0.50213091  0.74658862  1
  Mg  Mg51  1  0.17153441  0.00072303  0.24635949  1
  Mg  Mg52  1  0.83371044  -0.00212453  0.75148437  1
  Mg  Mg53  1  0.33152399  0.41659411  0.74666321  1
  Mg  Mg54  1  0.00288232  0.91671482  0.24958193  1
  Mg  Mg55  1  0.83367617  0.66703864  0.25040212  1
  Mg  Mg56  1  0.33055663  0.58379645  0.24724434  1
  Mg  Mg57  1  0.83150926  0.16641794  0.75184529  1
  Mg  Mg58  1  0.66382555  0.91914856  0.25291980  1
  Mg  Mg59  1  0.33489391  0.91657104  0.24882558  1
  Mg  Mg60  1  0.66806415  0.41514996  0.24704372  1
  Mg  Mg61  1  0.33516622  0.08265928  0.75024106  1
  Mg  Mg62  1  0.33631211  0.08262053  0.24687714  1
  Mg  Mg63  1  0.83432307  0.83573101  0.75182846  1
  Mg  Mg64  1  0.66839067  0.58515322  0.25087823  1
  Mg  Mg65  1  0.50049050  0.33367662  0.74709881  1
  Mg  Mg66  1  0.50113948  0.16314722  0.74937122  1
  Mg  Mg67  1  -0.00160043  0.41646126  0.75337200  1
  Mg  Mg68  1  -0.00119448  0.07969938  0.75112934  1
  Mg  Mg69  1  0.83117026  0.33421729  0.24564736  1
  Mg  Mg70  1  0.16353773  0.83440163  0.75139726  1
  Mg  Mg71  1  0.16593183  0.33390766  0.24849128  1
  Mg  Mg72  1  0.83031643  0.16496550  0.24865599  1
  Mg  Mg73  1  0.16574607  0.66464970  0.24667867  1
  Mg  Mg74  1  0.49852336  0.66681303  0.74914285  1
  Mg  Mg75  1  0.66437704  0.08260755  0.75043474  1
  Mg  Mg76  1  0.16218057  0.66530664  0.74525218  1
  Mg  Mg77  1  0.16394386  0.33412681  0.74779733  1
  Mg  Mg78  1  0.00044205  0.08448253  0.24881921  1
  Mg  Mg79  1  0.16829513  0.83475969  0.24825431  1
  Mg  Mg80  1  0.66668502  0.58500832  0.74681804  1
  Mg  Mg81  1  0.33163706  0.58472942  0.74464444  1
  Mg  Mg82  1  0.33297436  0.41619458  0.24853362  1
  Mg  Mg83  1  0.83721475  0.66696396  0.75346832  1
  Mg  Mg84  1  0.83322141  0.83594973  0.25050048  1
  Mg  Mg85  1  0.16612715  0.16577823  0.75115065  1
  Mg  Mg86  1  -0.00278001  0.41605181  0.24787214  1
  Mg  Mg87  1  0.49954714  0.83791119  0.24969782  1
  Mg  Mg88  1  0.50182911  0.16325838  0.24985831  1
  Mg  Mg89  1  0.49860670  0.83572968  0.75016924  1
  Mg  Mg90  1  -0.00132826  0.58454587  0.24796684  1
  Mg  Mg91  1  0.50007463  0.66689636  0.24991727  1
  Mg  Mg92  1  0.16839359  0.16485345  0.24825838  1
  Mg  Mg93  1  0.33431699  0.91807653  0.74736574  1
  Mg  Mg94  1  0.50227449  0.33472844  0.24871278  1
  Mg  Mg95  1  0.67116221  0.41595339  0.74867159  1
  Fe  Fe96  1  0.86492561  0.58697761  0.61308409  1
  Fe  Fe97  1  0.52539106  0.91857914  0.11203152  1
  Fe  Fe98  1  0.18704486  0.58072072  0.10659013  1
  Fe  Fe99  1  0.68985205  0.32815243  0.10610379  1
  Fe  Fe100  1  0.02418319  0.83776856  0.61209260  1
  Fe  Fe101  1  0.85829549  0.41270739  0.61085220  1
  Fe  Fe102  1  0.97805478  0.32848726  0.89233991  1
  Fe  Fe103  1  0.47728194  0.08197136  0.39013359  1
  Fe  Fe104  1  0.19019434  0.41202419  0.60794510  1
  Fe  Fe105  1  0.97881287  0.83669421  0.89280477  1
  Fe  Fe106  1  0.52775139  0.58625962  0.60753946  1
  Fe  Fe107  1  0.19116733  0.91320170  0.10785091  1
  Fe  Fe108  1  0.19115104  0.08872805  0.10642196  1
  Fe  Fe109  1  0.35542254  0.67025029  0.60618810  1
  Fe  Fe110  1  0.86149209  0.41806862  0.10667864  1
  Fe  Fe111  1  0.80413028  0.58489073  0.89223773  1
  Fe  Fe112  1  0.68810783  0.16414668  0.61137726  1
  Si  Si113  1  0.81012422  0.41860409  0.38510157  1
  Si  Si114  1  0.36239146  0.82722507  0.11122808  1
  Si  Si115  1  0.63517699  0.32976401  0.88479536  1
  Si  Si116  1  0.30675105  0.82916672  0.38672700  1
  Si  Si117  1  0.98146238  0.66661243  0.89159270  1
  Si  Si118  1  0.97518611  0.16536843  0.38644374  1
  Si  Si119  1  0.80466224  0.08145316  0.88753106  1
  Si  Si120  1  0.47164221  0.08368624  0.88543249  1
  Si  Si121  1  0.69398677  0.67268364  0.11631555  1
  Si  Si122  1  0.63402698  0.67022720  0.89045329  1
  Si  Si123  1  0.85852906  0.08281063  0.61485679  1
  Si  Si124  1  0.14455615  0.58231251  0.88202102  1
  Si  Si125  1  0.35391251  0.83815025  0.61151561  1
  Si  Si126  1  0.68677973  0.83614191  0.61610394  1
  Si  Si127  1  0.15188463  0.91949457  0.88821538  1
  Si  Si128  1  0.81144416  0.08394474  0.38615909  1
  Si  Si129  1  0.14687639  0.08204539  0.88567437  1
  Si  Si130  1  0.36103780  0.66325003  0.11296530  1
  Si  Si131  1  0.52484926  0.42405171  0.11125760  1
  Si  Si132  1  0.85758484  0.08190249  0.11449652  1
  Si  Si133  1  0.02607495  0.32310757  0.60944047  1
  Si  Si134  1  0.63530608  0.83407524  0.88664016  1
  Si  Si135  1  0.36069491  0.33869585  0.11388757  1
  Si  Si136  1  0.47026320  0.58284484  0.88481214  1
  Si  Si137  1  0.14293232  0.91752305  0.38588427  1
  Si  Si138  1  0.85429146  0.58743328  0.11392626  1
  Si  Si139  1  0.52123934  0.08426527  0.11248976  1
  Si  Si140  1  0.13849324  0.41768907  0.38442517  1
  Si  Si141  1  0.47359147  0.41766758  0.88325995  1
  Si  Si142  1  0.68478196  0.33163744  0.61179029  1
  Si  Si143  1  0.80771828  0.91749367  0.38746460  1
  Si  Si144  1  0.03155146  0.67008193  0.61002543  1
  Si  Si145  1  0.01918337  0.17120955  0.11291514  1
  Si  Si146  1  0.30600476  0.66422244  0.38467240  1
  Si  Si147  1  0.63777773  0.16497196  0.88568353  1
  Si  Si148  1  0.30611290  0.17013693  0.38787284  1
  Si  Si149  1  0.30631871  0.33665573  0.38479887  1
  Si  Si150  1  0.84908371  0.91917027  0.61283276  1
  Si  Si151  1  0.64634982  0.17288191  0.38736956  1
  Si  Si152  1  0.69685573  0.83736389  0.11478201  1
  Si  Si153  1  0.18899394  0.41033377  0.11284775  1
  Si  Si154  1  0.97531987  0.83606824  0.38624459  1
  Si  Si155  1  0.30917402  0.16903324  0.88598744  1
  Si  Si156  1  0.31063482  0.33395625  0.88490938  1
  Si  Si157  1  0.01914296  0.66874462  0.11326364  1
  Si  Si158  1  0.14598698  0.41678638  0.88785558  1
  Si  Si159  1  0.97701203  0.15667354  0.88947238  1
  Si  Si160  1  0.86319418  0.91639627  0.11670273  1
  Si  Si161  1  0.30615152  0.66591886  0.88319717  1
  Si  Si162  1  0.81062797  0.58399616  0.38575316  1
  Si  Si163  1  0.36417855  0.33092798  0.61114481  1
  Si  Si164  1  0.35854217  0.16544046  0.61468941  1
  Si  Si165  1  0.19000032  0.58091456  0.60954936  1
  Si  Si166  1  0.52466116  0.41539868  0.61291884  1
  Si  Si167  1  0.47141866  0.91807245  0.88463378  1
  Si  Si168  1  0.02256802  0.82978353  0.11467692  1
  Si  Si169  1  0.97524680  0.66941881  0.38580977  1
  Si  Si170  1  0.80128538  0.40947095  0.89061829  1
  Si  Si171  1  0.64356044  0.33766752  0.38601882  1
  Si  Si172  1  0.64342016  0.66496090  0.38670828  1
  Si  Si173  1  0.68874802  0.16068120  0.11188411  1
  Si  Si174  1  0.97434331  0.33157152  0.38532979  1
  Si  Si175  1  0.31111843  0.83166709  0.88456757  1
  Si  Si176  1  0.51901280  0.91470045  0.61680534  1
  Si  Si177  1  0.19504908  0.92310801  0.61246945  1
  Si  Si178  1  0.64377125  0.83056625  0.38738661  1
  Si  Si179  1  0.47517311  0.41711829  0.38514263  1
  Si  Si180  1  0.47378501  0.90870259  0.38921275  1
  Si  Si181  1  0.02387055  0.16044133  0.61712032  1
  Si  Si182  1  0.52973608  0.58921757  0.11531546  1
  Si  Si183  1  0.36541961  0.17313584  0.10997911  1
  Si  Si184  1  0.14076498  0.08383601  0.38522563  1
  Si  Si185  1  0.80585647  0.91656344  0.89120455  1
  Si  Si186  1  0.69621344  0.67335903  0.61101046  1
  Si  Si187  1  0.52091812  0.07796378  0.61349770  1
  Si  Si188  1  0.02784929  0.33368059  0.11490883  1
  Si  Si189  1  0.19232092  0.08706455  0.61628229  1
  Si  Si190  1  0.13853404  0.58320516  0.38507539  1
  Si  Si191  1  0.47463249  0.58369232  0.38466872  1
  O  O192  1  0.28658158  0.12620759  0.07351149  1
  O  O193  1  0.27007127  0.12314101  0.58491367  1
  O  O194  1  0.29133383  0.60504462  0.08046027  1
  O  O195  1  0.27241366  0.60058047  0.57705297  1
  O  O196  1  0.61238206  0.10219183  0.08798445  1
  O  O197  1  0.59541199  0.10438009  0.57571515  1
  O  O198  1  0.61364769  0.61938640  0.08792959  1
  O  O199  1  0.62414329  0.61759121  0.57504991  1
  O  O200  1  0.93755292  0.11758473  0.08614797  1
  O  O201  1  0.94876884  0.10304929  0.58886153  1
  O  O202  1  0.93971446  0.61423441  0.08749142  1
  O  O203  1  0.96040318  0.61318536  0.57652180  1
  O  O204  1  0.12145579  0.34377671  0.09270075  1
  O  O205  1  0.10997969  0.34056956  0.57707988  1
  O  O206  1  0.10327825  0.84472271  0.08108391  1
  O  O207  1  0.11615207  0.87710101  0.57489294  1
  O  O208  1  0.43625895  0.37987502  0.08429632  1
  O  O209  1  0.45242568  0.35300836  0.58632752  1
  O  O210  1  0.44874647  0.84333730  0.08307445  1
  O  O211  1  0.43908155  0.86352778  0.58234282  1
  O  O212  1  0.78410798  0.35011339  0.07051827  1
  O  O213  1  0.76380815  0.35498027  0.57716562  1
  O  O214  1  0.78618585  0.86038187  0.08972762  1
  O  O215  1  0.76184350  0.87376402  0.58207773  1
  O  O216  1  0.27536073  0.38486765  0.08564341  1
  O  O217  1  0.28855271  0.38133273  0.57461674  1
  O  O218  1  0.28796542  0.88025352  0.07685606  1
  O  O219  1  0.28311735  0.90163764  0.58617365  1
  O  O220  1  0.59841571  0.39341574  0.07561208  1
  O  O221  1  0.60892052  0.39106294  0.58423952  1
  O  O222  1  0.62519444  0.89119387  0.07927568  1
  O  O223  1  0.60191763  0.88513646  0.58742758  1
  O  O224  1  0.96782604  0.39787594  0.08271870  1
  O  O225  1  0.94860797  0.37208276  0.57347284  1
  O  O226  1  0.94710467  0.88899816  0.08919325  1
  O  O227  1  0.92360418  0.88817264  0.57652287  1
  O  O228  1  0.09807010  0.15178536  0.07817120  1
  O  O229  1  0.10804796  0.13436094  0.58679012  1
  O  O230  1  0.09978587  0.64830435  0.08006482  1
  O  O231  1  0.12068559  0.64486417  0.58536455  1
  O  O232  1  0.45239910  0.14891909  0.08310484  1
  O  O233  1  0.43374992  0.12558754  0.58451378  1
  O  O234  1  0.45178295  0.64384648  0.08798846  1
  O  O235  1  0.44417744  0.64682394  0.56431802  1
  O  O236  1  0.77212494  0.12627478  0.08409798  1
  O  O237  1  0.78710364  0.13765229  0.57874352  1
  O  O238  1  0.77944145  0.64797494  0.08989228  1
  O  O239  1  0.78200191  0.65777459  0.58215422  1
  O  O240  1  0.06331191  0.12208808  0.41567400  1
  O  O241  1  0.06254624  0.10576502  0.91507842  1
  O  O242  1  0.06454477  0.62790505  0.41447585  1
  O  O243  1  0.06703682  0.61473073  0.91425123  1
  O  O244  1  0.38952639  0.13082574  0.42567715  1
  O  O245  1  0.39557855  0.12449244  0.91716989  1
  O  O246  1  0.39626479  0.62335611  0.41217710  1
  O  O247  1  0.38971043  0.61700327  0.91435835  1
  O  O248  1  0.73754544  0.13005651  0.41240934  1
  O  O249  1  0.72992601  0.12823037  0.91586206  1
  O  O250  1  0.73001545  0.61900073  0.41421186  1
  O  O251  1  0.71716398  0.63126394  0.92984376  1
  O  O252  1  0.23068702  0.38069743  0.41277109  1
  O  O253  1  0.23619779  0.37277753  0.91659238  1
  O  O254  1  0.23044901  0.87344319  0.41495023  1
  O  O255  1  0.23605044  0.86908740  0.91714294  1
  O  O256  1  0.56357717  0.37525118  0.41467804  1
  O  O257  1  0.55796145  0.37138451  0.91371909  1
  O  O258  1  0.56353711  0.86370637  0.41671936  1
  O  O259  1  0.56203436  0.88054364  0.91628658  1
  O  O260  1  0.89626451  0.37183045  0.41332062  1
  O  O261  1  0.88506189  0.36522684  0.92492105  1
  O  O262  1  0.89864017  0.87616897  0.41618198  1
  O  O263  1  0.88965478  0.87867706  0.93174396  1
  O  O264  1  0.06412139  0.37338943  0.41351107  1
  O  O265  1  0.07721002  0.38262446  0.92725136  1
  O  O266  1  0.06409869  0.87881997  0.41509697  1
  O  O267  1  0.07569604  0.89426532  0.92393831  1
  O  O268  1  0.39662680  0.37743291  0.41316173  1
  O  O269  1  0.39697949  0.37930847  0.91463595  1
  O  O270  1  0.39774764  0.86422579  0.41942330  1
  O  O271  1  0.39875864  0.87420943  0.91658897  1
  O  O272  1  0.72916215  0.38537742  0.41404436  1
  O  O273  1  0.72088413  0.36935605  0.91956683  1
  O  O274  1  0.73210957  0.87467475  0.41668049  1
  O  O275  1  0.72410857  0.87549076  0.91573761  1
  O  O276  1  0.22432226  0.13170283  0.41449099  1
  O  O277  1  0.22655881  0.13708443  0.91377311  1
  O  O278  1  0.23104711  0.61965928  0.41286980  1
  O  O279  1  0.22849072  0.63132552  0.91473610  1
  O  O280  1  0.57701518  0.13445450  0.42367162  1
  O  O281  1  0.56294425  0.12184591  0.91660402  1
  O  O282  1  0.56315032  0.62641921  0.41325576  1
  O  O283  1  0.55174186  0.63158753  0.91684587  1
  O  O284  1  0.90174156  0.12363850  0.41821195  1
  O  O285  1  0.89770419  0.11627349  0.91801508  1
  O  O286  1  0.89644945  0.63072770  0.41364845  1
  O  O287  1  0.90811783  0.62922082  0.92617025  1
  O  O288  1  0.15861362  0.00085514  0.06893633  1
  O  O289  1  0.17666658  0.00679023  0.58495156  1
  O  O290  1  0.15715907  0.48556629  0.07824793  1
  O  O291  1  0.15324331  0.50402775  0.57817384  1
  O  O292  1  0.48834386  0.00920306  0.07621361  1
  O  O293  1  0.49602034  -0.00434598  0.58609574  1
  O  O294  1  0.50521561  0.50857751  0.08623338  1
  O  O295  1  0.49374943  0.49122426  0.57870153  1
  O  O296  1  0.84337528  -0.00175053  0.08756667  1
  O  O297  1  0.83179514  0.00234658  0.58428744  1
  O  O298  1  0.82141760  0.51200897  0.08184780  1
  O  O299  1  0.83536179  0.50089193  0.56884600  1
  O  O300  1  -0.01129762  0.25407123  0.09072994  1
  O  O301  1  -0.00192406  0.23879933  0.58480976  1
  O  O302  1  -0.01760790  0.74999905  0.09230396  1
  O  O303  1  0.00923153  0.74717276  0.57183596  1
  O  O304  1  0.35076823  0.25787845  0.08298026  1
  O  O305  1  0.34592453  0.24689337  0.58404888  1
  O  O306  1  0.33289292  0.74385943  0.08635605  1
  O  O307  1  0.31857099  0.76421288  0.57628587  1
  O  O308  1  0.65891746  0.23474271  0.07346513  1
  O  O309  1  0.65022272  0.25463679  0.57922758  1
  O  O310  1  0.67201147  0.75400555  0.08819382  1
  O  O311  1  0.66612792  0.75620873  0.58282911  1
  O  O312  1  0.15251000  0.00075962  0.41466456  1
  O  O313  1  0.17908624  0.00288149  0.91404359  1
  O  O314  1  0.14036841  0.50029640  0.41309917  1
  O  O315  1  0.16648174  0.50089088  0.91288038  1
  O  O316  1  0.48278696  -0.01351053  0.42467734  1
  O  O317  1  0.47517163  0.00090508  0.91398670  1
  O  O318  1  0.48153341  0.50057886  0.41304203  1
  O  O319  1  0.48390621  0.49972928  0.91435111  1
  O  O320  1  0.81529676  0.00052984  0.41637557  1
  O  O321  1  0.80096182  0.00079455  0.91965112  1
  O  O322  1  0.82582562  0.50139311  0.41336710  1
  O  O323  1  0.80742532  0.48955583  0.92366321  1
  O  O324  1  0.30677243  0.25518776  0.41509659  1
  O  O325  1  0.32383124  0.25160670  0.91530360  1
  O  O326  1  0.30684686  0.74587572  0.41494555  1
  O  O327  1  0.32321970  0.74825812  0.91293506  1
  O  O328  1  0.66122636  0.25696543  0.41672833  1
  O  O329  1  0.63721173  0.24728535  0.91533751  1
  O  O330  1  0.65633136  0.74704246  0.41626887  1
  O  O331  1  0.63530397  0.75375590  0.92083925  1
  O  O332  1  0.98366776  0.24878870  0.41492360  1
  O  O333  1  0.99465197  0.23271512  0.92697951  1
  O  O334  1  0.98394623  0.75264187  0.41397356  1
  O  O335  1  1.00354919  0.74400565  0.92877934  1
  O  O336  1  0.21282897  0.08547394  0.19990387  1
  O  O337  1  0.21172276  0.08589715  0.69644309  1
  O  O338  1  0.21010498  0.58204271  0.19949077  1
  O  O339  1  0.21000684  0.58127078  0.69132960  1
  O  O340  1  0.53353333  0.08544964  0.19161563  1
  O  O341  1  0.54165231  0.08521138  0.69308591  1
  O  O342  1  0.54641547  0.58590402  0.19627345  1
  O  O343  1  0.54336232  0.58622141  0.70027188  1
  O  O344  1  0.87754692  0.08247972  0.19536370  1
  O  O345  1  0.87680169  0.08259141  0.69550046  1
  O  O346  1  0.87496860  0.58615643  0.19582413  1
  O  O347  1  0.88506829  0.59166914  0.70125063  1
  O  O348  1  0.04416966  0.33364717  0.19679094  1
  O  O349  1  0.04649152  0.32587041  0.69049556  1
  O  O350  1  0.04293818  0.83310868  0.19649812  1
  O  O351  1  0.04704270  0.83391263  0.70191977  1
  O  O352  1  0.37829070  0.33668964  0.19480005  1
  O  O353  1  0.37667297  0.33175751  0.69242565  1
  O  O354  1  0.37673418  0.82977230  0.19339047  1
  O  O355  1  0.37323231  0.83470476  0.69253739  1
  O  O356  1  0.71006822  0.33365244  0.19944935  1
  O  O357  1  0.70044896  0.33168951  0.69232886  1
  O  O358  1  0.71281038  0.83363169  0.19615767  1
  O  O359  1  0.71098237  0.83085787  0.69512157  1
  O  O360  1  0.21036748  0.41571094  0.19458411  1
  O  O361  1  0.21266873  0.41360619  0.69978063  1
  O  O362  1  0.21203290  0.91533434  0.20114853  1
  O  O363  1  0.21030875  0.91916142  0.69326811  1
  O  O364  1  0.54316174  0.42044948  0.19280512  1
  O  O365  1  0.54043926  0.41584210  0.69410202  1
  O  O366  1  0.54710546  0.91611659  0.20310112  1
  O  O367  1  0.53178830  0.91490177  0.69520500  1
  O  O368  1  0.87856092  0.41707981  0.20039460  1
  O  O369  1  0.88297368  0.40870164  0.69869403  1
  O  O370  1  0.88045302  0.91683248  0.19762761  1
  O  O371  1  0.86707671  0.91760508  0.69257110  1
  O  O372  1  0.04118723  0.16690989  0.19462919  1
  O  O373  1  0.04486003  0.16291404  0.69742321  1
  O  O374  1  0.04131090  0.66649215  0.19518191  1
  O  O375  1  0.04703219  0.67524517  0.69029599  1
  O  O376  1  0.37627205  0.17216276  0.19104501  1
  O  O377  1  0.37561175  0.16648338  0.69501402  1
  O  O378  1  0.37823171  0.66361566  0.19467622  1
  O  O379  1  0.37756064  0.66784666  0.69895201  1
  O  O380  1  0.71396582  0.17060214  0.19164059  1
  O  O381  1  0.70964770  0.16528771  0.70259774  1
  O  O382  1  0.71028820  0.66913690  0.19734424  1
  O  O383  1  0.70607291  0.67137784  0.69196971  1
  O  O384  1  0.12163457  0.08356162  0.30498119  1
  O  O385  1  0.12696319  0.08343923  0.80535964  1
  O  O386  1  0.12037813  0.58393407  0.30467192  1
  O  O387  1  0.13140293  0.58279899  0.80260565  1
  O  O388  1  0.45212568  0.08761847  0.30013142  1
  O  O389  1  0.45176546  0.08901532  0.80623847  1
  O  O390  1  0.45731381  0.58314382  0.30394037  1
  O  O391  1  0.45374593  0.58170261  0.80507295  1
  O  O392  1  0.80248667  0.08236119  0.30694087  1
  O  O393  1  0.78992404  0.08165850  0.80785317  1
  O  O394  1  0.79136780  0.58476841  0.30498884  1
  O  O395  1  0.77949344  0.59415987  0.80276342  1
  O  O396  1  0.28982382  0.33567834  0.30419013  1
  O  O397  1  0.29363957  0.33158782  0.80488418  1
  O  O398  1  0.28945588  0.82926234  0.30640246  1
  O  O399  1  0.29216673  0.83378867  0.80430573  1
  O  O400  1  0.62251337  0.33837475  0.30552638  1
  O  O401  1  0.61836990  0.33070950  0.80472656  1
  O  O402  1  0.62691372  0.82931993  0.30728257  1
  O  O403  1  0.61591174  0.82779059  0.80781906  1
  O  O404  1  0.95765399  0.33161268  0.30510667  1
  O  O405  1  0.96454203  0.32888428  0.80261001  1
  O  O406  1  0.95791950  0.83492610  0.30580556  1
  O  O407  1  0.95375456  0.83229482  0.80306030  1
  O  O408  1  0.12214250  0.41697292  0.30384290  1
  O  O409  1  0.12839662  0.41262093  0.80754406  1
  O  O410  1  0.12307121  0.91660248  0.30576194  1
  O  O411  1  0.13523477  0.91825228  0.80838653  1
  O  O412  1  0.45749117  0.41764699  0.30435658  1
  O  O413  1  0.45484240  0.41648827  0.80312911  1
  O  O414  1  0.45086309  0.90686335  0.30949332  1
  O  O415  1  0.45147537  0.91488143  0.80542022  1
  O  O416  1  0.79061393  0.41897255  0.30496105  1
  O  O417  1  0.78053740  0.40797654  0.81129652  1
  O  O418  1  0.79393010  0.91505416  0.30741002  1
  O  O419  1  0.79926506  0.91766039  0.81196766  1
  O  O420  1  0.29028934  0.17052732  0.30714011  1
  O  O421  1  0.29157815  0.16761971  0.80560948  1
  O  O422  1  0.28996900  0.66574162  0.30424953  1
  O  O423  1  0.28913275  0.66621881  0.80325775  1
  O  O424  1  0.62197049  0.17710450  0.30763098  1
  O  O425  1  0.61939896  0.16725574  0.80603847  1
  O  O426  1  0.62501436  0.66592812  0.30598685  1
  O  O427  1  0.61906696  0.66982553  0.80991835  1
  O  O428  1  0.95836957  0.16597721  0.30590528  1
  O  O429  1  0.95846822  0.16100937  0.80882888  1
  O  O430  1  0.95723214  0.66831274  0.30516710  1
  O  O431  1  0.95890759  0.67242128  0.81161317  1
  F  F432  1  0.04572671  0.00061245  0.20262794  1
  F  F433  1  0.04964699  0.00540248  0.69950966  1
  F  F434  1  0.04469884  0.50080506  0.20315628  1
  F  F435  1  0.04824799  0.49082237  0.70130606  1
  F  F436  1  0.37179113  -0.00263481  0.20016847  1
  F  F437  1  0.37146538  0.00271546  0.69989342  1
  F  F438  1  0.37993825  0.49976494  0.20242055  1
  F  F439  1  0.37910610  0.49895613  0.70046583  1
  F  F440  1  0.72031407  -0.01014128  0.20102876  1
  F  F441  1  0.71605060  0.00859508  0.70043619  1
  F  F442  1  0.71117630  0.50299822  0.20274662  1
  F  F443  1  0.69824737  0.49977678  0.69796372  1
  F  F444  1  0.21361415  0.25113422  0.20367648  1
  F  F445  1  0.21384515  0.24731051  0.70217744  1
  F  F446  1  0.21195027  0.74858488  0.20264736  1
  F  F447  1  0.21220595  0.75213998  0.70238843  1
  F  F448  1  0.54482791  0.25310082  0.20192816  1
  F  F449  1  0.54253076  0.24798876  0.70254850  1
  F  F450  1  0.54712788  0.74865320  0.20429794  1
  F  F451  1  0.54336133  0.75128921  0.70278204  1
  F  F452  1  0.87999339  0.24787839  0.20347973  1
  F  F453  1  0.88121342  0.23841581  0.70037356  1
  F  F454  1  0.87851966  0.75145554  0.20492646  1
  F  F455  1  0.87721763  0.75132006  0.70350554  1
  F  F456  1  0.28910845  -0.00025032  0.30206766  1
  F  F457  1  0.28819541  0.00098850  0.79811816  1
  F  F458  1  0.28937870  0.49818580  0.29913086  1
  F  F459  1  0.29103041  0.50088122  0.79704789  1
  F  F460  1  0.63527058  -0.01205877  0.31676479  1
  F  F461  1  0.61665963  0.01405220  0.80710732  1
  F  F462  1  0.62193171  0.50088137  0.29793031  1
  F  F463  1  0.61841926  0.49694817  0.79990873  1
  F  F464  1  0.95791699  -0.00026715  0.29904186  1
  F  F465  1  0.95407107  0.00170510  0.79887107  1
  F  F466  1  0.95607946  0.50293163  0.29953690  1
  F  F467  1  0.97523410  0.49429314  0.81298518  1
  F  F468  1  0.12189422  0.24975964  0.29798021  1
  F  F469  1  0.12431962  0.24833337  0.79800253  1
  F  F470  1  0.12172992  0.74913350  0.29784433  1
  F  F471  1  0.12728315  0.74768648  0.80074317  1
  F  F472  1  0.45403914  0.25459623  0.29751557  1
  F  F473  1  0.45333878  0.25047091  0.79745952  1
  F  F474  1  0.45451698  0.74734922  0.29807028  1
  F  F475  1  0.45208589  0.75220128  0.79901399  1
  F  F476  1  0.79101560  0.24945554  0.29902768  1
  F  F477  1  0.78698102  0.24467406  0.80365822  1
  F  F478  1  0.78984131  0.75049632  0.30009560  1
  F  F479  1  0.78576014  0.75316557  0.80011935  1
