# generated using pymatgen
data_K24Na3Li5Mg64Fe17Si79(O5F)48
_symmetry_space_group_name_H-M   'P 1'
_cell_length_a   16.09791471
_cell_length_b   18.60105319
_cell_length_c   20.56209031
_cell_angle_alpha   90.00721804
_cell_angle_beta   100.02461878
_cell_angle_gamma   89.98782240
_symmetry_Int_Tables_number   1
_chemical_formula_structural   K24Na3Li5Mg64Fe17Si79(O5F)48
_chemical_formula_sum   'K24 Na3 Li5 Mg64 Fe17 Si79 O240 F48'
_cell_volume   6063.07472941
_cell_formula_units_Z   1
loop_
 _symmetry_equiv_pos_site_id
 _symmetry_equiv_pos_as_xyz
  1  'x, y, z'
loop_
 _atom_site_type_symbol
 _atom_site_label
 _atom_site_symmetry_multiplicity
 _atom_site_fract_x
 _atom_site_fract_y
 _atom_site_fract_z
 _atom_site_occupancy
  K  K0  1  0.00062286  0.00564718  0.00539110  1
  K  K1  1  0.00202422  -0.00020101  0.50263730  1
  K  K2  1  -0.00537609  0.50449653  -0.00429749  1
  K  K3  1  0.00126899  0.49657787  0.49961913  1
  K  K4  1  0.32694291  -0.00124722  0.00258081  1
  K  K5  1  0.33344587  -0.00148381  0.49546753  1
  K  K6  1  0.34113966  0.50957643  -0.00579241  1
  K  K7  1  0.33491306  0.50106162  0.50895232  1
  K  K8  1  0.67863825  -0.00175831  -0.00228508  1
  K  K9  1  0.66442532  0.00623976  0.50344738  1
  K  K10  1  0.65240239  0.49714060  -0.01130356  1
  K  K11  1  0.66094550  0.49905901  0.50338522  1
  K  K12  1  0.15699780  0.25263829  -0.00035676  1
  K  K13  1  0.16926952  0.25565354  0.50069786  1
  K  K14  1  0.16099994  0.74413988  0.00515708  1
  K  K15  1  0.16364703  0.74150938  0.49103866  1
  K  K16  1  0.51127663  0.25665289  -0.00817365  1
  K  K17  1  0.50514519  0.24918211  0.50285345  1
  K  K18  1  0.51123753  0.73152258  -0.00324523  1
  K  K19  1  0.50327849  0.74675213  0.49875673  1
  K  K20  1  0.82991946  0.25388029  -0.01057758  1
  K  K21  1  0.84139943  0.25836136  0.49754401  1
  K  K22  1  0.84398122  0.74094691  -0.00100864  1
  K  K23  1  0.84136437  0.75260320  0.50186759  1
  Na  Na24  1  0.50257518  0.49961036  0.75139105  1
  Na  Na25  1  0.83600190  0.83231741  0.75102739  1
  Na  Na26  1  -0.00591128  0.91962286  0.75015230  1
  Li  Li27  1  0.00518775  0.74536111  0.24920894  1
  Li  Li28  1  0.16630564  -0.00260164  0.25792877  1
  Li  Li29  1  0.50354561  0.16974702  0.75596723  1
  Li  Li30  1  0.82840668  0.33685682  0.74478844  1
  Li  Li31  1  0.67221344  0.41732674  0.25317967  1
  Mg  Mg32  1  0.33392470  0.75037233  0.75279962  1
  Mg  Mg33  1  0.16171765  0.00130285  0.75152648  1
  Mg  Mg34  1  0.33615974  0.24963568  0.74980423  1
  Mg  Mg35  1  0.83437486  -0.00056568  0.24990455  1
  Mg  Mg36  1  0.83545031  0.49778639  0.74774901  1
  Mg  Mg37  1  0.33199343  0.74940547  0.25188397  1
  Mg  Mg38  1  -0.00444824  0.25427283  0.74883338  1
  Mg  Mg39  1  0.00028154  0.24776936  0.24896418  1
  Mg  Mg40  1  0.00037662  0.74907843  0.74671914  1
  Mg  Mg41  1  0.83042909  0.50053818  0.25003701  1
  Mg  Mg42  1  0.16601988  0.50021656  0.24663309  1
  Mg  Mg43  1  0.66501386  0.25088037  0.75263592  1
  Mg  Mg44  1  0.66852278  0.74914958  0.74749287  1
  Mg  Mg45  1  0.49811126  -0.00060360  0.25503127  1
  Mg  Mg46  1  0.16999892  0.50017458  0.74629195  1
  Mg  Mg47  1  0.66708398  0.74810460  0.24783846  1
  Mg  Mg48  1  0.49827748  0.00268476  0.75376182  1
  Mg  Mg49  1  0.83071750  0.00229124  0.75540446  1
  Mg  Mg50  1  0.50484733  0.49786652  0.24489607  1
  Mg  Mg51  1  0.66762941  0.25227097  0.25237364  1
  Mg  Mg52  1  0.33326046  0.24768666  0.24980253  1
  Mg  Mg53  1  0.16644196  0.33463354  0.74714420  1
  Mg  Mg54  1  0.16102788  0.83514320  0.75042344  1
  Mg  Mg55  1  0.49998324  0.83551022  0.75240535  1
  Mg  Mg56  1  0.33007739  0.91571246  0.25561722  1
  Mg  Mg57  1  0.66613430  0.08418225  0.25230061  1
  Mg  Mg58  1  0.50356788  0.33359292  0.24762289  1
  Mg  Mg59  1  0.16556302  0.16231596  0.24920855  1
  Mg  Mg60  1  0.66427902  0.08595412  0.75690188  1
  Mg  Mg61  1  -0.00105303  0.58375662  0.74467036  1
  Mg  Mg62  1  0.83126351  0.33524768  0.25085768  1
  Mg  Mg63  1  0.33203171  0.08231819  0.25331488  1
  Mg  Mg64  1  0.33553241  0.41577056  0.74863486  1
  Mg  Mg65  1  0.50030639  0.16454217  0.25262558  1
  Mg  Mg66  1  0.66863288  0.41414593  0.74996465  1
  Mg  Mg67  1  0.16375050  0.16692487  0.75127423  1
  Mg  Mg68  1  0.16575690  0.33299395  0.24545017  1
  Mg  Mg69  1  0.66735863  0.58083285  0.24812098  1
  Mg  Mg70  1  0.83393217  0.66544462  0.74378446  1
  Mg  Mg71  1  0.83807829  0.83195200  0.25155407  1
  Mg  Mg72  1  0.50251593  0.33121579  0.75097019  1
  Mg  Mg73  1  0.00480840  0.91531004  0.25249627  1
  Mg  Mg74  1  -0.00504101  0.08645523  0.75264117  1
  Mg  Mg75  1  0.66750450  0.58263151  0.74696311  1
  Mg  Mg76  1  -0.00022508  0.58653748  0.24898776  1
  Mg  Mg77  1  0.82969889  0.16940634  0.75418504  1
  Mg  Mg78  1  0.50172907  0.66567202  0.74814355  1
  Mg  Mg79  1  0.16575923  0.66674131  0.74696624  1
  Mg  Mg80  1  -0.00223802  0.41551268  0.24813575  1
  Mg  Mg81  1  0.32983177  0.91737063  0.75233689  1
  Mg  Mg82  1  0.00486337  0.08202052  0.24795187  1
  Mg  Mg83  1  0.66698871  0.91510953  0.25131192  1
  Mg  Mg84  1  0.66901850  0.91736740  0.75481572  1
  Mg  Mg85  1  0.16544917  0.66587380  0.25102780  1
  Mg  Mg86  1  0.33510394  0.41496927  0.24550843  1
  Mg  Mg87  1  0.33295356  0.08491253  0.75236269  1
  Mg  Mg88  1  0.83709082  0.66729349  0.24794177  1
  Mg  Mg89  1  0.33468897  0.58437943  0.74601853  1
  Mg  Mg90  1  -0.00178663  0.41661192  0.74660542  1
  Mg  Mg91  1  0.33433061  0.58305964  0.24603966  1
  Mg  Mg92  1  0.16589131  0.83372242  0.25327331  1
  Mg  Mg93  1  0.50064577  0.66394400  0.24608860  1
  Mg  Mg94  1  0.83468422  0.16503633  0.25000675  1
  Mg  Mg95  1  0.49896726  0.83343375  0.25314892  1
  Fe  Fe96  1  0.97610695  0.67306341  0.38766274  1
  Fe  Fe97  1  0.52958959  0.41314372  0.60779770  1
  Fe  Fe98  1  0.52702373  0.58012747  0.10696437  1
  Fe  Fe99  1  0.47022762  0.58592788  0.88863829  1
  Fe  Fe100  1  0.85496617  0.41099468  0.60901954  1
  Fe  Fe101  1  0.02549134  0.17002850  0.10679496  1
  Fe  Fe102  1  0.80960553  0.42142326  0.38899753  1
  Fe  Fe103  1  0.52785443  0.58906887  0.60505597  1
  Fe  Fe104  1  0.02598248  0.66449215  0.10808148  1
  Fe  Fe105  1  0.81232785  0.07994319  0.89427250  1
  Fe  Fe106  1  0.47488667  0.08349934  0.39213791  1
  Fe  Fe107  1  0.30743632  0.82666245  0.39288275  1
  Fe  Fe108  1  0.02718152  0.66978267  0.60718573  1
  Fe  Fe109  1  0.64527393  0.33281011  0.89324713  1
  Fe  Fe110  1  0.14348696  0.08445723  0.38973160  1
  Fe  Fe111  1  0.85634799  0.58187598  0.60518105  1
  Fe  Fe112  1  0.19811768  0.41790861  0.60985548  1
  Si  Si113  1  0.36358492  0.32702925  0.61106540  1
  Si  Si114  1  0.47648099  0.57824187  0.38063313  1
  Si  Si115  1  0.19835209  0.58138034  0.10975180  1
  Si  Si116  1  0.97681255  0.17436480  0.88909937  1
  Si  Si117  1  0.52054006  0.08204122  0.62014850  1
  Si  Si118  1  0.63899530  0.16053624  0.89385523  1
  Si  Si119  1  0.69399159  0.32444683  0.61159134  1
  Si  Si120  1  0.13720909  0.08411918  0.88793854  1
  Si  Si121  1  0.68562861  0.84120739  0.61508497  1
  Si  Si122  1  0.46940818  0.08008544  0.88907465  1
  Si  Si123  1  0.64334930  0.82885438  0.38535110  1
  Si  Si124  1  0.85394592  0.08614987  0.61592486  1
  Si  Si125  1  0.30153151  0.67298834  0.88786034  1
  Si  Si126  1  0.68488787  0.16289527  0.61769342  1
  Si  Si127  1  0.31188553  0.33605480  0.38123741  1
  Si  Si128  1  0.01865743  0.83806549  0.61208623  1
  Si  Si129  1  0.14289400  0.57642902  0.38590689  1
  Si  Si130  1  0.18616467  0.91995190  0.61612560  1
  Si  Si131  1  0.30401976  0.16227003  0.88807456  1
  Si  Si132  1  0.85711105  0.91632848  0.11631576  1
  Si  Si133  1  0.69600541  0.67628962  0.60711335  1
  Si  Si134  1  0.64596894  0.66773645  0.88626787  1
  Si  Si135  1  0.02946956  0.33108768  0.61029377  1
  Si  Si136  1  0.97943247  0.33964113  0.88460641  1
  Si  Si137  1  0.85163690  0.92455554  0.61581107  1
  Si  Si138  1  0.64252255  0.17119638  0.38818651  1
  Si  Si139  1  0.47566715  0.41516015  0.38048683  1
  Si  Si140  1  0.36101633  0.67528096  0.61304748  1
  Si  Si141  1  0.19873796  0.59013010  0.61092268  1
  Si  Si142  1  0.80579625  0.91769871  0.38611770  1
  Si  Si143  1  0.69610079  0.66817021  0.11173860  1
  Si  Si144  1  0.69186252  0.83389553  0.11525278  1
  Si  Si145  1  0.85244578  0.41759811  0.11315357  1
  Si  Si146  1  0.14357639  0.41763105  0.88449813  1
  Si  Si147  1  0.97155131  0.16203644  0.38655210  1
  Si  Si148  1  0.85653665  0.08105349  0.11370724  1
  Si  Si149  1  0.14208397  0.91620424  0.39049647  1
  Si  Si150  1  0.81218582  0.42117432  0.88666432  1
  Si  Si151  1  0.97722096  0.32827149  0.38481590  1
  Si  Si152  1  0.02099505  0.16627526  0.61673766  1
  Si  Si153  1  0.35189992  0.83760880  0.61731881  1
  Si  Si154  1  0.52836185  0.08140201  0.11615526  1
  Si  Si155  1  0.14215819  0.58171233  0.88325121  1
  Si  Si156  1  0.51919612  0.91849702  0.61751762  1
  Si  Si157  1  0.46628215  0.41052567  0.88999167  1
  Si  Si158  1  0.36255844  0.16259575  0.11418467  1
  Si  Si159  1  0.30653902  0.17289744  0.38865076  1
  Si  Si160  1  0.69198179  0.32840400  0.11527474  1
  Si  Si161  1  0.30428551  0.83812293  0.88817653  1
  Si  Si162  1  0.30346654  0.32703718  0.88649166  1
  Si  Si163  1  0.02560479  0.83774733  0.11415141  1
  Si  Si164  1  0.19511972  0.41585256  0.11127821  1
  Si  Si165  1  0.02128270  0.34172921  0.10901347  1
  Si  Si166  1  0.31199580  0.65561358  0.38613872  1
  Si  Si167  1  0.52487536  0.91588883  0.11651150  1
  Si  Si168  1  0.19855932  0.08444013  0.11251706  1
  Si  Si169  1  0.19217610  0.91906924  0.11760752  1
  Si  Si170  1  0.18835412  0.08435758  0.61713743  1
  Si  Si171  1  0.63884317  0.66417792  0.38243608  1
  Si  Si172  1  0.80719044  0.59091521  0.38562692  1
  Si  Si173  1  0.35385794  0.16373087  0.61752414  1
  Si  Si174  1  0.97564398  0.84347946  0.38792945  1
  Si  Si175  1  0.48073920  0.91350724  0.39196822  1
  Si  Si176  1  0.47463410  0.91501691  0.88905370  1
  Si  Si177  1  0.97841249  0.66453235  0.88431846  1
  Si  Si178  1  0.98062236  0.82626899  0.88686014  1
  Si  Si179  1  0.13957323  0.91874244  0.88814671  1
  Si  Si180  1  0.81132585  0.58641713  0.88263487  1
  Si  Si181  1  0.69230964  0.16433364  0.11576123  1
  Si  Si182  1  0.80374622  0.08415960  0.38529996  1
  Si  Si183  1  0.63966447  0.33505213  0.38492242  1
  Si  Si184  1  0.85627374  0.58055166  0.11124752  1
  Si  Si185  1  0.36006629  0.67160520  0.11234540  1
  Si  Si186  1  0.35748480  0.32651784  0.11165925  1
  Si  Si187  1  0.14305039  0.41122239  0.38160336  1
  Si  Si188  1  0.81439950  0.91210182  0.89211232  1
  Si  Si189  1  0.64363420  0.83387422  0.88800316  1
  Si  Si190  1  0.35693964  0.83645761  0.11654206  1
  Si  Si191  1  0.52215983  0.40928902  0.10979697  1
  O  O192  1  0.28375470  0.11114069  0.08228927  1
  O  O193  1  0.26927279  0.11504003  0.58692412  1
  O  O194  1  0.27713781  0.62228308  0.08315743  1
  O  O195  1  0.28745324  0.61610496  0.58620844  1
  O  O196  1  0.60718761  0.11679365  0.08649447  1
  O  O197  1  0.60252538  0.11082782  0.58921994  1
  O  O198  1  0.61749464  0.62196025  0.07433161  1
  O  O199  1  0.61956852  0.62711590  0.56895071  1
  O  O200  1  0.93095353  0.11061497  0.07810763  1
  O  O201  1  0.93512570  0.12001737  0.58662109  1
  O  O202  1  0.93332328  0.60363291  0.07474513  1
  O  O203  1  0.95313209  0.60015941  0.57012677  1
  O  O204  1  0.10127566  0.38306567  0.08218308  1
  O  O205  1  0.11353631  0.34993637  0.58005484  1
  O  O206  1  0.10395278  0.87854337  0.08459200  1
  O  O207  1  0.09940474  0.87815328  0.58448434  1
  O  O208  1  0.43683793  0.35933474  0.08126448  1
  O  O209  1  0.44783962  0.34074691  0.58038226  1
  O  O210  1  0.43687102  0.87307407  0.08661811  1
  O  O211  1  0.43429654  0.87032231  0.58907115  1
  O  O212  1  0.77149410  0.36457749  0.08557559  1
  O  O213  1  0.78132818  0.33378337  0.58293157  1
  O  O214  1  0.77048106  0.87068178  0.08585028  1
  O  O215  1  0.76444840  0.87915236  0.58491824  1
  O  O216  1  0.26752165  0.36779645  0.08270421  1
  O  O217  1  0.28988452  0.38091842  0.57522451  1
  O  O218  1  0.27209794  0.88301980  0.08657352  1
  O  O219  1  0.26977673  0.88883360  0.58914746  1
  O  O220  1  0.60343935  0.36946330  0.08467076  1
  O  O221  1  0.62346141  0.37905007  0.57271575  1
  O  O222  1  0.60396226  0.87934539  0.08679112  1
  O  O223  1  0.59930441  0.88863488  0.58536859  1
  O  O224  1  0.93614292  0.39138954  0.08276458  1
  O  O225  1  0.95371685  0.38258551  0.57652573  1
  O  O226  1  0.93807939  0.88564130  0.08656473  1
  O  O227  1  0.93464225  0.89116878  0.58906254  1
  O  O228  1  0.12009525  0.13151208  0.07487666  1
  O  O229  1  0.10196102  0.12995125  0.58854420  1
  O  O230  1  0.11364289  0.61881948  0.07156228  1
  O  O231  1  0.13182975  0.65184753  0.58198853  1
  O  O232  1  0.44443616  0.12875718  0.08610523  1
  O  O233  1  0.43596182  0.12941872  0.58991593  1
  O  O234  1  0.43687002  0.64400906  0.07833194  1
  O  O235  1  0.44130668  0.65929222  0.57879890  1
  O  O236  1  0.76910426  0.12652974  0.08617771  1
  O  O237  1  0.76632546  0.13025992  0.58706598  1
  O  O238  1  0.78006029  0.63863409  0.08458937  1
  O  O239  1  0.78199972  0.65987116  0.57925004  1
  O  O240  1  0.04342520  0.10849984  0.42262125  1
  O  O241  1  0.06669319  0.13088148  0.91752714  1
  O  O242  1  0.06818642  0.60979996  0.41908652  1
  O  O243  1  0.06107817  0.61384672  0.91308832  1
  O  O244  1  0.37974450  0.11798431  0.42352141  1
  O  O245  1  0.39079378  0.11831438  0.91900242  1
  O  O246  1  0.39275442  0.60057270  0.41072160  1
  O  O247  1  0.38850900  0.63908202  0.92573717  1
  O  O248  1  0.72383888  0.11748072  0.41471027  1
  O  O249  1  0.71572527  0.10787823  0.92758923  1
  O  O250  1  0.71564656  0.61021766  0.41056668  1
  O  O251  1  0.73841217  0.62965484  0.91431406  1
  O  O252  1  0.22834905  0.36397335  0.40950245  1
  O  O253  1  0.22633369  0.36830823  0.91523824  1
  O  O254  1  0.20894597  0.85455882  0.42338658  1
  O  O255  1  0.23436369  0.88619943  0.91980093  1
  O  O256  1  0.54915453  0.35722599  0.40948518  1
  O  O257  1  0.55429877  0.37442201  0.92642334  1
  O  O258  1  0.56257152  0.85795284  0.41555467  1
  O  O259  1  0.56501888  0.87436630  0.91747635  1
  O  O260  1  0.90319901  0.36009266  0.41940014  1
  O  O261  1  0.90408723  0.38004768  0.91476294  1
  O  O262  1  0.89108872  0.87435169  0.41773903  1
  O  O263  1  0.89719755  0.85781908  0.91466606  1
  O  O264  1  0.06651892  0.37232222  0.41114870  1
  O  O265  1  0.06586786  0.38459150  0.91749936  1
  O  O266  1  0.04956118  0.90294766  0.41528644  1
  O  O267  1  0.06658520  0.87402593  0.91856647  1
  O  O268  1  0.38920994  0.39228622  0.40805477  1
  O  O269  1  0.39092189  0.36519327  0.92059539  1
  O  O270  1  0.40296923  0.88463603  0.42521120  1
  O  O271  1  0.39817621  0.87290342  0.91809983  1
  O  O272  1  0.71067150  0.39029405  0.41896295  1
  O  O273  1  0.74518523  0.38451581  0.92691662  1
  O  O274  1  0.72611101  0.87944715  0.41406345  1
  O  O275  1  0.73214690  0.87436594  0.91980191  1
  O  O276  1  0.22128939  0.15938318  0.41852819  1
  O  O277  1  0.22970774  0.11931405  0.91851400  1
  O  O278  1  0.23251366  0.61820895  0.41412275  1
  O  O279  1  0.22289158  0.63179956  0.91541060  1
  O  O280  1  0.56602458  0.14564329  0.42368624  1
  O  O281  1  0.55355034  0.12494780  0.91963499  1
  O  O282  1  0.55365064  0.63448334  0.40859175  1
  O  O283  1  0.57722719  0.62727120  0.92163929  1
  O  O284  1  0.88411921  0.13570504  0.41348429  1
  O  O285  1  0.90462835  0.14147494  0.92557698  1
  O  O286  1  0.87198013  0.65449373  0.41431509  1
  O  O287  1  0.89892850  0.63022852  0.91412755  1
  O  O288  1  0.18506764  0.00047033  0.08594133  1
  O  O289  1  0.17228713  0.00256676  0.58805575  1
  O  O290  1  0.20152247  0.49711790  0.08253440  1
  O  O291  1  0.17398100  0.51195476  0.57767805  1
  O  O292  1  0.51388324  -0.00133103  0.08711453  1
  O  O293  1  0.49978333  0.00044088  0.58887424  1
  O  O294  1  0.50632212  0.48619612  0.07332178  1
  O  O295  1  0.49523461  0.50054221  0.56693432  1
  O  O296  1  0.83516977  -0.00226681  0.08792622  1
  O  O297  1  0.83873663  0.00585297  0.58160023  1
  O  O298  1  0.82568531  0.49833111  0.08479617  1
  O  O299  1  0.81103064  0.49567877  0.57098827  1
  O  O300  1  0.00818229  0.26491872  0.07229864  1
  O  O301  1  0.00506594  0.24625747  0.58550720  1
  O  O302  1  0.01177917  0.76084764  0.07670954  1
  O  O303  1  -0.00300824  0.76365670  0.57349266  1
  O  O304  1  0.34444502  0.24375074  0.08312368  1
  O  O305  1  0.33282694  0.24341189  0.58634806  1
  O  O306  1  0.33904324  0.75534912  0.08630313  1
  O  O307  1  0.32766310  0.75767230  0.58780861  1
  O  O308  1  0.67938525  0.24564301  0.08523094  1
  O  O309  1  0.66063531  0.24128302  0.58577606  1
  O  O310  1  0.68008211  0.75276868  0.08484196  1
  O  O311  1  0.66968320  0.76134323  0.58298497  1
  O  O312  1  0.17787941  -0.00719859  0.42260444  1
  O  O313  1  0.13842927  0.00162004  0.91764231  1
  O  O314  1  0.15882995  0.49202158  0.41187483  1
  O  O315  1  0.16079011  0.49997681  0.91407843  1
  O  O316  1  0.51190818  -0.00854992  0.42277391  1
  O  O317  1  0.47872390  -0.00308815  0.92034445  1
  O  O318  1  0.50326114  0.49651800  0.40713443  1
  O  O319  1  0.46276236  0.49170311  0.91887399  1
  O  O320  1  0.81580351  0.00121521  0.41441260  1
  O  O321  1  0.83659569  -0.01346770  0.93215860  1
  O  O322  1  0.84054406  0.51462870  0.41763670  1
  O  O323  1  0.82578306  0.50561061  0.91487939  1
  O  O324  1  0.33936071  0.25657956  0.41063230  1
  O  O325  1  0.30689470  0.24434475  0.91762364  1
  O  O326  1  0.33506432  0.73159962  0.42237814  1
  O  O327  1  0.29811272  0.75680780  0.91645128  1
  O  O328  1  0.66809217  0.25335349  0.41335443  1
  O  O329  1  0.65262549  0.23881847  0.92946135  1
  O  O330  1  0.66048607  0.74606218  0.41254555  1
  O  O331  1  0.65180757  0.75162510  0.91670497  1
  O  O332  1  0.99400932  0.24493305  0.41238002  1
  O  O333  1  0.99413113  0.25796434  0.91610857  1
  O  O334  1  1.00290784  0.76675451  0.42082460  1
  O  O335  1  0.99739419  0.74446532  0.91937513  1
  O  O336  1  0.21800864  0.09020261  0.19199068  1
  O  O337  1  0.20769416  0.08424033  0.69769613  1
  O  O338  1  0.21249471  0.58094020  0.19077262  1
  O  O339  1  0.21306192  0.58674583  0.69297143  1
  O  O340  1  0.54581004  0.08132689  0.19631640  1
  O  O341  1  0.54128484  0.08010014  0.69963707  1
  O  O342  1  0.54551373  0.58304604  0.19811808  1
  O  O343  1  0.55159040  0.59319756  0.69568286  1
  O  O344  1  0.87419881  0.08302351  0.19462879  1
  O  O345  1  0.87434211  0.08639878  0.69583441  1
  O  O346  1  0.87582253  0.58093149  0.19186862  1
  O  O347  1  0.87876280  0.58143657  0.69843180  1
  O  O348  1  0.04170234  0.33630043  0.18991697  1
  O  O349  1  0.04516331  0.33177510  0.69210536  1
  O  O350  1  0.04554889  0.83670244  0.19415616  1
  O  O351  1  0.04579234  0.83054838  0.69140854  1
  O  O352  1  0.37551171  0.32985428  0.19200581  1
  O  O353  1  0.37558758  0.32990645  0.69261177  1
  O  O354  1  0.37901713  0.83502298  0.19656183  1
  O  O355  1  0.37350135  0.83772647  0.69806838  1
  O  O356  1  0.71158272  0.32656809  0.19460122  1
  O  O357  1  0.70663545  0.32862253  0.69199415  1
  O  O358  1  0.70823492  0.83517854  0.19551215  1
  O  O359  1  0.69819138  0.83843109  0.69453595  1
  O  O360  1  0.21157871  0.41492635  0.19175066  1
  O  O361  1  0.21377663  0.41539829  0.70174598  1
  O  O362  1  0.21172446  0.91496402  0.19675333  1
  O  O363  1  0.20599641  0.91895045  0.69682696  1
  O  O364  1  0.53596405  0.41274983  0.18963986  1
  O  O365  1  0.54888864  0.40906191  0.69780459  1
  O  O366  1  0.54319660  0.91609759  0.19694088  1
  O  O367  1  0.53867175  0.91806928  0.69800063  1
  O  O368  1  0.87634318  0.41510894  0.19315420  1
  O  O369  1  0.88069828  0.41742222  0.69955466  1
  O  O370  1  0.87337091  0.91587921  0.19640384  1
  O  O371  1  0.86397365  0.92960621  0.69374187  1
  O  O372  1  0.04332471  0.16892207  0.19804760  1
  O  O373  1  0.04102586  0.16699754  0.69720820  1
  O  O374  1  0.05060284  0.66087775  0.19770407  1
  O  O375  1  0.04722266  0.66677201  0.69983869  1
  O  O376  1  0.37891458  0.16611057  0.19422096  1
  O  O377  1  0.36856626  0.16344116  0.69711799  1
  O  O378  1  0.37689218  0.66829561  0.19337687  1
  O  O379  1  0.37623919  0.67480235  0.69403975  1
  O  O380  1  0.70901434  0.16454675  0.19631872  1
  O  O381  1  0.70553367  0.16389957  0.69759743  1
  O  O382  1  0.70956219  0.66810251  0.19245230  1
  O  O383  1  0.70959045  0.67104598  0.68870880  1
  O  O384  1  0.12221954  0.08371847  0.29903117  1
  O  O385  1  0.12182972  0.08495160  0.80778029  1
  O  O386  1  0.12692456  0.57810084  0.30484245  1
  O  O387  1  0.12670390  0.58177002  0.80351399  1
  O  O388  1  0.45567139  0.08352112  0.29992490  1
  O  O389  1  0.44947368  0.07678725  0.80976444  1
  O  O390  1  0.45590384  0.58070166  0.30025502  1
  O  O391  1  0.44803421  0.59493298  0.79952062  1
  O  O392  1  0.78790273  0.08224415  0.30465847  1
  O  O393  1  0.78749050  0.08475144  0.80301857  1
  O  O394  1  0.78839567  0.58735489  0.30367363  1
  O  O395  1  0.79195247  0.58529259  0.80287351  1
  O  O396  1  0.29128804  0.33460047  0.30043499  1
  O  O397  1  0.28721398  0.32715474  0.80657933  1
  O  O398  1  0.29028016  0.83056098  0.30107190  1
  O  O399  1  0.28856837  0.83823837  0.80795925  1
  O  O400  1  0.62071738  0.33054977  0.30446534  1
  O  O401  1  0.62420485  0.33226523  0.80278919  1
  O  O402  1  0.62458274  0.83211938  0.30465198  1
  O  O403  1  0.62326823  0.83587122  0.80788719  1
  O  O404  1  0.95873199  0.33089945  0.30344313  1
  O  O405  1  0.96695784  0.33583179  0.80573427  1
  O  O406  1  0.95254810  0.84230396  0.30780021  1
  O  O407  1  0.96813895  0.82419420  0.80891341  1
  O  O408  1  0.12424308  0.41385487  0.30084795  1
  O  O409  1  0.12471505  0.41669781  0.80474864  1
  O  O410  1  0.12335618  0.91306434  0.30955637  1
  O  O411  1  0.13016805  0.91891305  0.80900146  1
  O  O412  1  0.45629269  0.41513694  0.29978328  1
  O  O413  1  0.44807975  0.40527567  0.80999140  1
  O  O414  1  0.46041282  0.91425723  0.30989109  1
  O  O415  1  0.45499194  0.91656750  0.80872867  1
  O  O416  1  0.79246848  0.41705660  0.29829620  1
  O  O417  1  0.79104882  0.41987840  0.80713813  1
  O  O418  1  0.78782777  0.91758080  0.30557297  1
  O  O419  1  0.78735131  0.92239542  0.81314721  1
  O  O420  1  0.29166042  0.16892960  0.30671354  1
  O  O421  1  0.28647147  0.16326306  0.80805605  1
  O  O422  1  0.29261325  0.66088678  0.30477085  1
  O  O423  1  0.28708707  0.67144743  0.80719257  1
  O  O424  1  0.62401743  0.16647966  0.30677914  1
  O  O425  1  0.62491015  0.16346122  0.81360918  1
  O  O426  1  0.62199431  0.66834581  0.30204823  1
  O  O427  1  0.62596320  0.67005075  0.80598114  1
  O  O428  1  0.95401674  0.16339985  0.30551861  1
  O  O429  1  0.95820842  0.17056750  0.80859139  1
  O  O430  1  0.95414440  0.66607533  0.29728850  1
  O  O431  1  0.95965237  0.66638491  0.80499533  1
  F  F432  1  0.03596090  -0.00333336  0.19869612  1
  F  F433  1  0.04737770  0.01252631  0.70089275  1
  F  F434  1  0.04624310  0.49728684  0.19993526  1
  F  F435  1  0.04903108  0.49897925  0.70155501  1
  F  F436  1  0.37990481  -0.00442775  0.20256609  1
  F  F437  1  0.37552873  -0.00096662  0.70455947  1
  F  F438  1  0.37857253  0.49846532  0.19744808  1
  F  F439  1  0.36616662  0.49864969  0.69774703  1
  F  F440  1  0.71005436  -0.00038087  0.20255435  1
  F  F441  1  0.70520856  0.00101035  0.70591044  1
  F  F442  1  0.71380597  0.50566620  0.19697157  1
  F  F443  1  0.71381344  0.49942251  0.70122462  1
  F  F444  1  0.21330681  0.25026824  0.19977993  1
  F  F445  1  0.21168790  0.24634971  0.70361230  1
  F  F446  1  0.21365449  0.74662282  0.20047733  1
  F  F447  1  0.21454899  0.75530846  0.70484414  1
  F  F448  1  0.54611207  0.24613804  0.20143268  1
  F  F449  1  0.54477946  0.24486643  0.70575898  1
  F  F450  1  0.54462638  0.75285867  0.20060848  1
  F  F451  1  0.54416205  0.75538636  0.70507641  1
  F  F452  1  0.87764417  0.24911307  0.20240228  1
  F  F453  1  0.87966794  0.24369411  0.70293055  1
  F  F454  1  0.86795003  0.75317960  0.19691594  1
  F  F455  1  0.88405774  0.74337675  0.69699974  1
  F  F456  1  0.29427733  0.00054693  0.30108699  1
  F  F457  1  0.28498342  0.00099731  0.80005268  1
  F  F458  1  0.28869941  0.49784260  0.29278287  1
  F  F459  1  0.28865462  0.50322393  0.79964688  1
  F  F460  1  0.62258955  -0.00127650  0.29921930  1
  F  F461  1  0.61719631  -0.00238339  0.80335501  1
  F  F462  1  0.62051428  0.50001817  0.29672873  1
  F  F463  1  0.63788121  0.50170922  0.80330933  1
  F  F464  1  0.95185452  0.00139113  0.29743567  1
  F  F465  1  0.95053048  0.01228140  0.80568897  1
  F  F466  1  0.95608086  0.49887082  0.29449824  1
  F  F467  1  0.96200485  0.50100642  0.80016166  1
  F  F468  1  0.12242750  0.25385426  0.29506210  1
  F  F469  1  0.12061697  0.25046402  0.79787936  1
  F  F470  1  0.12972984  0.74841183  0.30011433  1
  F  F471  1  0.12531729  0.75150127  0.79974722  1
  F  F472  1  0.45478501  0.25081661  0.29550262  1
  F  F473  1  0.45004684  0.24913419  0.80144936  1
  F  F474  1  0.45623111  0.74730541  0.29677863  1
  F  F475  1  0.45417864  0.75583450  0.80096257  1
  F  F476  1  0.78913455  0.24695458  0.29844694  1
  F  F477  1  0.78485149  0.24708624  0.80213067  1
  F  F478  1  0.78506310  0.75213166  0.29674103  1
  F  F479  1  0.78389137  0.74041176  0.79833608  1
