# generated using pymatgen
data_K24Na3Li5Mg64Fe17Si79(O5F)48
_symmetry_space_group_name_H-M   'P 1'
_cell_length_a   16.08496325
_cell_length_b   18.57227006
_cell_length_c   20.55153939
_cell_angle_alpha   90.00990394
_cell_angle_beta   99.99795793
_cell_angle_gamma   89.98429594
_symmetry_Int_Tables_number   1
_chemical_formula_structural   K24Na3Li5Mg64Fe17Si79(O5F)48
_chemical_formula_sum   'K24 Na3 Li5 Mg64 Fe17 Si79 O240 F48'
_cell_volume   6046.21504045
_cell_formula_units_Z   1
loop_
 _symmetry_equiv_pos_site_id
 _symmetry_equiv_pos_as_xyz
  1  'x, y, z'
loop_
 _atom_site_type_symbol
 _atom_site_label
 _atom_site_symmetry_multiplicity
 _atom_site_fract_x
 _atom_site_fract_y
 _atom_site_fract_z
 _atom_site_occupancy
  K  K0  1  -0.00182639  0.00139892  -0.00397260  1
  K  K1  1  0.00206461  -0.00835678  0.50480634  1
  K  K2  1  -0.00961651  0.50172876  -0.00139363  1
  K  K3  1  0.00241249  0.50209013  0.50063785  1
  K  K4  1  0.33702528  -0.00382908  -0.00149600  1
  K  K5  1  0.33356716  -0.00863840  0.50389902  1
  K  K6  1  0.34786395  0.50762789  0.00210065  1
  K  K7  1  0.35276938  0.50542515  0.50447171  1
  K  K8  1  0.66794562  -0.00027274  0.00412224  1
  K  K9  1  0.66426610  -0.00740142  0.49315704  1
  K  K10  1  0.65948257  0.48787733  0.00034114  1
  K  K11  1  0.66312875  0.49812395  0.49492334  1
  K  K12  1  0.16386700  0.24413068  -0.00263400  1
  K  K13  1  0.16891284  0.25201568  0.50480462  1
  K  K14  1  0.16776059  0.75128685  -0.00145032  1
  K  K15  1  0.17340232  0.75517837  0.50154291  1
  K  K16  1  0.51032580  0.25439568  -0.00033410  1
  K  K17  1  0.51239689  0.24931784  0.49797665  1
  K  K18  1  0.50438360  0.75683016  0.00668227  1
  K  K19  1  0.51349741  0.74727150  0.50087763  1
  K  K20  1  0.81897531  0.24725971  -0.00094750  1
  K  K21  1  0.81518421  0.25529795  0.49186264  1
  K  K22  1  0.81830764  0.75221410  0.00158528  1
  K  K23  1  0.81872404  0.75107828  0.49340756  1
  Na  Na24  1  0.83246793  0.49944192  0.75215145  1
  Na  Na25  1  0.16883036  0.33037256  0.74753549  1
  Na  Na26  1  0.66581880  0.08323856  0.24924724  1
  Li  Li27  1  0.66135522  0.24821217  0.25439515  1
  Li  Li28  1  0.50493871  0.50234172  0.74675692  1
  Li  Li29  1  0.16764075  0.66641778  0.24838737  1
  Li  Li30  1  0.66645053  0.91695359  0.75271347  1
  Li  Li31  1  0.32844193  0.91684701  0.74464507  1
  Mg  Mg32  1  0.16436671  0.50379874  0.25014104  1
  Mg  Mg33  1  0.66634480  0.75277759  0.74822240  1
  Mg  Mg34  1  0.49631421  -0.00235048  0.74752607  1
  Mg  Mg35  1  0.83018759  -0.00209903  0.75427650  1
  Mg  Mg36  1  0.16915001  0.49853871  0.74765717  1
  Mg  Mg37  1  0.16904088  0.00077318  0.24644040  1
  Mg  Mg38  1  0.83003266  0.49993418  0.25502765  1
  Mg  Mg39  1  0.50182295  0.00084284  0.24832050  1
  Mg  Mg40  1  0.83463474  -0.00122813  0.25062941  1
  Mg  Mg41  1  0.33256809  0.75318766  0.74283237  1
  Mg  Mg42  1  0.16755605  -0.00094234  0.75027954  1
  Mg  Mg43  1  0.00008339  0.25009066  0.25279428  1
  Mg  Mg44  1  0.66562218  0.24885260  0.75343317  1
  Mg  Mg45  1  0.33279371  0.25010103  0.24780706  1
  Mg  Mg46  1  0.00036919  0.25069878  0.75234214  1
  Mg  Mg47  1  0.33311139  0.25084712  0.74769022  1
  Mg  Mg48  1  0.00390978  0.74843420  0.25399682  1
  Mg  Mg49  1  0.33115228  0.74705858  0.24422998  1
  Mg  Mg50  1  0.66696414  0.75010040  0.25097514  1
  Mg  Mg51  1  0.50018677  0.50013452  0.24888217  1
  Mg  Mg52  1  -0.00023916  0.75048726  0.75060750  1
  Mg  Mg53  1  0.16725691  0.83020445  0.24928114  1
  Mg  Mg54  1  0.50042613  0.16744486  0.24924861  1
  Mg  Mg55  1  0.83258619  0.16718889  0.25409466  1
  Mg  Mg56  1  0.50114114  0.66535846  0.74528074  1
  Mg  Mg57  1  0.33872521  0.41892040  0.74791735  1
  Mg  Mg58  1  0.16783289  0.16590480  0.24728789  1
  Mg  Mg59  1  0.50063426  0.16465468  0.75091929  1
  Mg  Mg60  1  0.00020561  0.58558355  0.25364256  1
  Mg  Mg61  1  0.33282953  0.91460383  0.24717962  1
  Mg  Mg62  1  0.66755436  0.07899596  0.75354960  1
  Mg  Mg63  1  0.16770765  0.83618885  0.74816925  1
  Mg  Mg64  1  0.33801104  0.58384314  0.74483205  1
  Mg  Mg65  1  0.66742582  0.41268453  0.25446401  1
  Mg  Mg66  1  0.66425251  0.41714230  0.75056240  1
  Mg  Mg67  1  0.50189131  0.33260238  0.25197446  1
  Mg  Mg68  1  0.00189760  0.91545379  0.24875744  1
  Mg  Mg69  1  0.83077618  0.66562422  0.25319554  1
  Mg  Mg70  1  0.16820266  0.66599868  0.74735816  1
  Mg  Mg71  1  0.33033848  0.58559588  0.24677784  1
  Mg  Mg72  1  0.16660017  0.16592956  0.74883955  1
  Mg  Mg73  1  0.00144148  0.08451864  0.75300793  1
  Mg  Mg74  1  0.49803891  0.83587620  0.74552570  1
  Mg  Mg75  1  0.66268047  0.91466183  0.24767189  1
  Mg  Mg76  1  0.33051972  0.08205199  0.74644120  1
  Mg  Mg77  1  0.00100341  0.58251144  0.75064750  1
  Mg  Mg78  1  0.33310987  0.08474664  0.24691048  1
  Mg  Mg79  1  0.83340457  0.66610865  0.75016455  1
  Mg  Mg80  1  0.82898296  0.33204286  0.25700458  1
  Mg  Mg81  1  0.16403064  0.33558044  0.25101394  1
  Mg  Mg82  1  0.83352347  0.16397840  0.75495750  1
  Mg  Mg83  1  0.00135678  0.41683692  0.74947331  1
  Mg  Mg84  1  -0.00369784  0.41666716  0.25430063  1
  Mg  Mg85  1  0.49988864  0.83473449  0.24631492  1
  Mg  Mg86  1  0.50245691  0.33635808  0.74992545  1
  Mg  Mg87  1  0.83401181  0.83522900  0.75401969  1
  Mg  Mg88  1  0.00151153  0.08438209  0.24954612  1
  Mg  Mg89  1  0.83198994  0.83395713  0.25095484  1
  Mg  Mg90  1  0.66671078  0.58444803  0.25261202  1
  Mg  Mg91  1  0.00131084  0.91515215  0.75312709  1
  Mg  Mg92  1  0.33144074  0.41690399  0.25058586  1
  Mg  Mg93  1  0.49907340  0.66491162  0.24821746  1
  Mg  Mg94  1  0.66477228  0.58215374  0.74835063  1
  Mg  Mg95  1  0.83304869  0.33424249  0.75302839  1
  Fe  Fe96  1  0.69686906  0.66373290  0.10987055  1
  Fe  Fe97  1  0.35548820  0.66564427  0.10550079  1
  Fe  Fe98  1  0.81325476  0.41436484  0.39792442  1
  Fe  Fe99  1  0.51771741  0.92576848  0.10533254  1
  Fe  Fe100  1  0.80781942  0.07986969  0.89296357  1
  Fe  Fe101  1  0.81423060  0.58668355  0.39581798  1
  Fe  Fe102  1  0.97679212  0.82845164  0.89219731  1
  Fe  Fe103  1  0.18807354  0.91796781  0.60742675  1
  Fe  Fe104  1  0.69218710  0.83694792  0.10803544  1
  Fe  Fe105  1  0.63669039  0.32768423  0.39434918  1
  Fe  Fe106  1  0.14322299  0.08692533  0.88839934  1
  Fe  Fe107  1  0.18895853  0.07999296  0.10705461  1
  Fe  Fe108  1  0.64379602  0.33296458  0.89100760  1
  Fe  Fe109  1  0.52914048  0.57827617  0.10771736  1
  Fe  Fe110  1  0.35787831  0.16934487  0.10798751  1
  Fe  Fe111  1  0.64130564  0.83736395  0.39070504  1
  Fe  Fe112  1  0.53070019  0.58148500  0.60768883  1
  Si  Si113  1  0.18858732  0.58049549  0.11264419  1
  Si  Si114  1  0.46782048  0.58294678  0.38502392  1
  Si  Si115  1  0.70002721  0.16764188  0.11846021  1
  Si  Si116  1  0.47038771  0.08189857  0.38622818  1
  Si  Si117  1  0.86304805  0.08403124  0.11635649  1
  Si  Si118  1  0.86847474  0.91719093  0.11366263  1
  Si  Si119  1  0.02224503  0.33771129  0.61335852  1
  Si  Si120  1  0.30810794  0.66641231  0.88124136  1
  Si  Si121  1  0.14563498  0.91912431  0.38320554  1
  Si  Si122  1  0.14744092  0.41656959  0.88297627  1
  Si  Si123  1  0.13949157  0.58261448  0.38707336  1
  Si  Si124  1  0.52476021  0.09492578  0.11030946  1
  Si  Si125  1  0.02860893  0.66428069  0.11905641  1
  Si  Si126  1  0.85809219  0.41606971  0.61571394  1
  Si  Si127  1  0.30957460  0.17318039  0.88387574  1
  Si  Si128  1  0.02395063  0.17225650  0.11415328  1
  Si  Si129  1  0.64103394  0.66978871  0.88405399  1
  Si  Si130  1  0.30335174  0.66484992  0.38345529  1
  Si  Si131  1  0.30528580  0.82949478  0.38350192  1
  Si  Si132  1  0.69578856  0.83820750  0.61675894  1
  Si  Si133  1  0.13719071  0.41766393  0.38790414  1
  Si  Si134  1  0.52009959  0.40814756  0.11370248  1
  Si  Si135  1  0.98036524  0.33956253  0.88673658  1
  Si  Si136  1  0.85995421  0.91902817  0.61644271  1
  Si  Si137  1  0.14611148  0.91653282  0.88915967  1
  Si  Si138  1  0.02010024  0.82874454  0.61118821  1
  Si  Si139  1  0.18454939  0.91294948  0.11381145  1
  Si  Si140  1  0.02774999  0.82731347  0.11681321  1
  Si  Si141  1  0.34802856  0.33627712  0.11404802  1
  Si  Si142  1  0.35714525  0.66709430  0.60728282  1
  Si  Si143  1  0.14632973  0.08307124  0.38579201  1
  Si  Si144  1  0.18511601  0.41935891  0.11593886  1
  Si  Si145  1  0.86111063  0.58349035  0.61611385  1
  Si  Si146  1  0.30615688  0.82953255  0.88088767  1
  Si  Si147  1  0.80552014  0.58696888  0.88478020  1
  Si  Si148  1  0.36117957  0.83339629  0.60734445  1
  Si  Si149  1  0.47421833  0.58759784  0.88118466  1
  Si  Si150  1  0.02384447  0.66279560  0.61393706  1
  Si  Si151  1  0.35874102  0.16698257  0.61273888  1
  Si  Si152  1  0.30109273  0.33584353  0.38597156  1
  Si  Si153  1  0.97997615  0.65940240  0.88775104  1
  Si  Si154  1  0.98267060  0.83777035  0.38628041  1
  Si  Si155  1  0.97901229  0.32663885  0.39078866  1
  Si  Si156  1  0.63440714  0.15968026  0.88952603  1
  Si  Si157  1  0.46638990  0.41700401  0.38774207  1
  Si  Si158  1  0.86234056  0.08420603  0.61594518  1
  Si  Si159  1  0.69345133  0.33101554  0.11809798  1
  Si  Si160  1  0.64000376  0.15784598  0.39024443  1
  Si  Si161  1  0.69891735  0.67208899  0.61143591  1
  Si  Si162  1  0.02120482  0.33584395  0.11741692  1
  Si  Si163  1  0.19164274  0.58403619  0.61114363  1
  Si  Si164  1  0.98156601  0.16315566  0.38773821  1
  Si  Si165  1  0.52645072  0.91689617  0.61286375  1
  Si  Si166  1  0.98073118  0.67379343  0.39101744  1
  Si  Si167  1  0.52803548  0.41008946  0.61037725  1
  Si  Si168  1  0.19393966  0.41870851  0.61233885  1
  Si  Si169  1  0.69376244  0.16288729  0.61660709  1
  Si  Si170  1  0.47341787  0.42178676  0.88496939  1
  Si  Si171  1  0.97133792  0.17301583  0.89082221  1
  Si  Si172  1  0.02260853  0.17304922  0.61291339  1
  Si  Si173  1  0.52516789  0.08313416  0.61379175  1
  Si  Si174  1  0.63491465  0.83488420  0.88187236  1
  Si  Si175  1  0.81589574  0.08338616  0.38770328  1
  Si  Si176  1  0.80681752  0.91002402  0.89037370  1
  Si  Si177  1  0.46580748  0.08075623  0.88233938  1
  Si  Si178  1  0.81797071  0.91867265  0.39057622  1
  Si  Si179  1  0.63583415  0.66453121  0.39175196  1
  Si  Si180  1  0.30857108  0.17114602  0.38651815  1
  Si  Si181  1  0.46625224  0.91785250  0.38744840  1
  Si  Si182  1  0.18824950  0.08875512  0.60913321  1
  Si  Si183  1  0.14571859  0.57904500  0.88310696  1
  Si  Si184  1  0.85646630  0.41827213  0.11821994  1
  Si  Si185  1  0.46876445  0.91511685  0.87984861  1
  Si  Si186  1  0.86731292  0.58314520  0.11637672  1
  Si  Si187  1  0.34955057  0.83548266  0.10902936  1
  Si  Si188  1  0.81068895  0.41780578  0.88940053  1
  Si  Si189  1  0.69545005  0.32837773  0.61568323  1
  Si  Si190  1  0.35909527  0.33300830  0.61171300  1
  Si  Si191  1  0.31481630  0.33646548  0.88221425  1
  O  O192  1  0.28249917  0.09871557  0.07020122  1
  O  O193  1  0.26884493  0.12823709  0.58137653  1
  O  O194  1  0.26554485  0.59896345  0.07499447  1
  O  O195  1  0.26438011  0.62699415  0.58014762  1
  O  O196  1  0.61804403  0.11791555  0.09019728  1
  O  O197  1  0.60274065  0.12423895  0.58499831  1
  O  O198  1  0.62633759  0.59124729  0.07319067  1
  O  O199  1  0.61520484  0.63292455  0.57324171  1
  O  O200  1  0.94064059  0.12230358  0.08692418  1
  O  O201  1  0.93484069  0.12839821  0.58361466  1
  O  O202  1  0.95680196  0.60385821  0.09036979  1
  O  O203  1  0.94327424  0.61125015  0.58455653  1
  O  O204  1  0.10495211  0.36454199  0.08843431  1
  O  O205  1  0.10424779  0.37507583  0.58619103  1
  O  O206  1  0.11479373  0.84772472  0.08993769  1
  O  O207  1  0.08969130  0.86306076  0.57230342  1
  O  O208  1  0.43546698  0.35773131  0.08705099  1
  O  O209  1  0.43641388  0.36854475  0.58052183  1
  O  O210  1  0.42623430  0.86323460  0.07389810  1
  O  O211  1  0.44267683  0.87065472  0.57907463  1
  O  O212  1  0.77080727  0.37253531  0.08771712  1
  O  O213  1  0.77184841  0.37003387  0.58665549  1
  O  O214  1  0.79156984  0.86967880  0.07725140  1
  O  O215  1  0.76709906  0.88521903  0.58606232  1
  O  O216  1  0.27142710  0.39699584  0.08833641  1
  O  O217  1  0.26915070  0.37550587  0.58166855  1
  O  O218  1  0.27046437  0.89334616  0.08539144  1
  O  O219  1  0.27892249  0.87759052  0.57175269  1
  O  O220  1  0.60222803  0.36902843  0.08781617  1
  O  O221  1  0.60297450  0.36160711  0.58398519  1
  O  O222  1  0.60835112  0.89759438  0.06771625  1
  O  O223  1  0.60629505  0.87878214  0.58566900  1
  O  O224  1  0.93892005  0.38621225  0.08849271  1
  O  O225  1  0.93742668  0.38440614  0.58180810  1
  O  O226  1  0.95512325  0.88666375  0.08840748  1
  O  O227  1  0.92966662  0.87169891  0.58523026  1
  O  O228  1  0.10222052  0.14922247  0.08021795  1
  O  O229  1  0.10300867  0.13946648  0.58303403  1
  O  O230  1  0.11131717  0.63884289  0.08785922  1
  O  O231  1  0.10302605  0.62709044  0.58335983  1
  O  O232  1  0.46150609  0.15956115  0.07896796  1
  O  O233  1  0.43640296  0.12629494  0.58328039  1
  O  O234  1  0.44551391  0.64055395  0.06563218  1
  O  O235  1  0.42545386  0.62565931  0.57242276  1
  O  O236  1  0.77782945  0.12969757  0.08633705  1
  O  O237  1  0.76887248  0.11951203  0.58706796  1
  O  O238  1  0.79961950  0.63967770  0.08064577  1
  O  O239  1  0.78174611  0.63554414  0.58554367  1
  O  O240  1  0.06417382  0.11161550  0.41683769  1
  O  O241  1  0.04932696  0.12165579  0.92275076  1
  O  O242  1  0.06469850  0.62253327  0.41907343  1
  O  O243  1  0.06062801  0.60293925  0.91179868  1
  O  O244  1  0.39930032  0.13235759  0.41586064  1
  O  O245  1  0.38573598  0.11536951  0.91110633  1
  O  O246  1  0.38895372  0.62006340  0.41506521  1
  O  O247  1  0.39285727  0.62025866  0.91111428  1
  O  O248  1  0.73147544  0.11274092  0.41473964  1
  O  O249  1  0.70707441  0.10367084  0.92176677  1
  O  O250  1  0.71461556  0.61481333  0.42557570  1
  O  O251  1  0.72842213  0.62588461  0.91589811  1
  O  O252  1  0.22101961  0.36891664  0.41665765  1
  O  O253  1  0.22814623  0.36321595  0.90882951  1
  O  O254  1  0.22668979  0.86824023  0.41275921  1
  O  O255  1  0.22626576  0.85962032  0.91224711  1
  O  O256  1  0.54148833  0.36813200  0.42571329  1
  O  O257  1  0.55342018  0.37701137  0.92341093  1
  O  O258  1  0.55498022  0.88652856  0.42571937  1
  O  O259  1  0.55311000  0.86800999  0.91050445  1
  O  O260  1  0.90254977  0.34642685  0.42741183  1
  O  O261  1  0.90642198  0.38301474  0.91673373  1
  O  O262  1  0.90558108  0.87189268  0.41931123  1
  O  O263  1  0.87546503  0.84914858  0.92154281  1
  O  O264  1  0.06101670  0.37971647  0.41906498  1
  O  O265  1  0.06786637  0.38467572  0.91500569  1
  O  O266  1  0.06439179  0.89017082  0.41397132  1
  O  O267  1  0.06806936  0.88976807  0.92411015  1
  O  O268  1  0.38013129  0.38789319  0.41490737  1
  O  O269  1  0.38870843  0.39330398  0.91427875  1
  O  O270  1  0.39016120  0.87343465  0.41613929  1
  O  O271  1  0.38996880  0.87828771  0.90937782  1
  O  O272  1  0.72639418  0.38086402  0.43852526  1
  O  O273  1  0.74541890  0.37971487  0.93023484  1
  O  O274  1  0.74421486  0.88621035  0.42601056  1
  O  O275  1  0.71536818  0.88553434  0.91203234  1
  O  O276  1  0.23036375  0.13165970  0.41648399  1
  O  O277  1  0.22842499  0.15523859  0.91662480  1
  O  O278  1  0.22731756  0.62609095  0.41567242  1
  O  O279  1  0.22696039  0.63159076  0.91040551  1
  O  O280  1  0.56563662  0.10898524  0.41958341  1
  O  O281  1  0.54659524  0.13030781  0.91294854  1
  O  O282  1  0.55093563  0.62889985  0.41656559  1
  O  O283  1  0.56011646  0.63342741  0.91132987  1
  O  O284  1  0.89971316  0.13413571  0.41880668  1
  O  O285  1  0.88801742  0.15239945  0.92161086  1
  O  O286  1  0.90380578  0.65335655  0.42770134  1
  O  O287  1  0.89678491  0.62575408  0.91499766  1
  O  O288  1  0.14380700  -0.01268888  0.08310931  1
  O  O289  1  0.17127706  0.01280222  0.57107985  1
  O  O290  1  0.15240663  0.49864384  0.08681288  1
  O  O291  1  0.18332846  0.50108687  0.58021770  1
  O  O292  1  0.49537224  0.01996260  0.07215938  1
  O  O293  1  0.51711928  0.00071844  0.58282742  1
  O  O294  1  0.50029254  0.48328168  0.07541005  1
  O  O295  1  0.52314890  0.48659086  0.57291950  1
  O  O296  1  0.85678480  0.00175696  0.08748178  1
  O  O297  1  0.86202690  0.00161931  0.58642747  1
  O  O298  1  0.84457541  0.50005652  0.08827262  1
  O  O299  1  0.84161429  0.49997959  0.59081957  1
  O  O300  1  -0.00328018  0.25524559  0.08893105  1
  O  O301  1  0.01180644  0.25543523  0.58208243  1
  O  O302  1  0.00050955  0.74555504  0.08970314  1
  O  O303  1  0.00422743  0.74420070  0.58479458  1
  O  O304  1  0.31156770  0.26169153  0.08110244  1
  O  O305  1  0.34916758  0.24978823  0.58272451  1
  O  O306  1  0.31466965  0.75809752  0.07922825  1
  O  O307  1  0.34890521  0.75003779  0.57786622  1
  O  O308  1  0.68890706  0.24957758  0.08522519  1
  O  O309  1  0.69328792  0.24502139  0.58679086  1
  O  O310  1  0.66385065  0.74923220  0.06754791  1
  O  O311  1  0.69569570  0.75700878  0.58473819  1
  O  O312  1  0.16726532  0.00067394  0.41323370  1
  O  O313  1  0.17860064  -0.00528336  0.91844376  1
  O  O314  1  0.14987965  0.49976071  0.41832416  1
  O  O315  1  0.17069519  0.49811296  0.91350527  1
  O  O316  1  0.45693542  0.00120288  0.41536740  1
  O  O317  1  0.47924259  -0.00233390  0.90987404  1
  O  O318  1  0.47650005  0.50089214  0.41554812  1
  O  O319  1  0.48655671  0.50598995  0.91094829  1
  O  O320  1  0.83832227  0.00228709  0.41914383  1
  O  O321  1  0.83584344  -0.01313289  0.92566611  1
  O  O322  1  0.85369702  0.50103450  0.43521075  1
  O  O323  1  0.81824003  0.50377990  0.91235304  1
  O  O324  1  0.31512447  0.25372751  0.41696823  1
  O  O325  1  0.34153194  0.25519228  0.91016397  1
  O  O326  1  0.31137412  0.74745500  0.41405232  1
  O  O327  1  0.32316656  0.74756729  0.91176870  1
  O  O328  1  0.64877411  0.23214645  0.43217766  1
  O  O329  1  0.65348406  0.23834443  0.92345632  1
  O  O330  1  0.64682571  0.74394164  0.42650770  1
  O  O331  1  0.65172389  0.75257774  0.91270435  1
  O  O332  1  1.01079116  0.24383532  0.41539895  1
  O  O333  1  0.99440147  0.25800042  0.91611001  1
  O  O334  1  1.01002296  0.75726810  0.41515066  1
  O  O335  1  1.00775631  0.73432370  0.92414394  1
  O  O336  1  0.21103817  0.08417378  0.20030138  1
  O  O337  1  0.20863618  0.08513395  0.68943377  1
  O  O338  1  0.20957487  0.57859297  0.19296781  1
  O  O339  1  0.21024954  0.58349076  0.69147455  1
  O  O340  1  0.53145615  0.08608406  0.19036199  1
  O  O341  1  0.54266462  0.08373451  0.69374394  1
  O  O342  1  0.54461545  0.58206170  0.20101553  1
  O  O343  1  0.54698728  0.58624953  0.69775216  1
  O  O344  1  0.88039364  0.08418742  0.19693711  1
  O  O345  1  0.88034983  0.08542764  0.69588001  1
  O  O346  1  0.88097898  0.58251137  0.19731026  1
  O  O347  1  0.88309199  0.58998535  0.69538153  1
  O  O348  1  0.04118867  0.33556563  0.19814086  1
  O  O349  1  0.03474603  0.33401673  0.69257260  1
  O  O350  1  0.04409481  0.83064922  0.19746172  1
  O  O351  1  0.04281148  0.83133994  0.69184014  1
  O  O352  1  0.36893832  0.33616000  0.19535054  1
  O  O353  1  0.37700120  0.33381723  0.69173376  1
  O  O354  1  0.37273541  0.83428109  0.19110416  1
  O  O355  1  0.37802943  0.83098881  0.68735250  1
  O  O356  1  0.71358893  0.33375317  0.19725715  1
  O  O357  1  0.71270254  0.33026143  0.69567984  1
  O  O358  1  0.71456886  0.83300359  0.20101845  1
  O  O359  1  0.71383642  0.83393036  0.69613361  1
  O  O360  1  0.20418754  0.41757079  0.19675406  1
  O  O361  1  0.21657718  0.42364178  0.69120780  1
  O  O362  1  0.20709140  0.91438887  0.19527898  1
  O  O363  1  0.20526689  0.91768274  0.69763946  1
  O  O364  1  0.53878440  0.41437024  0.19435812  1
  O  O365  1  0.54359686  0.41137822  0.69024650  1
  O  O366  1  0.54024275  0.91883122  0.19765444  1
  O  O367  1  0.53799288  0.91790046  0.69193309  1
  O  O368  1  0.87717110  0.41565712  0.19843506  1
  O  O369  1  0.88070466  0.40905950  0.69484427  1
  O  O370  1  0.88235583  0.91640825  0.19494086  1
  O  O371  1  0.87689054  0.91869465  0.69637755  1
  O  O372  1  0.04294370  0.16922770  0.19563556  1
  O  O373  1  0.03925370  0.17032107  0.69286342  1
  O  O374  1  0.04262801  0.66608475  0.19894614  1
  O  O375  1  0.04484927  0.66431918  0.69445192  1
  O  O376  1  0.37508478  0.16827649  0.20099692  1
  O  O377  1  0.37777893  0.16687480  0.69276016  1
  O  O378  1  0.37683190  0.66465597  0.19819442  1
  O  O379  1  0.37420239  0.66720892  0.68820450  1
  O  O380  1  0.72111008  0.17300848  0.19694718  1
  O  O381  1  0.70862391  0.16471846  0.69654850  1
  O  O382  1  0.71141396  0.66754126  0.20273235  1
  O  O383  1  0.71176798  0.66914793  0.69213233  1
  O  O384  1  0.12487863  0.08491724  0.30581861  1
  O  O385  1  0.12191299  0.08381877  0.79617187  1
  O  O386  1  0.12019826  0.57938985  0.30767896  1
  O  O387  1  0.12745051  0.58223892  0.80245141  1
  O  O388  1  0.45405990  0.08292756  0.30634024  1
  O  O389  1  0.45218133  0.08269081  0.80170115  1
  O  O390  1  0.45138701  0.58139090  0.30519947  1
  O  O391  1  0.45371012  0.59008615  0.80165898  1
  O  O392  1  0.80512552  0.08193771  0.30865759  1
  O  O393  1  0.78876063  0.08188863  0.80083469  1
  O  O394  1  0.79127894  0.58298737  0.30359024  1
  O  O395  1  0.78496690  0.59212214  0.80544266  1
  O  O396  1  0.28428270  0.33447798  0.30575353  1
  O  O397  1  0.30177478  0.33588000  0.80255591  1
  O  O398  1  0.28909909  0.83155430  0.30349544  1
  O  O399  1  0.28761898  0.82705204  0.80116830  1
  O  O400  1  0.61917182  0.33480410  0.30382233  1
  O  O401  1  0.62162546  0.33232606  0.79931281  1
  O  O402  1  0.62001087  0.83254031  0.30027719  1
  O  O403  1  0.61762802  0.83101806  0.80208084  1
  O  O404  1  0.96093104  0.33167639  0.30989758  1
  O  O405  1  0.95935595  0.33642659  0.80631329  1
  O  O406  1  0.96056199  0.83632466  0.30618750  1
  O  O407  1  0.95724174  0.83164808  0.79980175  1
  O  O408  1  0.12097992  0.41720128  0.30756521  1
  O  O409  1  0.12313310  0.42239066  0.80379774  1
  O  O410  1  0.12547396  0.91846774  0.30320540  1
  O  O411  1  0.12282603  0.91498066  0.80736143  1
  O  O412  1  0.45155403  0.41633924  0.30690975  1
  O  O413  1  0.45709537  0.41593526  0.80477546  1
  O  O414  1  0.45115038  0.91566788  0.30706826  1
  O  O415  1  0.45431951  0.91584525  0.80013293  1
  O  O416  1  0.79070537  0.41563184  0.30503688  1
  O  O417  1  0.78660970  0.40827451  0.81004016  1
  O  O418  1  0.79978192  0.91768751  0.31027649  1
  O  O419  1  0.79493650  0.91500109  0.80957827  1
  O  O420  1  0.28764872  0.17029580  0.30690470  1
  O  O421  1  0.29157965  0.16955092  0.80262107  1
  O  O422  1  0.28820281  0.66541259  0.30423401  1
  O  O423  1  0.28992057  0.66605556  0.80051137  1
  O  O424  1  0.61464407  0.16694898  0.31199453  1
  O  O425  1  0.62093737  0.16362398  0.80753365  1
  O  O426  1  0.62025125  0.66691385  0.31068777  1
  O  O427  1  0.62446372  0.66947032  0.80373016  1
  O  O428  1  0.96276446  0.16419556  0.30740940  1
  O  O429  1  0.95589296  0.16930817  0.80883073  1
  O  O430  1  0.96052313  0.66822866  0.31031281  1
  O  O431  1  0.96016696  0.66423668  0.80672252  1
  F  F432  1  0.04595662  0.00118213  0.20258365  1
  F  F433  1  0.04113586  -0.00184150  0.70091448  1
  F  F434  1  0.04277611  0.49852286  0.20490664  1
  F  F435  1  0.04732005  0.50035823  0.69812581  1
  F  F436  1  0.37730298  -0.00104136  0.20377458  1
  F  F437  1  0.37978776  0.00720100  0.69394132  1
  F  F438  1  0.37610028  0.49828261  0.20317614  1
  F  F439  1  0.37483955  0.50069693  0.69626505  1
  F  F440  1  0.72038583  -0.00949749  0.20146485  1
  F  F441  1  0.71264085  0.00103815  0.69987410  1
  F  F442  1  0.71036255  0.49709074  0.20418362  1
  F  F443  1  0.70143720  0.49806351  0.69765425  1
  F  F444  1  0.20819583  0.25324448  0.20306947  1
  F  F445  1  0.21680710  0.24105640  0.69431017  1
  F  F446  1  0.21017751  0.75082214  0.20153435  1
  F  F447  1  0.20978925  0.74824044  0.69665537  1
  F  F448  1  0.53784249  0.25049160  0.20244733  1
  F  F449  1  0.54505564  0.24575049  0.70009291  1
  F  F450  1  0.54365324  0.74803842  0.20135791  1
  F  F451  1  0.54565365  0.75107197  0.69754223  1
  F  F452  1  0.88204073  0.25111840  0.20641029  1
  F  F453  1  0.87764088  0.24862626  0.70547503  1
  F  F454  1  0.88252766  0.74967810  0.20780563  1
  F  F455  1  0.87847966  0.74907530  0.70196406  1
  F  F456  1  0.28785273  -0.00196960  0.29896388  1
  F  F457  1  0.28734527  0.00563972  0.79648003  1
  F  F458  1  0.28488393  0.49971095  0.29879009  1
  F  F459  1  0.29010343  0.50279747  0.79577464  1
  F  F460  1  0.61769034  -0.00805233  0.30306750  1
  F  F461  1  0.61407823  0.00158327  0.79738030  1
  F  F462  1  0.61956409  0.49741035  0.30034243  1
  F  F463  1  0.62749600  0.49957520  0.80121057  1
  F  F464  1  0.96001417  -0.00040787  0.29832868  1
  F  F465  1  0.95478583  0.00066657  0.79848073  1
  F  F466  1  0.95608442  0.50019540  0.30159403  1
  F  F467  1  0.96836081  0.49981251  0.80079601  1
  F  F468  1  0.12217614  0.25012222  0.29931405  1
  F  F469  1  0.11747519  0.24263213  0.79927867  1
  F  F470  1  0.12146873  0.75589381  0.30403398  1
  F  F471  1  0.12277288  0.74827302  0.79458255  1
  F  F472  1  0.44939849  0.25390844  0.30148292  1
  F  F473  1  0.45504424  0.24988837  0.79439320  1
  F  F474  1  0.45159673  0.75196589  0.29609857  1
  F  F475  1  0.45282191  0.74997347  0.79147724  1
  F  F476  1  0.80226085  0.24768209  0.30863290  1
  F  F477  1  0.78747799  0.24882961  0.79960985  1
  F  F478  1  0.79304710  0.75151753  0.30420719  1
  F  F479  1  0.78756482  0.74956322  0.79750755  1
