# generated using pymatgen
data_K24Na3Li5Mg64Fe17Si79(O5F)48
_symmetry_space_group_name_H-M   'P 1'
_cell_length_a   16.08518819
_cell_length_b   18.57190431
_cell_length_c   20.54395462
_cell_angle_alpha   89.98161180
_cell_angle_beta   100.00924386
_cell_angle_gamma   90.03692351
_symmetry_Int_Tables_number   1
_chemical_formula_structural   K24Na3Li5Mg64Fe17Si79(O5F)48
_chemical_formula_sum   'K24 Na3 Li5 Mg64 Fe17 Si79 O240 F48'
_cell_volume   6043.73800172
_cell_formula_units_Z   1
loop_
 _symmetry_equiv_pos_site_id
 _symmetry_equiv_pos_as_xyz
  1  'x, y, z'
loop_
 _atom_site_type_symbol
 _atom_site_label
 _atom_site_symmetry_multiplicity
 _atom_site_fract_x
 _atom_site_fract_y
 _atom_site_fract_z
 _atom_site_occupancy
  K  K0  1  0.01233437  0.00005023  0.00364322  1
  K  K1  1  0.00501429  -0.00146530  0.50080462  1
  K  K2  1  0.00547906  0.50763804  -0.00107600  1
  K  K3  1  0.00513789  0.49767504  0.50486078  1
  K  K4  1  0.33871813  -0.00485158  0.00160567  1
  K  K5  1  0.33807350  0.00036560  0.50095900  1
  K  K6  1  0.33219643  0.50280538  -0.00012253  1
  K  K7  1  0.33199067  0.50113785  0.49968532  1
  K  K8  1  0.65526932  0.00126520  -0.00359165  1
  K  K9  1  0.65772005  0.00432238  0.49618658  1
  K  K10  1  0.66153272  0.51297250  -0.00283123  1
  K  K11  1  0.65981801  0.50302215  0.50194815  1
  K  K12  1  0.17332850  0.24676483  0.00156693  1
  K  K13  1  0.18019983  0.25038660  0.50572044  1
  K  K14  1  0.17424319  0.74503402  0.00245174  1
  K  K15  1  0.17407538  0.75122091  0.49812149  1
  K  K16  1  0.48996574  0.24794051  -0.00680311  1
  K  K17  1  0.49158207  0.25002418  0.49368199  1
  K  K18  1  0.49871359  0.75246320  0.00342821  1
  K  K19  1  0.49844855  0.75098687  0.49743359  1
  K  K20  1  0.83515263  0.24626145  -0.00329041  1
  K  K21  1  0.82986365  0.25333154  0.50433522  1
  K  K22  1  0.83390030  0.73494368  0.00086147  1
  K  K23  1  0.83025920  0.75131231  0.49959674  1
  Na  Na24  1  0.33253686  0.25117576  0.74797066  1
  Na  Na25  1  0.33487993  0.58235194  0.25190578  1
  Na  Na26  1  0.50099260  0.67418910  0.25602870  1
  Li  Li27  1  0.49970264  -0.00795218  0.25486578  1
  Li  Li28  1  0.16073596  0.49453770  0.74459854  1
  Li  Li29  1  -0.00404503  0.58783628  0.23847206  1
  Li  Li30  1  0.50367057  0.83390676  0.25731589  1
  Li  Li31  1  0.00706585  0.42010293  0.74498240  1
  Mg  Mg32  1  0.66338005  0.75166793  0.25087052  1
  Mg  Mg33  1  0.83081860  -0.00084801  0.25219530  1
  Mg  Mg34  1  0.00122567  0.74867563  0.74992368  1
  Mg  Mg35  1  0.83830195  0.50033265  0.74863134  1
  Mg  Mg36  1  0.50114316  0.00168987  0.75505308  1
  Mg  Mg37  1  -0.00201112  0.74605801  0.24566841  1
  Mg  Mg38  1  0.66473764  0.24875175  0.25195212  1
  Mg  Mg39  1  0.33368873  0.74956818  0.75312586  1
  Mg  Mg40  1  0.83545255  0.50127020  0.24636521  1
  Mg  Mg41  1  0.16660754  -0.00046015  0.24726300  1
  Mg  Mg42  1  0.33229032  0.24849349  0.25174512  1
  Mg  Mg43  1  0.16317722  0.50290538  0.24462331  1
  Mg  Mg44  1  0.83373227  -0.00079136  0.74996849  1
  Mg  Mg45  1  0.00134823  0.25307674  0.74709531  1
  Mg  Mg46  1  0.66775140  0.25138387  0.75249702  1
  Mg  Mg47  1  0.50097595  0.49846353  0.74964792  1
  Mg  Mg48  1  0.49872176  0.50193588  0.25283501  1
  Mg  Mg49  1  -0.00069984  0.25064932  0.24530978  1
  Mg  Mg50  1  0.66790479  0.74935943  0.74894248  1
  Mg  Mg51  1  0.33516514  0.75092653  0.25073821  1
  Mg  Mg52  1  0.16939725  0.00050795  0.75090213  1
  Mg  Mg53  1  0.16742762  0.33518326  0.24986260  1
  Mg  Mg54  1  0.66645273  0.58628143  0.74795031  1
  Mg  Mg55  1  0.83012770  0.83472144  0.25242691  1
  Mg  Mg56  1  0.16459479  0.33685064  0.74749005  1
  Mg  Mg57  1  0.49986635  0.33462943  0.74971602  1
  Mg  Mg58  1  0.50152556  0.66533201  0.75148465  1
  Mg  Mg59  1  0.33553036  0.41729002  0.25272184  1
  Mg  Mg60  1  0.16883726  0.16456419  0.24901198  1
  Mg  Mg61  1  0.83356020  0.16630608  0.75119108  1
  Mg  Mg62  1  0.83160160  0.33392322  0.24650939  1
  Mg  Mg63  1  0.83465822  0.66398879  0.24576891  1
  Mg  Mg64  1  0.66833101  0.41735343  0.75000528  1
  Mg  Mg65  1  0.66270233  0.91548536  0.25565645  1
  Mg  Mg66  1  0.83777802  0.33574446  0.74874857  1
  Mg  Mg67  1  0.49934139  0.33482691  0.25323344  1
  Mg  Mg68  1  0.33771345  0.91576892  0.24890906  1
  Mg  Mg69  1  0.33054776  0.58094815  0.75174217  1
  Mg  Mg70  1  0.83111825  0.83312692  0.74703366  1
  Mg  Mg71  1  0.83223115  0.66532501  0.74687377  1
  Mg  Mg72  1  0.33326545  0.08227588  0.25091550  1
  Mg  Mg73  1  0.49807015  0.16223315  0.25221391  1
  Mg  Mg74  1  0.66504875  0.91543172  0.74916049  1
  Mg  Mg75  1  -0.00284715  0.41952016  0.24418162  1
  Mg  Mg76  1  0.16796328  0.16665405  0.74898399  1
  Mg  Mg77  1  0.00032895  0.08461092  0.74823361  1
  Mg  Mg78  1  0.66422253  0.08091186  0.25331121  1
  Mg  Mg79  1  0.83204176  0.16591919  0.24976459  1
  Mg  Mg80  1  -0.00331792  0.91416885  0.24859355  1
  Mg  Mg81  1  0.16413950  0.83356978  0.24529760  1
  Mg  Mg82  1  0.50258240  0.83571527  0.75393745  1
  Mg  Mg83  1  0.50148310  0.16702732  0.75366336  1
  Mg  Mg84  1  0.16757751  0.66194093  0.75092213  1
  Mg  Mg85  1  0.16408204  0.66573449  0.24462249  1
  Mg  Mg86  1  0.66597601  0.08586662  0.75223990  1
  Mg  Mg87  1  0.00273729  0.57897763  0.74674330  1
  Mg  Mg88  1  0.00159842  0.91560507  0.75069210  1
  Mg  Mg89  1  0.17010483  0.83280651  0.75316955  1
  Mg  Mg90  1  0.66589268  0.41581653  0.25110451  1
  Mg  Mg91  1  0.32910578  0.41705466  0.74893146  1
  Mg  Mg92  1  -0.00022037  0.08416682  0.24784804  1
  Mg  Mg93  1  0.33504728  0.08494511  0.75381333  1
  Mg  Mg94  1  0.66708788  0.58494997  0.25020861  1
  Mg  Mg95  1  0.33605816  0.91397896  0.75504568  1
  Fe  Fe96  1  0.30673990  0.16477770  0.39146595  1
  Fe  Fe97  1  0.30765453  0.82908852  0.89396251  1
  Fe  Fe98  1  0.85007179  0.57788493  0.10423564  1
  Fe  Fe99  1  0.52297734  0.92610186  0.61223436  1
  Fe  Fe100  1  0.64430802  0.66551679  0.89148853  1
  Fe  Fe101  1  0.47474902  0.42450002  0.39289387  1
  Fe  Fe102  1  0.47229820  0.08740384  0.89594390  1
  Fe  Fe103  1  0.64732676  0.17117662  0.89457997  1
  Fe  Fe104  1  0.69275321  0.83711560  0.60786269  1
  Fe  Fe105  1  0.19072744  0.41776138  0.60709758  1
  Fe  Fe106  1  0.81196763  0.92274720  0.39406729  1
  Fe  Fe107  1  0.68732856  0.66369312  0.60603536  1
  Fe  Fe108  1  0.64224737  0.83348367  0.39517289  1
  Fe  Fe109  1  0.02347733  0.66475573  0.10356965  1
  Fe  Fe110  1  0.19300149  0.08191299  0.60988991  1
  Fe  Fe111  1  0.52288773  0.41189273  0.61145872  1
  Fe  Fe112  1  0.19500157  0.08310620  0.10765455  1
  Si  Si113  1  0.13638780  0.57920672  0.88325082  1
  Si  Si114  1  0.81171802  0.57748402  0.38487234  1
  Si  Si115  1  0.13520082  0.08437635  0.88540867  1
  Si  Si116  1  0.69558484  0.16742082  0.61523263  1
  Si  Si117  1  0.64318284  0.33119753  0.38847070  1
  Si  Si118  1  0.36191331  0.16683441  0.61630731  1
  Si  Si119  1  0.19290792  0.41463729  0.11250215  1
  Si  Si120  1  0.02993499  0.83171389  0.61731283  1
  Si  Si121  1  0.02202916  0.16791808  0.11001150  1
  Si  Si122  1  0.81172103  0.91695400  0.88520270  1
  Si  Si123  1  0.30252752  0.83734843  0.38365826  1
  Si  Si124  1  0.85525991  0.08621693  0.11457620  1
  Si  Si125  1  0.97200875  0.83274295  0.88413572  1
  Si  Si126  1  0.47993238  0.58973244  0.39105027  1
  Si  Si127  1  0.01844290  0.83658408  0.10949734  1
  Si  Si128  1  0.81217084  0.07980258  0.88851938  1
  Si  Si129  1  0.35758485  0.66812907  0.61753875  1
  Si  Si130  1  0.86423323  0.58311833  0.61046477  1
  Si  Si131  1  0.13516709  0.91477405  0.38247167  1
  Si  Si132  1  0.68812403  0.16334084  0.11666726  1
  Si  Si133  1  0.36082115  0.66614532  0.11488348  1
  Si  Si134  1  0.97428353  0.82635131  0.38651667  1
  Si  Si135  1  0.36162913  0.33499754  0.11549342  1
  Si  Si136  1  0.52704547  0.08074539  0.11832575  1
  Si  Si137  1  0.97341684  0.17282983  0.38204290  1
  Si  Si138  1  0.46931891  0.91451654  0.38628253  1
  Si  Si139  1  0.68701850  0.67212144  0.11232225  1
  Si  Si140  1  0.85011678  0.40867498  0.10846267  1
  Si  Si141  1  0.19446491  0.58195554  0.10758633  1
  Si  Si142  1  0.29835814  0.16797733  0.89051996  1
  Si  Si143  1  0.13779372  0.41450839  0.88453524  1
  Si  Si144  1  0.35990345  0.83247735  0.61571048  1
  Si  Si145  1  0.64319065  0.16458983  0.38684053  1
  Si  Si146  1  0.52769865  0.41859161  0.11482008  1
  Si  Si147  1  0.68662386  0.32697390  0.11426536  1
  Si  Si148  1  0.47454069  0.41270677  0.88663650  1
  Si  Si149  1  0.30507310  0.65771690  0.88897875  1
  Si  Si150  1  0.52702721  0.58279978  0.11646032  1
  Si  Si151  1  0.64893412  0.83532832  0.89007233  1
  Si  Si152  1  0.52323659  0.91739791  0.11937239  1
  Si  Si153  1  0.86405377  0.41720167  0.61486641  1
  Si  Si154  1  0.64984372  0.34073356  0.88957354  1
  Si  Si155  1  0.81401497  0.09114981  0.38763426  1
  Si  Si156  1  0.68817939  0.83808761  0.11532516  1
  Si  Si157  1  0.86797880  0.91535125  0.61411568  1
  Si  Si158  1  0.13122201  0.08130584  0.38587660  1
  Si  Si159  1  0.47183081  0.57849702  0.88836145  1
  Si  Si160  1  0.51609567  0.57999817  0.61281983  1
  Si  Si161  1  0.02383936  0.33044117  0.61102774  1
  Si  Si162  1  0.30192306  0.33699018  0.38797352  1
  Si  Si163  1  0.80974550  0.41238872  0.38323544  1
  Si  Si164  1  0.97234899  0.16693133  0.88468285  1
  Si  Si165  1  0.65283015  0.66439698  0.38870619  1
  Si  Si166  1  0.30714177  0.67265442  0.38438429  1
  Si  Si167  1  0.30376618  0.33611340  0.88691432  1
  Si  Si168  1  0.85845173  0.08094144  0.61462149  1
  Si  Si169  1  0.14561521  0.58410710  0.38185705  1
  Si  Si170  1  0.85444121  0.92046898  0.11353118  1
  Si  Si171  1  0.97684688  0.66786241  0.88237140  1
  Si  Si172  1  0.69919777  0.33446333  0.61331972  1
  Si  Si173  1  0.02083138  0.16754926  0.61151319  1
  Si  Si174  1  0.19183966  0.91189196  0.10983975  1
  Si  Si175  1  0.48058126  0.91414478  0.89462429  1
  Si  Si176  1  0.02780295  0.66855814  0.61489272  1
  Si  Si177  1  0.97589297  0.33544798  0.38047943  1
  Si  Si178  1  0.13638212  0.41994953  0.38065972  1
  Si  Si179  1  0.13618727  0.91802304  0.88828644  1
  Si  Si180  1  0.97493305  0.33059208  0.88468673  1
  Si  Si181  1  0.81546605  0.58122128  0.88495295  1
  Si  Si182  1  0.35887502  0.82941992  0.11488155  1
  Si  Si183  1  0.97641621  0.66194810  0.38233363  1
  Si  Si184  1  0.47638272  0.08066313  0.38866356  1
  Si  Si185  1  0.81453713  0.41912549  0.88454610  1
  Si  Si186  1  0.02328108  0.33492582  0.11158659  1
  Si  Si187  1  0.36647682  0.16996488  0.11220340  1
  Si  Si188  1  0.52425029  0.09390219  0.61391748  1
  Si  Si189  1  0.19183163  0.91196913  0.61481140  1
  Si  Si190  1  0.19141981  0.58827119  0.61271392  1
  Si  Si191  1  0.35997891  0.33187040  0.61149169  1
  O  O192  1  0.28191156  0.13133332  0.07444999  1
  O  O193  1  0.29152949  0.11062070  0.57898444  1
  O  O194  1  0.27827625  0.61690474  0.08196605  1
  O  O195  1  0.27537231  0.61964251  0.58460578  1
  O  O196  1  0.61080495  0.10902264  0.08842856  1
  O  O197  1  0.60949628  0.12345289  0.58537581  1
  O  O198  1  0.59819378  0.62773660  0.08497252  1
  O  O199  1  0.59774182  0.59848076  0.57960303  1
  O  O200  1  0.93144279  0.12512092  0.08367805  1
  O  O201  1  0.93673588  0.11632907  0.58433868  1
  O  O202  1  0.93588489  0.60761661  0.06180783  1
  O  O203  1  0.95133729  0.61309287  0.58473391  1
  O  O204  1  0.10291819  0.37225088  0.08262139  1
  O  O205  1  0.09849396  0.35575720  0.57275186  1
  O  O206  1  0.10067949  0.87131923  0.08223809  1
  O  O207  1  0.11597779  0.85180176  0.58896011  1
  O  O208  1  0.43595175  0.37998606  0.08626888  1
  O  O209  1  0.44420106  0.34127543  0.57797906  1
  O  O210  1  0.43652846  0.87224486  0.08774231  1
  O  O211  1  0.43491757  0.85997595  0.57942452  1
  O  O212  1  0.77224769  0.34933116  0.08564473  1
  O  O213  1  0.78283301  0.36565464  0.58487047  1
  O  O214  1  0.76764842  0.87544377  0.08435336  1
  O  O215  1  0.79916865  0.85807634  0.58193955  1
  O  O216  1  0.26932190  0.37127226  0.08422284  1
  O  O217  1  0.28537280  0.38419160  0.57362832  1
  O  O218  1  0.26726382  0.86645229  0.08224323  1
  O  O219  1  0.27466536  0.88062582  0.58737514  1
  O  O220  1  0.60396152  0.37689391  0.08437333  1
  O  O221  1  0.62158648  0.38349699  0.57909032  1
  O  O222  1  0.60236864  0.88438383  0.08562749  1
  O  O223  1  0.62079017  0.91198999  0.57948466  1
  O  O224  1  0.93519391  0.37706434  0.08166305  1
  O  O225  1  0.94200508  0.38327307  0.58305286  1
  O  O226  1  0.93606027  0.89081286  0.08334082  1
  O  O227  1  0.95839177  0.89246607  0.59018932  1
  O  O228  1  0.09231139  0.13233657  0.07334061  1
  O  O229  1  0.09770502  0.14043848  0.57663850  1
  O  O230  1  0.11523243  0.62524064  0.06684462  1
  O  O231  1  0.11332695  0.64709638  0.58597622  1
  O  O232  1  0.44920760  0.13434279  0.08667015  1
  O  O233  1  0.45259604  0.15632475  0.58922121  1
  O  O234  1  0.43785840  0.62333511  0.08695708  1
  O  O235  1  0.44044782  0.64115547  0.58827371  1
  O  O236  1  0.77107126  0.13491256  0.08713262  1
  O  O237  1  0.77306278  0.12754218  0.58543077  1
  O  O238  1  0.75656269  0.63857164  0.07337598  1
  O  O239  1  0.78632668  0.63054356  0.57433837  1
  O  O240  1  0.04585815  0.11422707  0.41134511  1
  O  O241  1  0.05373413  0.11681615  0.91454971  1
  O  O242  1  0.06382084  0.61685157  0.41111795  1
  O  O243  1  0.06105639  0.62142512  0.91346344  1
  O  O244  1  0.40568436  0.11449363  0.42721208  1
  O  O245  1  0.37724682  0.12342768  0.92991477  1
  O  O246  1  0.39803212  0.63401869  0.41353081  1
  O  O247  1  0.38603200  0.60495134  0.91549094  1
  O  O248  1  0.72977538  0.11992353  0.41599731  1
  O  O249  1  0.73735418  0.10477996  0.92586954  1
  O  O250  1  0.73134553  0.60591855  0.41670657  1
  O  O251  1  0.73837269  0.60494201  0.92076887  1
  O  O252  1  0.21208872  0.36497932  0.41004230  1
  O  O253  1  0.22959343  0.37822016  0.91992523  1
  O  O254  1  0.22271949  0.87323417  0.41354504  1
  O  O255  1  0.21432622  0.87119728  0.92516930  1
  O  O256  1  0.56953259  0.36389863  0.42288650  1
  O  O257  1  0.56433357  0.37163244  0.91631535  1
  O  O258  1  0.54127835  0.86099252  0.42311566  1
  O  O259  1  0.56818689  0.86691511  0.92001334  1
  O  O260  1  0.89281086  0.36177398  0.41085513  1
  O  O261  1  0.89371879  0.36456850  0.91443275  1
  O  O262  1  0.90250159  0.85792947  0.42400710  1
  O  O263  1  0.88899176  0.86059645  0.91367228  1
  O  O264  1  0.05196307  0.39139812  0.40902231  1
  O  O265  1  0.06202569  0.37366234  0.91703419  1
  O  O266  1  0.06245730  0.87162864  0.41340579  1
  O  O267  1  0.04945308  0.88776077  0.91342990  1
  O  O268  1  0.37448777  0.39362499  0.41864252  1
  O  O269  1  0.39722621  0.37295700  0.91766002  1
  O  O270  1  0.38203685  0.88846977  0.41450714  1
  O  O271  1  0.40740218  0.87664199  0.92911783  1
  O  O272  1  0.73273503  0.37565496  0.41456279  1
  O  O273  1  0.72910183  0.39841586  0.91449588  1
  O  O274  1  0.72165370  0.90139457  0.43315307  1
  O  O275  1  0.72810430  0.89310539  0.91501926  1
  O  O276  1  0.21168373  0.12544795  0.42241243  1
  O  O277  1  0.21308862  0.13659798  0.91760134  1
  O  O278  1  0.23103791  0.62987975  0.41565623  1
  O  O279  1  0.22557382  0.61765224  0.91612968  1
  O  O280  1  0.56617115  0.12631044  0.41617671  1
  O  O281  1  0.56001195  0.14552367  0.93669987  1
  O  O282  1  0.56648197  0.63819913  0.41596133  1
  O  O283  1  0.55080430  0.62601678  0.92488853  1
  O  O284  1  0.88595099  0.15551226  0.40976087  1
  O  O285  1  0.89398865  0.13282655  0.91572587  1
  O  O286  1  0.89923244  0.62271186  0.41383455  1
  O  O287  1  0.89706770  0.63451173  0.91176399  1
  O  O288  1  0.18504087  -0.01068493  0.07291749  1
  O  O289  1  0.16341547  -0.01273732  0.57841769  1
  O  O290  1  0.18949884  0.49571672  0.08074161  1
  O  O291  1  0.16440432  0.51331716  0.57517364  1
  O  O292  1  0.50652551  -0.00016542  0.08773201  1
  O  O293  1  0.49097121  0.01946961  0.57838716  1
  O  O294  1  0.52181972  0.50023105  0.08353186  1
  O  O295  1  0.47750401  0.50280891  0.58546429  1
  O  O296  1  0.83963756  0.00418921  0.08532382  1
  O  O297  1  0.84660992  -0.00155982  0.58655744  1
  O  O298  1  0.81970183  0.48247898  0.07219467  1
  O  O299  1  0.85100104  0.49889481  0.58343167  1
  O  O300  1  0.00880907  0.25225121  0.08304940  1
  O  O301  1  -0.00907729  0.24872399  0.58440417  1
  O  O302  1  -0.00283528  0.76087529  0.07268301  1
  O  O303  1  0.00037691  0.75103732  0.58838204  1
  O  O304  1  0.36297247  0.25421660  0.08395904  1
  O  O305  1  0.32631149  0.24790498  0.59449172  1
  O  O306  1  0.35482139  0.74793146  0.08115089  1
  O  O307  1  0.33370934  0.74965207  0.58960897  1
  O  O308  1  0.66346629  0.24458570  0.08765944  1
  O  O309  1  0.69001150  0.24984877  0.58564833  1
  O  O310  1  0.67175644  0.75637916  0.08571509  1
  O  O311  1  0.65113609  0.75126152  0.57028928  1
  O  O312  1  0.13697343  -0.00307372  0.41190944  1
  O  O313  1  0.14754884  0.00223193  0.91496514  1
  O  O314  1  0.15752686  0.50091707  0.41113425  1
  O  O315  1  0.13969899  0.49736816  0.91439234  1
  O  O316  1  0.49260280  -0.00251349  0.41538836  1
  O  O317  1  0.49846957  -0.00664978  0.92721683  1
  O  O318  1  0.49351921  0.51522538  0.43356733  1
  O  O319  1  0.48457478  0.49466775  0.91711550  1
  O  O320  1  0.84994619  0.01797076  0.42283258  1
  O  O321  1  0.84272091  -0.00276582  0.91375095  1
  O  O322  1  0.82955882  0.49378756  0.41277682  1
  O  O323  1  0.84607675  0.49931255  0.91137821  1
  O  O324  1  0.32102580  0.25926965  0.42341068  1
  O  O325  1  0.30645061  0.25341889  0.91681998  1
  O  O326  1  0.31248919  0.75535050  0.41609452  1
  O  O327  1  0.31930316  0.73401045  0.92675508  1
  O  O328  1  0.66065889  0.24713271  0.41530648  1
  O  O329  1  0.67943277  0.26590724  0.92634732  1
  O  O330  1  0.68166222  0.74017362  0.42337107  1
  O  O331  1  0.67562558  0.75858607  0.92476943  1
  O  O332  1  1.00234383  0.25421914  0.40903359  1
  O  O333  1  0.98777568  0.24817807  0.91622698  1
  O  O334  1  0.99352881  0.74300028  0.41441688  1
  O  O335  1  0.99375517  0.75060982  0.91155681  1
  O  O336  1  0.20805373  0.08243499  0.19881357  1
  O  O337  1  0.21141206  0.08227997  0.70177790  1
  O  O338  1  0.20031060  0.58191452  0.18685227  1
  O  O339  1  0.21163060  0.58785832  0.69284413  1
  O  O340  1  0.54613506  0.08664205  0.19769243  1
  O  O341  1  0.54706313  0.08635396  0.69454779  1
  O  O342  1  0.54854521  0.57556140  0.19536798  1
  O  O343  1  0.53927030  0.58276246  0.69448464  1
  O  O344  1  0.87575942  0.08512339  0.19509022  1
  O  O345  1  0.87643197  0.08295558  0.69546118  1
  O  O346  1  0.87310245  0.58114196  0.19556677  1
  O  O347  1  0.87903624  0.58419169  0.69146418  1
  O  O348  1  0.04184737  0.33391409  0.19203531  1
  O  O349  1  0.04283115  0.33039142  0.69111746  1
  O  O350  1  0.03769022  0.83547723  0.19077366  1
  O  O351  1  0.04637512  0.83203279  0.69806736  1
  O  O352  1  0.37625644  0.33200973  0.19551901  1
  O  O353  1  0.38172371  0.34380492  0.69143942  1
  O  O354  1  0.36952878  0.83260872  0.19378483  1
  O  O355  1  0.37850478  0.83313899  0.69682706  1
  O  O356  1  0.70629149  0.33075426  0.19490846  1
  O  O357  1  0.71469540  0.33348596  0.69447881  1
  O  O358  1  0.71163966  0.83724183  0.19491411  1
  O  O359  1  0.71201315  0.83410347  0.70135775  1
  O  O360  1  0.20902397  0.41409832  0.19248569  1
  O  O361  1  0.21124470  0.41520820  0.69736246  1
  O  O362  1  0.20712872  0.91583902  0.19078915  1
  O  O363  1  0.20826573  0.91544317  0.69580558  1
  O  O364  1  0.54706516  0.41411580  0.19478522  1
  O  O365  1  0.54896871  0.41614646  0.70344326  1
  O  O366  1  0.54656804  0.91997557  0.19770474  1
  O  O367  1  0.54332798  0.91916347  0.70504383  1
  O  O368  1  0.87224087  0.41216119  0.18956080  1
  O  O369  1  0.87655538  0.41749386  0.69450097  1
  O  O370  1  0.87538458  0.91901792  0.19387694  1
  O  O371  1  0.88131370  0.91743505  0.69540801  1
  O  O372  1  0.04096209  0.16695638  0.19111519  1
  O  O373  1  0.03965441  0.16521803  0.69276988  1
  O  O374  1  0.04463094  0.66948062  0.19464802  1
  O  O375  1  0.04469167  0.66752736  0.69526416  1
  O  O376  1  0.37857764  0.16846100  0.19287288  1
  O  O377  1  0.38163480  0.15826441  0.69585664  1
  O  O378  1  0.37082457  0.67344839  0.19254550  1
  O  O379  1  0.37519419  0.66605967  0.69838246  1
  O  O380  1  0.70936861  0.16623663  0.19712248  1
  O  O381  1  0.71458977  0.16719816  0.69565243  1
  O  O382  1  0.70988827  0.66679403  0.19287220  1
  O  O383  1  0.71351995  0.66661402  0.69871259  1
  O  O384  1  0.11765722  0.08358571  0.30480570  1
  O  O385  1  0.11877328  0.08338834  0.80519754  1
  O  O386  1  0.12983258  0.58356825  0.30255601  1
  O  O387  1  0.12030233  0.58399266  0.80398866  1
  O  O388  1  0.45366948  0.08747677  0.30862174  1
  O  O389  1  0.45709635  0.08439448  0.80368948  1
  O  O390  1  0.46444652  0.57546206  0.31312012  1
  O  O391  1  0.45739001  0.58154936  0.80762033  1
  O  O392  1  0.79239022  0.08717175  0.30650150  1
  O  O393  1  0.79363925  0.08307637  0.80740258  1
  O  O394  1  0.79208573  0.57942531  0.30466535  1
  O  O395  1  0.79467504  0.58235933  0.80433059  1
  O  O396  1  0.28753391  0.33252642  0.30590411  1
  O  O397  1  0.28490194  0.33980334  0.80811376  1
  O  O398  1  0.28296488  0.83648154  0.30349534  1
  O  O399  1  0.28885661  0.83143616  0.80206086  1
  O  O400  1  0.62530727  0.33198082  0.30715023  1
  O  O401  1  0.63143858  0.33608260  0.80896905  1
  O  O402  1  0.62832148  0.83228416  0.30458020  1
  O  O403  1  0.62774581  0.83300756  0.80943987  1
  O  O404  1  0.95521759  0.33284988  0.29992115  1
  O  O405  1  0.95558154  0.32825243  0.80536234  1
  O  O406  1  0.95566726  0.83145313  0.30529557  1
  O  O407  1  0.95634852  0.83342068  0.80364911  1
  O  O408  1  0.11820305  0.41735777  0.30023647  1
  O  O409  1  0.12050189  0.41115879  0.80609047  1
  O  O410  1  0.11890198  0.91608680  0.30176214  1
  O  O411  1  0.12229984  0.91639385  0.80720980  1
  O  O412  1  0.45735150  0.41582312  0.30104487  1
  O  O413  1  0.45563767  0.41481374  0.80682572  1
  O  O414  1  0.45075552  0.91765627  0.30703349  1
  O  O415  1  0.45809905  0.91431009  0.81316637  1
  O  O416  1  0.78978769  0.41301447  0.30274013  1
  O  O417  1  0.79454267  0.41633613  0.80415599  1
  O  O418  1  0.79062489  0.91876673  0.30142382  1
  O  O419  1  0.79441714  0.91753438  0.80488249  1
  O  O420  1  0.28783073  0.16693145  0.29941060  1
  O  O421  1  0.28388577  0.16150421  0.81108105  1
  O  O422  1  0.28162297  0.67530287  0.30544648  1
  O  O423  1  0.28871084  0.66392198  0.80817501  1
  O  O424  1  0.62446959  0.16640079  0.30631159  1
  O  O425  1  0.62717305  0.16825020  0.80219314  1
  O  O426  1  0.63935937  0.66452676  0.30878891  1
  O  O427  1  0.62186347  0.66656652  0.80029783  1
  O  O428  1  0.95618578  0.16969729  0.30117416  1
  O  O429  1  0.95601430  0.16651390  0.80428818  1
  O  O430  1  0.95392114  0.66741221  0.30320399  1
  O  O431  1  0.95849408  0.66678995  0.80212325  1
  F  F432  1  0.04231727  0.00022357  0.19977646  1
  F  F433  1  0.04591821  -0.00080292  0.70305784  1
  F  F434  1  0.04485808  0.49436468  0.19456268  1
  F  F435  1  0.04217300  0.50260118  0.69575429  1
  F  F436  1  0.37102889  0.00166210  0.20019422  1
  F  F437  1  0.37819594  -0.00390394  0.70756078  1
  F  F438  1  0.38275564  0.48978989  0.19582700  1
  F  F439  1  0.37935188  0.50184775  0.70430357  1
  F  F440  1  0.71295282  0.00540430  0.20115485  1
  F  F441  1  0.71452695  0.00285465  0.70455298  1
  F  F442  1  0.71171926  0.49705045  0.20206239  1
  F  F443  1  0.71544440  0.50025220  0.70303970  1
  F  F444  1  0.20959428  0.25236949  0.19916203  1
  F  F445  1  0.19774903  0.24978099  0.69961914  1
  F  F446  1  0.20895529  0.75186115  0.19881358  1
  F  F447  1  0.21114439  0.74757584  0.70400562  1
  F  F448  1  0.54495806  0.25017357  0.20452409  1
  F  F449  1  0.54951898  0.25275040  0.70302284  1
  F  F450  1  0.55360565  0.75419987  0.19417757  1
  F  F451  1  0.54302017  0.75223626  0.70437930  1
  F  F452  1  0.87605170  0.24900509  0.19870619  1
  F  F453  1  0.87843735  0.24857569  0.70100185  1
  F  F454  1  0.87640400  0.75299891  0.19981265  1
  F  F455  1  0.88159809  0.75021827  0.70125274  1
  F  F456  1  0.28410056  -0.00257002  0.29871885  1
  F  F457  1  0.28747805  -0.00403858  0.80275959  1
  F  F458  1  0.27791705  0.49035940  0.29782378  1
  F  F459  1  0.29413242  0.50068385  0.80194446  1
  F  F460  1  0.62907858  0.00236819  0.30392972  1
  F  F461  1  0.62638976  0.00219857  0.80126762  1
  F  F462  1  0.62542571  0.49721810  0.29951297  1
  F  F463  1  0.62489336  0.50286229  0.79924830  1
  F  F464  1  0.95481466  0.00096368  0.29581657  1
  F  F465  1  0.95599969  0.00074223  0.79783527  1
  F  F466  1  0.95051803  0.48987938  0.29825284  1
  F  F467  1  0.95432541  0.50506384  0.79922792  1
  F  F468  1  0.11842866  0.25006467  0.29401076  1
  F  F469  1  0.11799379  0.24766659  0.79896321  1
  F  F470  1  0.11841136  0.75371530  0.29564444  1
  F  F471  1  0.12165888  0.74841734  0.79995947  1
  F  F472  1  0.45503463  0.24935749  0.29870285  1
  F  F473  1  0.46760132  0.25270443  0.80236261  1
  F  F474  1  0.44330603  0.75847755  0.30835799  1
  F  F475  1  0.45492139  0.74891205  0.80025645  1
  F  F476  1  0.78846826  0.25099865  0.29666173  1
  F  F477  1  0.79165067  0.25109314  0.79818178  1
  F  F478  1  0.79041722  0.74763220  0.29501766  1
  F  F479  1  0.79508965  0.74940238  0.79987457  1
