# generated using pymatgen
data_K24Na3Li5Mg64Fe17Si79(O5F)48
_symmetry_space_group_name_H-M   'P 1'
_cell_length_a   16.11311121
_cell_length_b   18.61042982
_cell_length_c   20.56737869
_cell_angle_alpha   90.01228085
_cell_angle_beta   100.01915371
_cell_angle_gamma   89.99379014
_symmetry_Int_Tables_number   1
_chemical_formula_structural   K24Na3Li5Mg64Fe17Si79(O5F)48
_chemical_formula_sum   'K24 Na3 Li5 Mg64 Fe17 Si79 O240 F48'
_cell_volume   6073.52153599
_cell_formula_units_Z   1
loop_
 _symmetry_equiv_pos_site_id
 _symmetry_equiv_pos_as_xyz
  1  'x, y, z'
loop_
 _atom_site_type_symbol
 _atom_site_label
 _atom_site_symmetry_multiplicity
 _atom_site_fract_x
 _atom_site_fract_y
 _atom_site_fract_z
 _atom_site_occupancy
  K  K0  1  -0.01498526  0.01150468  -0.00090369  1
  K  K1  1  -0.00988369  0.00393986  0.49897103  1
  K  K2  1  0.00269542  0.49575151  0.00080542  1
  K  K3  1  -0.01138296  0.49251521  0.49622501  1
  K  K4  1  0.34430462  -0.00228610  -0.00005000  1
  K  K5  1  0.34047778  -0.00146236  0.50341407  1
  K  K6  1  0.34007487  0.49234361  0.00842011  1
  K  K7  1  0.34817898  0.49453640  0.49643740  1
  K  K8  1  0.68012125  0.00231979  -0.00172489  1
  K  K9  1  0.66474080  0.00179692  0.50806292  1
  K  K10  1  0.65495365  0.49052196  0.00049533  1
  K  K11  1  0.65869578  0.49831358  0.49576871  1
  K  K12  1  0.16520134  0.25150284  0.00088130  1
  K  K13  1  0.16333097  0.23840374  0.49912481  1
  K  K14  1  0.17597719  0.76011121  0.00555872  1
  K  K15  1  0.17441455  0.76212704  0.49716220  1
  K  K16  1  0.50853679  0.25265023  -0.00217331  1
  K  K17  1  0.50102618  0.24736369  0.50476159  1
  K  K18  1  0.50023931  0.76076387  0.00597100  1
  K  K19  1  0.49993668  0.75520006  0.49504884  1
  K  K20  1  0.82372524  0.23594432  -0.00017155  1
  K  K21  1  0.82421509  0.25184164  0.50009095  1
  K  K22  1  0.81889215  0.76069581  -0.00580513  1
  K  K23  1  0.82444800  0.75581963  0.49606772  1
  Na  Na24  1  0.83619658  0.00269592  0.25391355  1
  Na  Na25  1  0.49615216  0.82968343  0.24526461  1
  Na  Na26  1  0.33689844  0.41904455  0.24807215  1
  Li  Li27  1  0.82740709  0.00592982  0.74882153  1
  Li  Li28  1  0.34211730  0.75111036  0.24787107  1
  Li  Li29  1  0.49766683  0.16211299  0.74321385  1
  Li  Li30  1  0.33858211  0.91747059  0.74388163  1
  Li  Li31  1  0.83831036  0.16204416  0.25707848  1
  Mg  Mg32  1  0.66310714  0.24842702  0.75030858  1
  Mg  Mg33  1  0.00311900  0.74950650  0.24853799  1
  Mg  Mg34  1  0.33415309  0.75485594  0.74713569  1
  Mg  Mg35  1  0.49761516  -0.00114108  0.24533124  1
  Mg  Mg36  1  0.00075792  0.24816133  0.75336712  1
  Mg  Mg37  1  0.83338554  0.49793018  0.75579361  1
  Mg  Mg38  1  0.17001219  -0.00139315  0.74727448  1
  Mg  Mg39  1  0.66607619  0.75137762  0.25131833  1
  Mg  Mg40  1  0.49860533  0.49880657  0.74883460  1
  Mg  Mg41  1  0.49929231  0.00049333  0.74513526  1
  Mg  Mg42  1  0.33549645  0.24776058  0.74867140  1
  Mg  Mg43  1  0.50007989  0.49891543  0.24802695  1
  Mg  Mg44  1  0.66556332  0.75181461  0.75153000  1
  Mg  Mg45  1  0.83292470  0.49981955  0.25349455  1
  Mg  Mg46  1  0.16287204  0.00060279  0.24909901  1
  Mg  Mg47  1  0.16572996  0.49920753  0.75440405  1
  Mg  Mg48  1  0.17113680  0.50108832  0.24978128  1
  Mg  Mg49  1  0.33108623  0.25068114  0.24807026  1
  Mg  Mg50  1  0.00008569  0.75152643  0.75055865  1
  Mg  Mg51  1  -0.00394774  0.24936384  0.25197375  1
  Mg  Mg52  1  0.67039045  0.24691265  0.25245992  1
  Mg  Mg53  1  0.33210974  0.58479309  0.75022453  1
  Mg  Mg54  1  -0.00149950  0.08578452  0.25470383  1
  Mg  Mg55  1  0.83333651  0.66591213  0.75350384  1
  Mg  Mg56  1  0.49855885  0.16565735  0.24914581  1
  Mg  Mg57  1  0.32917755  0.08377846  0.24874009  1
  Mg  Mg58  1  0.66594720  0.58368753  0.75340996  1
  Mg  Mg59  1  0.66614104  0.91758173  0.75075582  1
  Mg  Mg60  1  0.66559143  0.58499669  0.25126064  1
  Mg  Mg61  1  0.33102744  0.41436349  0.74912224  1
  Mg  Mg62  1  0.00143310  0.58408560  0.75497847  1
  Mg  Mg63  1  0.83451301  0.66571572  0.25139623  1
  Mg  Mg64  1  -0.00200554  0.08180993  0.75142034  1
  Mg  Mg65  1  0.00267199  0.58408039  0.25020485  1
  Mg  Mg66  1  0.83209354  0.83735980  0.75082725  1
  Mg  Mg67  1  0.66545108  0.41529484  0.75195415  1
  Mg  Mg68  1  0.17231903  0.83201476  0.24543492  1
  Mg  Mg69  1  0.83266262  0.33350033  0.75503256  1
  Mg  Mg70  1  0.00175393  0.41705885  0.25329059  1
  Mg  Mg71  1  0.00181322  0.91588328  0.24904800  1
  Mg  Mg72  1  0.66862906  0.08448663  0.24874669  1
  Mg  Mg73  1  0.16702901  0.33487230  0.24940613  1
  Mg  Mg74  1  0.33210853  0.91501195  0.24556960  1
  Mg  Mg75  1  0.83228248  0.16343789  0.74923920  1
  Mg  Mg76  1  0.66718333  0.91854428  0.24977928  1
  Mg  Mg77  1  0.33589228  0.08084063  0.74680423  1
  Mg  Mg78  1  0.66660032  0.41447376  0.25109015  1
  Mg  Mg79  1  0.16785485  0.66698542  0.75261477  1
  Mg  Mg80  1  0.16644734  0.33400707  0.75422257  1
  Mg  Mg81  1  0.49760124  0.66659414  0.24821507  1
  Mg  Mg82  1  0.00223961  0.41463903  0.75687044  1
  Mg  Mg83  1  0.83471475  0.83449549  0.25021664  1
  Mg  Mg84  1  0.49905030  0.83812532  0.74870004  1
  Mg  Mg85  1  0.83436652  0.33440092  0.25392474  1
  Mg  Mg86  1  0.33879175  0.58619965  0.24858682  1
  Mg  Mg87  1  0.49849098  0.66723200  0.75043907  1
  Mg  Mg88  1  0.16787338  0.16437872  0.74771488  1
  Mg  Mg89  1  0.66499543  0.08398752  0.74644222  1
  Mg  Mg90  1  0.17354376  0.66707105  0.24846843  1
  Mg  Mg91  1  0.49782443  0.33245836  0.74775497  1
  Mg  Mg92  1  0.16246782  0.16640608  0.25065803  1
  Mg  Mg93  1  -0.00194337  0.91854151  0.74941927  1
  Mg  Mg94  1  0.16899642  0.83573224  0.74671539  1
  Mg  Mg95  1  0.50090490  0.33365782  0.24974724  1
  Fe  Fe96  1  0.97140181  0.17237610  0.39558391  1
  Fe  Fe97  1  0.35433994  0.83919249  0.10409752  1
  Fe  Fe98  1  0.13661133  0.08001746  0.39030511  1
  Fe  Fe99  1  0.80144361  0.08339478  0.39363387  1
  Fe  Fe100  1  0.52278766  0.41596606  0.61072784  1
  Fe  Fe101  1  0.85947116  0.08017952  0.61097333  1
  Fe  Fe102  1  0.35336936  0.16495112  0.60970719  1
  Fe  Fe103  1  0.80889468  0.41222587  0.89424727  1
  Fe  Fe104  1  0.80449765  0.41826187  0.39237020  1
  Fe  Fe105  1  0.14280547  0.41924244  0.89458714  1
  Fe  Fe106  1  0.52973608  0.91619510  0.60575241  1
  Fe  Fe107  1  0.35356270  0.83518100  0.60707505  1
  Fe  Fe108  1  0.85944993  0.08115239  0.11121764  1
  Fe  Fe109  1  0.80786444  0.08711098  0.88838996  1
  Fe  Fe110  1  0.52260600  0.41344600  0.10892436  1
  Fe  Fe111  1  0.47892131  0.57991774  0.38935923  1
  Fe  Fe112  1  0.63784883  0.83127982  0.89137100  1
  Si  Si113  1  0.86015773  0.58065372  0.61883964  1
  Si  Si114  1  0.81070820  0.91419676  0.88908829  1
  Si  Si115  1  0.47191913  0.08103340  0.88263118  1
  Si  Si116  1  0.47072667  0.58118035  0.88518684  1
  Si  Si117  1  0.86375600  0.90715621  0.11265122  1
  Si  Si118  1  0.18326602  0.92221959  0.10881132  1
  Si  Si119  1  0.97577262  0.32906749  0.89160686  1
  Si  Si120  1  0.69606767  0.33739092  0.61477509  1
  Si  Si121  1  0.63426933  0.16777234  0.88506561  1
  Si  Si122  1  0.64184383  0.83814369  0.38416363  1
  Si  Si123  1  0.97890554  0.82922953  0.38450761  1
  Si  Si124  1  0.14837461  0.42187045  0.38560119  1
  Si  Si125  1  0.69410700  0.83327546  0.11545028  1
  Si  Si126  1  0.68805708  0.16793403  0.11325374  1
  Si  Si127  1  0.02737654  0.82714770  0.11276493  1
  Si  Si128  1  0.18583614  0.08584680  0.11321457  1
  Si  Si129  1  0.47249027  0.92108872  0.38140921  1
  Si  Si130  1  0.30674991  0.32762355  0.88762651  1
  Si  Si131  1  0.02993976  0.66201942  0.11379117  1
  Si  Si132  1  0.14651624  0.58615054  0.38408880  1
  Si  Si133  1  0.53223894  0.92338193  0.10992766  1
  Si  Si134  1  0.31086831  0.83145335  0.38077883  1
  Si  Si135  1  0.14651068  0.91058663  0.38452158  1
  Si  Si136  1  0.97756098  0.83466483  0.88532542  1
  Si  Si137  1  0.02480721  0.33834103  0.11547255  1
  Si  Si138  1  0.69396527  0.17283797  0.61208677  1
  Si  Si139  1  0.64414004  0.67262454  0.38796020  1
  Si  Si140  1  0.18851959  0.08022444  0.61269448  1
  Si  Si141  1  0.52063193  0.58751506  0.61512685  1
  Si  Si142  1  0.52433572  0.08795087  0.11227796  1
  Si  Si143  1  0.97682396  0.67021908  0.88762472  1
  Si  Si144  1  0.81375579  0.58405362  0.89032243  1
  Si  Si145  1  0.02547685  0.17355539  0.11181084  1
  Si  Si146  1  0.86116013  0.90930716  0.61373993  1
  Si  Si147  1  0.63100459  0.16085988  0.38654301  1
  Si  Si148  1  0.52858022  0.08813697  0.60852259  1
  Si  Si149  1  0.30337774  0.16966971  0.38486120  1
  Si  Si150  1  0.30847802  0.16318801  0.88393984  1
  Si  Si151  1  0.81061116  0.59107709  0.38925885  1
  Si  Si152  1  0.81210847  0.91008145  0.38759621  1
  Si  Si153  1  0.69279845  0.66222850  0.61782227  1
  Si  Si154  1  0.02602205  0.83028046  0.61401670  1
  Si  Si155  1  0.18923489  0.58087999  0.61716827  1
  Si  Si156  1  0.35828258  0.66717342  0.10969803  1
  Si  Si157  1  0.98081248  0.66482165  0.38510167  1
  Si  Si158  1  0.85955812  0.58555793  0.11572175  1
  Si  Si159  1  0.63768274  0.32550090  0.38857924  1
  Si  Si160  1  0.34868565  0.33404637  0.60995202  1
  Si  Si161  1  0.35412673  0.32509802  0.11043201  1
  Si  Si162  1  0.14467245  0.08078366  0.88418530  1
  Si  Si163  1  0.86116727  0.42030797  0.11721181  1
  Si  Si164  1  0.18340882  0.91940532  0.61079027  1
  Si  Si165  1  0.30927418  0.66693854  0.38421579  1
  Si  Si166  1  0.69724634  0.33305839  0.11330815  1
  Si  Si167  1  0.14199745  0.91599689  0.88339262  1
  Si  Si168  1  0.98411349  0.34136697  0.39193801  1
  Si  Si169  1  0.69305699  0.66768724  0.11591731  1
  Si  Si170  1  0.52624747  0.58541508  0.11133472  1
  Si  Si171  1  0.35154351  0.66519236  0.61398983  1
  Si  Si172  1  0.31041934  0.67253166  0.88541537  1
  Si  Si173  1  0.19594381  0.57979701  0.11268266  1
  Si  Si174  1  0.02757405  0.33215945  0.61821345  1
  Si  Si175  1  0.18900735  0.41822825  0.61648976  1
  Si  Si176  1  0.69960507  0.82704981  0.61308368  1
  Si  Si177  1  0.14599846  0.59017898  0.89075213  1
  Si  Si178  1  0.35312880  0.16087512  0.11227755  1
  Si  Si179  1  0.30772735  0.33220033  0.38325961  1
  Si  Si180  1  0.64134220  0.65958972  0.88959030  1
  Si  Si181  1  0.30587978  0.83564289  0.88214745  1
  Si  Si182  1  0.46572419  0.41590198  0.88388395  1
  Si  Si183  1  0.46485927  0.08445345  0.38247545  1
  Si  Si184  1  0.98375870  0.16715956  0.88836477  1
  Si  Si185  1  0.47106825  0.91865486  0.88659600  1
  Si  Si186  1  0.47767600  0.41036215  0.38656599  1
  Si  Si187  1  0.19046246  0.41482607  0.11452884  1
  Si  Si188  1  0.02958883  0.16726792  0.61528171  1
  Si  Si189  1  0.02518007  0.66503899  0.61695630  1
  Si  Si190  1  0.63341686  0.33427931  0.88793002  1
  Si  Si191  1  0.86511155  0.41548177  0.61957214  1
  O  O192  1  0.26948290  0.11208711  0.08305772  1
  O  O193  1  0.26826186  0.09624364  0.57754742  1
  O  O194  1  0.27236910  0.61674367  0.08161376  1
  O  O195  1  0.27430753  0.60506313  0.58944309  1
  O  O196  1  0.58991497  0.14054118  0.08262527  1
  O  O197  1  0.61101581  0.12506142  0.58188934  1
  O  O198  1  0.60741534  0.62432700  0.08416897  1
  O  O199  1  0.60526794  0.61983895  0.58905105  1
  O  O200  1  0.94509913  0.12980511  0.07454454  1
  O  O201  1  0.95624099  0.11487791  0.58062637  1
  O  O202  1  0.93886244  0.62205751  0.08578337  1
  O  O203  1  0.93914377  0.61804840  0.58902866  1
  O  O204  1  0.10014504  0.37709872  0.08285777  1
  O  O205  1  0.10759374  0.36676432  0.58866792  1
  O  O206  1  0.09836996  0.87232223  0.08166027  1
  O  O207  1  0.10486439  0.86203017  0.58288664  1
  O  O208  1  0.42351279  0.36145867  0.07243656  1
  O  O209  1  0.42785298  0.36019413  0.57626530  1
  O  O210  1  0.44737277  0.88366065  0.07326043  1
  O  O211  1  0.44169475  0.85842675  0.56457548  1
  O  O212  1  0.77780932  0.37360672  0.08770319  1
  O  O213  1  0.78422817  0.36566582  0.59024943  1
  O  O214  1  0.77472954  0.86333478  0.08535221  1
  O  O215  1  0.78829022  0.84831881  0.58807531  1
  O  O216  1  0.26385213  0.36928754  0.08645079  1
  O  O217  1  0.27105616  0.39422771  0.58580139  1
  O  O218  1  0.25585845  0.89501336  0.06944469  1
  O  O219  1  0.26011746  0.89666192  0.57444270  1
  O  O220  1  0.61349052  0.37322040  0.07491976  1
  O  O221  1  0.62236119  0.39052390  0.57978581  1
  O  O222  1  0.61256225  0.88206113  0.08408558  1
  O  O223  1  0.62525610  0.87609048  0.57471369  1
  O  O224  1  0.94053490  0.38649174  0.08680184  1
  O  O225  1  0.94612628  0.38384281  0.58971783  1
  O  O226  1  0.93438988  0.85830321  0.08146088  1
  O  O227  1  0.94299335  0.87676233  0.58302094  1
  O  O228  1  0.11067913  0.14262543  0.08429119  1
  O  O229  1  0.11733391  0.14347836  0.59016850  1
  O  O230  1  0.10376120  0.61838906  0.08346975  1
  O  O231  1  0.10603625  0.63110785  0.58804245  1
  O  O232  1  0.43008797  0.12182620  0.08253065  1
  O  O233  1  0.45063132  0.14055865  0.57684349  1
  O  O234  1  0.44027578  0.63159359  0.08193180  1
  O  O235  1  0.43905082  0.64016642  0.58855389  1
  O  O236  1  0.75099105  0.11914661  0.07899638  1
  O  O237  1  0.77212145  0.14487189  0.57941150  1
  O  O238  1  0.77392588  0.63189441  0.08693735  1
  O  O239  1  0.77184051  0.62254164  0.58951100  1
  O  O240  1  0.05150259  0.10592023  0.43401740  1
  O  O241  1  0.06684823  0.11487358  0.91570928  1
  O  O242  1  0.06237413  0.61350148  0.41353471  1
  O  O243  1  0.06187985  0.62369617  0.91718076  1
  O  O244  1  0.38266577  0.11458944  0.41094218  1
  O  O245  1  0.39133482  0.11497396  0.91326902  1
  O  O246  1  0.38433919  0.61642995  0.42179599  1
  O  O247  1  0.39442966  0.62353595  0.91411165  1
  O  O248  1  0.69755285  0.10295668  0.42223841  1
  O  O249  1  0.71740253  0.12740898  0.92392740  1
  O  O250  1  0.74115783  0.64313896  0.41592636  1
  O  O251  1  0.72879876  0.61337658  0.91674712  1
  O  O252  1  0.22898547  0.36956245  0.41406309  1
  O  O253  1  0.23193090  0.35539757  0.92456529  1
  O  O254  1  0.22775654  0.85716232  0.41165413  1
  O  O255  1  0.22360874  0.86517614  0.91290449  1
  O  O256  1  0.55006510  0.34965561  0.41459995  1
  O  O257  1  0.55107934  0.37178059  0.91371506  1
  O  O258  1  0.56214509  0.87924173  0.40949578  1
  O  O259  1  0.54638100  0.86945555  0.92621446  1
  O  O260  1  0.90863221  0.37535888  0.42607168  1
  O  O261  1  0.89053337  0.34128073  0.92229443  1
  O  O262  1  0.89583790  0.85616596  0.41395975  1
  O  O263  1  0.89844680  0.86520855  0.91573649  1
  O  O264  1  0.06544641  0.39835615  0.41570019  1
  O  O265  1  0.04544381  0.38830738  0.92431100  1
  O  O266  1  0.06443874  0.87479505  0.41305618  1
  O  O267  1  0.06247682  0.88199192  0.91390584  1
  O  O268  1  0.38962722  0.38251892  0.41031564  1
  O  O269  1  0.39040811  0.37739650  0.91512347  1
  O  O270  1  0.39513770  0.88027251  0.41034543  1
  O  O271  1  0.38297000  0.88979441  0.91102286  1
  O  O272  1  0.71439840  0.37527598  0.42567701  1
  O  O273  1  0.71224818  0.38080241  0.92569008  1
  O  O274  1  0.73177077  0.87534281  0.41912163  1
  O  O275  1  0.73951188  0.87763260  0.92626138  1
  O  O276  1  0.22485837  0.14646153  0.41815436  1
  O  O277  1  0.22952928  0.12775207  0.91492950  1
  O  O278  1  0.22180293  0.64219699  0.41303454  1
  O  O279  1  0.22680094  0.64514867  0.91477353  1
  O  O280  1  0.54073230  0.14013186  0.41099955  1
  O  O281  1  0.55256899  0.13170468  0.91269553  1
  O  O282  1  0.57935228  0.62941751  0.42504461  1
  O  O283  1  0.56302006  0.61537718  0.91529714  1
  O  O284  1  0.87644708  0.15243418  0.43154420  1
  O  O285  1  0.90667003  0.14132015  0.92260998  1
  O  O286  1  0.90150771  0.63318331  0.41588263  1
  O  O287  1  0.89375803  0.64074781  0.91594389  1
  O  O288  1  0.15740188  0.00574684  0.08396426  1
  O  O289  1  0.14770749  0.00081558  0.58803443  1
  O  O290  1  0.18791443  0.49697587  0.08375237  1
  O  O291  1  0.16250450  0.49999241  0.58898782  1
  O  O292  1  0.52942587  0.00729891  0.08058253  1
  O  O293  1  0.51490607  0.01023174  0.57184342  1
  O  O294  1  0.51389010  0.50803247  0.07459683  1
  O  O295  1  0.49843080  0.51085687  0.58050251  1
  O  O296  1  0.85870638  -0.01503908  0.07867018  1
  O  O297  1  0.83507319  -0.01471820  0.57897149  1
  O  O298  1  0.84764993  0.50313694  0.08710055  1
  O  O299  1  0.85150152  0.49822324  0.59006306  1
  O  O300  1  0.01545441  0.25771903  0.08401408  1
  O  O301  1  0.01070931  0.25140955  0.58857270  1
  O  O302  1  0.02858752  0.74385332  0.08405260  1
  O  O303  1  0.00982513  0.74636610  0.58684261  1
  O  O304  1  0.33542187  0.24181369  0.08083970  1
  O  O305  1  0.31295778  0.25757117  0.58028343  1
  O  O306  1  0.33980565  0.74314060  0.07128145  1
  O  O307  1  0.31764149  0.73922945  0.57957614  1
  O  O308  1  0.69436972  0.25060408  0.08425994  1
  O  O309  1  0.67571989  0.25645608  0.58469774  1
  O  O310  1  0.68041682  0.75008276  0.08712225  1
  O  O311  1  0.68466361  0.74257395  0.58628034  1
  O  O312  1  0.17070476  -0.01365548  0.41957384  1
  O  O313  1  0.16014877  -0.00215525  0.91279235  1
  O  O314  1  0.17145198  0.50476170  0.41284716  1
  O  O315  1  0.16901415  0.51411179  0.92642052  1
  O  O316  1  0.48314724  0.00295937  0.41310211  1
  O  O317  1  0.48462769  0.00119110  0.91728540  1
  O  O318  1  0.50057576  0.48610234  0.42424231  1
  O  O319  1  0.47247366  0.49858799  0.91386526  1
  O  O320  1  0.83607999  -0.01277525  0.42008760  1
  O  O321  1  0.83173843  -0.00664150  0.92032001  1
  O  O322  1  0.81547737  0.51442857  0.42614230  1
  O  O323  1  0.84139333  0.50745539  0.92395317  1
  O  O324  1  0.33038466  0.25151680  0.41353795  1
  O  O325  1  0.32791313  0.24451383  0.91407120  1
  O  O326  1  0.32964744  0.75012655  0.41073228  1
  O  O327  1  0.32919740  0.75444284  0.91384231  1
  O  O328  1  0.65509049  0.24244855  0.41555649  1
  O  O329  1  0.63679909  0.25123553  0.91532858  1
  O  O330  1  0.64547733  0.75640024  0.41520598  1
  O  O331  1  0.65130977  0.73597498  0.92654914  1
  O  O332  1  1.01479046  0.26512739  0.42399503  1
  O  O333  1  1.01534062  0.24854488  0.91400838  1
  O  O334  1  0.99988818  0.74664864  0.41364005  1
  O  O335  1  0.99646708  0.75242340  0.91485977  1
  O  O336  1  0.20811652  0.08516107  0.19323643  1
  O  O337  1  0.20923144  0.08198303  0.69384074  1
  O  O338  1  0.21055337  0.58291371  0.19255997  1
  O  O339  1  0.20634753  0.58310197  0.69790068  1
  O  O340  1  0.53868073  0.08563941  0.19249912  1
  O  O341  1  0.54564264  0.08234277  0.68912797  1
  O  O342  1  0.54715559  0.58345157  0.19186955  1
  O  O343  1  0.54133287  0.58492562  0.69644268  1
  O  O344  1  0.88627541  0.08962108  0.19796735  1
  O  O345  1  0.88233416  0.08499934  0.70124742  1
  O  O346  1  0.87873927  0.58521135  0.19621022  1
  O  O347  1  0.87863844  0.58294183  0.69923262  1
  O  O348  1  0.04371465  0.33821768  0.19569777  1
  O  O349  1  0.04370019  0.33314897  0.69859903  1
  O  O350  1  0.04555299  0.82918647  0.19307109  1
  O  O351  1  0.04362681  0.83066013  0.69457575  1
  O  O352  1  0.37974439  0.32349657  0.18981166  1
  O  O353  1  0.37090909  0.33591881  0.69176578  1
  O  O354  1  0.36443867  0.83623993  0.19147096  1
  O  O355  1  0.37993576  0.83110261  0.69820630  1
  O  O356  1  0.70973170  0.33432147  0.19375003  1
  O  O357  1  0.71090419  0.33575469  0.69555235  1
  O  O358  1  0.71156326  0.83258552  0.19555040  1
  O  O359  1  0.71316268  0.82896688  0.69385899  1
  O  O360  1  0.20113808  0.41752312  0.19345769  1
  O  O361  1  0.20837691  0.41805551  0.69700525  1
  O  O362  1  0.20484499  0.91887533  0.18948031  1
  O  O363  1  0.20198007  0.91554817  0.69100960  1
  O  O364  1  0.54612951  0.41511762  0.20027460  1
  O  O365  1  0.54395141  0.41774394  0.70258458  1
  O  O366  1  0.54705506  0.92408803  0.18951943  1
  O  O367  1  0.54533522  0.91645520  0.69765660  1
  O  O368  1  0.88076289  0.42235337  0.19729751  1
  O  O369  1  0.88216134  0.41767443  0.69981331  1
  O  O370  1  0.88430500  0.90486630  0.19252056  1
  O  O371  1  0.88207261  0.90946595  0.69396073  1
  O  O372  1  0.04413662  0.17248997  0.19199690  1
  O  O373  1  0.04491177  0.16764385  0.69648171  1
  O  O374  1  0.04534639  0.66347457  0.19402707  1
  O  O375  1  0.04319234  0.66515417  0.69747903  1
  O  O376  1  0.37259477  0.16412416  0.19253580  1
  O  O377  1  0.37348455  0.16652006  0.70028382  1
  O  O378  1  0.37652601  0.66651497  0.18946046  1
  O  O379  1  0.37210334  0.66511389  0.69527019  1
  O  O380  1  0.70005187  0.16799138  0.19275608  1
  O  O381  1  0.70934473  0.17145632  0.69278468  1
  O  O382  1  0.71339411  0.66599621  0.19626401  1
  O  O383  1  0.71174332  0.66373638  0.69848726  1
  O  O384  1  0.12185022  0.08296447  0.29755936  1
  O  O385  1  0.12611054  0.08218700  0.80409930  1
  O  O386  1  0.12464026  0.58511522  0.30365920  1
  O  O387  1  0.12503912  0.58652825  0.80946147  1
  O  O388  1  0.45081132  0.08365612  0.30182212  1
  O  O389  1  0.45416992  0.07795914  0.80358321  1
  O  O390  1  0.45905319  0.58140674  0.29799110  1
  O  O391  1  0.45377917  0.58309202  0.80473877  1
  O  O392  1  0.77992887  0.09074449  0.30547317  1
  O  O393  1  0.78337242  0.08766735  0.79874632  1
  O  O394  1  0.79335892  0.58636089  0.30815992  1
  O  O395  1  0.79379349  0.58412957  0.80907686  1
  O  O396  1  0.28443559  0.32782066  0.30401146  1
  O  O397  1  0.28786100  0.33288448  0.80686884  1
  O  O398  1  0.28870212  0.83602487  0.30144769  1
  O  O399  1  0.28428279  0.82921608  0.80322414  1
  O  O400  1  0.62502439  0.32941382  0.30773548  1
  O  O401  1  0.62226223  0.33452836  0.80751915  1
  O  O402  1  0.63176063  0.83523083  0.30501354  1
  O  O403  1  0.62160905  0.83106216  0.80007752  1
  O  O404  1  0.96103062  0.34012630  0.31029778  1
  O  O405  1  0.95821616  0.33306444  0.80975540  1
  O  O406  1  0.95991930  0.82922055  0.30410442  1
  O  O407  1  0.95920533  0.83270290  0.80494688  1
  O  O408  1  0.12718031  0.42024841  0.30517311  1
  O  O409  1  0.12290331  0.41804747  0.80253564  1
  O  O410  1  0.12601598  0.91127516  0.30337676  1
  O  O411  1  0.12367725  0.91483342  0.80329694  1
  O  O412  1  0.46703255  0.41499802  0.30705538  1
  O  O413  1  0.44978630  0.41851354  0.80394209  1
  O  O414  1  0.45104414  0.92520018  0.30236274  1
  O  O415  1  0.46140117  0.91766747  0.80733006  1
  O  O416  1  0.78803181  0.41891160  0.30057011  1
  O  O417  1  0.78789039  0.41688124  0.80216168  1
  O  O418  1  0.78924288  0.90669755  0.30784986  1
  O  O419  1  0.78849499  0.91026389  0.80866498  1
  O  O420  1  0.28756705  0.16802620  0.30350291  1
  O  O421  1  0.28717004  0.16531148  0.80427153  1
  O  O422  1  0.28910227  0.66355059  0.30425920  1
  O  O423  1  0.29041278  0.66780398  0.80505838  1
  O  O424  1  0.61704178  0.16429660  0.30557482  1
  O  O425  1  0.62362426  0.16769280  0.80524765  1
  O  O426  1  0.62706052  0.66768376  0.30722042  1
  O  O427  1  0.62342788  0.66370083  0.80850943  1
  O  O428  1  0.96172174  0.16996904  0.30449422  1
  O  O429  1  0.96276153  0.16662675  0.80774611  1
  O  O430  1  0.96061962  0.66565797  0.30458350  1
  O  O431  1  0.95874755  0.66747479  0.80695161  1
  F  F432  1  0.04518976  -0.00464284  0.19804036  1
  F  F433  1  0.04651431  -0.00068586  0.70266872  1
  F  F434  1  0.04601086  0.50148684  0.20277271  1
  F  F435  1  0.04368591  0.50312147  0.70477912  1
  F  F436  1  0.37491182  0.00278192  0.19732730  1
  F  F437  1  0.37987722  0.00102740  0.69791263  1
  F  F438  1  0.38230490  0.50783096  0.19319773  1
  F  F439  1  0.37496347  0.50110623  0.70250959  1
  F  F440  1  0.70196656  -0.00067584  0.19876755  1
  F  F441  1  0.70788398  -0.00282485  0.70050715  1
  F  F442  1  0.71426728  0.50516953  0.20165503  1
  F  F443  1  0.71300219  0.50387296  0.70447191  1
  F  F444  1  0.20971687  0.25041134  0.19948772  1
  F  F445  1  0.21025784  0.25244898  0.70430715  1
  F  F446  1  0.20126541  0.74763708  0.19467173  1
  F  F447  1  0.20835523  0.74703903  0.70112844  1
  F  F448  1  0.54581143  0.24918416  0.20319977  1
  F  F449  1  0.54658627  0.25607871  0.70057305  1
  F  F450  1  0.55397630  0.73918639  0.19718113  1
  F  F451  1  0.54643079  0.74440442  0.70200731  1
  F  F452  1  0.88332775  0.26512912  0.19982556  1
  F  F453  1  0.88084489  0.25265026  0.70605707  1
  F  F454  1  0.88105949  0.74621874  0.20207446  1
  F  F455  1  0.87997571  0.74661292  0.70419717  1
  F  F456  1  0.28528825  -0.00059151  0.29328786  1
  F  F457  1  0.28554651  0.00260118  0.79726016  1
  F  F458  1  0.28559377  0.50972990  0.29913584  1
  F  F459  1  0.28797547  0.50128967  0.79910611  1
  F  F460  1  0.61664240  0.00030012  0.29641107  1
  F  F461  1  0.62060408  0.00255799  0.79772734  1
  F  F462  1  0.62501998  0.50224446  0.29821370  1
  F  F463  1  0.62016976  0.50271695  0.80092515  1
  F  F464  1  0.97161405  -0.00514513  0.30264781  1
  F  F465  1  0.96758655  -0.00271926  0.80402063  1
  F  F466  1  0.95710879  0.50385516  0.29985568  1
  F  F467  1  0.95656802  0.50205553  0.80235700  1
  F  F468  1  0.12052846  0.25339986  0.29573371  1
  F  F469  1  0.12320561  0.24817340  0.79956952  1
  F  F470  1  0.12252242  0.74808821  0.29634046  1
  F  F471  1  0.12076482  0.75023954  0.79808091  1
  F  F472  1  0.45148501  0.24830884  0.29569051  1
  F  F473  1  0.44939129  0.26114728  0.80123997  1
  F  F474  1  0.45683356  0.73913210  0.30282202  1
  F  F475  1  0.45394084  0.74637758  0.79950115  1
  F  F476  1  0.78699700  0.25644322  0.29957075  1
  F  F477  1  0.78629094  0.25001529  0.79761783  1
  F  F478  1  0.79115165  0.74836010  0.29754684  1
  F  F479  1  0.78955550  0.74870785  0.79923507  1
