# generated using pymatgen
data_K24Na3Li5Mg64Fe17Si79(O5F)48
_symmetry_space_group_name_H-M   'P 1'
_cell_length_a   16.09460825
_cell_length_b   18.59826777
_cell_length_c   20.56529810
_cell_angle_alpha   89.98623964
_cell_angle_beta   100.00601753
_cell_angle_gamma   89.97370392
_symmetry_Int_Tables_number   1
_chemical_formula_structural   K24Na3Li5Mg64Fe17Si79(O5F)48
_chemical_formula_sum   'K24 Na3 Li5 Mg64 Fe17 Si79 O240 F48'
_cell_volume   6062.21396679
_cell_formula_units_Z   1
loop_
 _symmetry_equiv_pos_site_id
 _symmetry_equiv_pos_as_xyz
  1  'x, y, z'
loop_
 _atom_site_type_symbol
 _atom_site_label
 _atom_site_symmetry_multiplicity
 _atom_site_fract_x
 _atom_site_fract_y
 _atom_site_fract_z
 _atom_site_occupancy
  K  K0  1  0.00875892  -0.00007264  -0.00069423  1
  K  K1  1  0.00949169  0.00590093  0.50738107  1
  K  K2  1  -0.00006995  0.49280554  -0.00676107  1
  K  K3  1  0.00473734  0.49945274  0.50395851  1
  K  K4  1  0.33480244  0.00327656  -0.00644068  1
  K  K5  1  0.33213250  0.00112787  0.50640880  1
  K  K6  1  0.32419760  0.49811650  -0.01138576  1
  K  K7  1  0.32927386  0.50350757  0.50899510  1
  K  K8  1  0.65817161  0.00244416  -0.00587055  1
  K  K9  1  0.66510671  0.00285584  0.50883803  1
  K  K10  1  0.67101146  0.50628795  -0.01105724  1
  K  K11  1  0.68505417  0.50467898  0.51022523  1
  K  K12  1  0.16541459  0.23897282  -0.01038518  1
  K  K13  1  0.15459575  0.25523724  0.50782359  1
  K  K14  1  0.16070053  0.74828043  0.00113914  1
  K  K15  1  0.16851189  0.74944223  0.49903234  1
  K  K16  1  0.49291331  0.24727963  -0.01222682  1
  K  K17  1  0.49414361  0.25245436  0.50945937  1
  K  K18  1  0.49910303  0.75327569  -0.00733530  1
  K  K19  1  0.50326559  0.73980674  0.50628928  1
  K  K20  1  0.83794807  0.25291841  -0.00378299  1
  K  K21  1  0.85403613  0.24756128  0.51263324  1
  K  K22  1  0.83187470  0.74907399  -0.00531616  1
  K  K23  1  0.83590176  0.74810119  0.50466206  1
  Na  Na24  1  0.83481975  0.50068638  0.75085689  1
  Na  Na25  1  0.49401068  0.16855245  0.75597539  1
  Na  Na26  1  0.16648925  0.16773871  0.75009957  1
  Li  Li27  1  0.00765196  0.24920744  0.75159458  1
  Li  Li28  1  0.16793582  -0.00162977  0.24301420  1
  Li  Li29  1  0.33214754  0.58324848  0.74728766  1
  Li  Li30  1  0.32978311  0.08719559  0.75286178  1
  Li  Li31  1  0.16299501  0.66619062  0.25351093  1
  Mg  Mg32  1  0.66657431  0.74967536  0.24999186  1
  Mg  Mg33  1  0.33423698  0.74656745  0.74911504  1
  Mg  Mg34  1  0.16747399  0.00177251  0.74829797  1
  Mg  Mg35  1  0.49350388  0.00220293  0.75288440  1
  Mg  Mg36  1  0.66627399  0.74894996  0.75291037  1
  Mg  Mg37  1  0.49556074  0.50054311  0.25062619  1
  Mg  Mg38  1  -0.00164025  0.74961582  0.74732322  1
  Mg  Mg39  1  0.00415052  0.74934908  0.25015983  1
  Mg  Mg40  1  0.16163450  0.50198782  0.25376062  1
  Mg  Mg41  1  0.83196592  0.49987853  0.25523431  1
  Mg  Mg42  1  0.16976993  0.50165308  0.74696371  1
  Mg  Mg43  1  0.49835433  0.50239548  0.75060902  1
  Mg  Mg44  1  0.82996116  0.00162380  0.75196158  1
  Mg  Mg45  1  0.33109161  0.24869565  0.75077696  1
  Mg  Mg46  1  0.66592869  0.25218787  0.75303630  1
  Mg  Mg47  1  0.00172294  0.24873213  0.24995196  1
  Mg  Mg48  1  0.66729645  0.25035935  0.25086881  1
  Mg  Mg49  1  0.33017235  0.75025226  0.24837823  1
  Mg  Mg50  1  0.83639750  -0.00068588  0.24825213  1
  Mg  Mg51  1  0.50302871  -0.00011865  0.24482784  1
  Mg  Mg52  1  0.33243731  0.24817706  0.24779653  1
  Mg  Mg53  1  0.66673004  0.91531881  0.24753120  1
  Mg  Mg54  1  0.83243334  0.66562773  0.75131890  1
  Mg  Mg55  1  0.16603260  0.16181426  0.24443337  1
  Mg  Mg56  1  0.00168322  0.58570203  0.25280942  1
  Mg  Mg57  1  0.66770442  0.08416856  0.24803364  1
  Mg  Mg58  1  0.49993365  0.83493066  0.24586901  1
  Mg  Mg59  1  0.16548385  0.83230035  0.24548665  1
  Mg  Mg60  1  0.66815044  0.41743350  0.75251662  1
  Mg  Mg61  1  0.83601227  0.16783247  0.75039030  1
  Mg  Mg62  1  0.50072929  0.66478381  0.75048226  1
  Mg  Mg63  1  -0.00085928  0.41476390  0.74777946  1
  Mg  Mg64  1  0.33405656  0.91804226  0.75023130  1
  Mg  Mg65  1  0.33191343  0.91711152  0.24517983  1
  Mg  Mg66  1  0.66973036  0.58533995  0.75231781  1
  Mg  Mg67  1  0.32588492  0.58551268  0.25182538  1
  Mg  Mg68  1  0.00035555  0.08486013  0.75121627  1
  Mg  Mg69  1  0.16366891  0.33271965  0.74684917  1
  Mg  Mg70  1  0.49887829  0.33414098  0.75227195  1
  Mg  Mg71  1  0.49612079  0.33449648  0.24811331  1
  Mg  Mg72  1  0.83600462  0.83392723  0.24842048  1
  Mg  Mg73  1  0.66564666  0.91758121  0.75431770  1
  Mg  Mg74  1  0.33149009  0.41892009  0.74809279  1
  Mg  Mg75  1  0.83650142  0.33303525  0.75029617  1
  Mg  Mg76  1  0.33194583  0.08269133  0.24362380  1
  Mg  Mg77  1  0.00540731  0.91617687  0.24646528  1
  Mg  Mg78  1  0.83049046  0.83605487  0.75163931  1
  Mg  Mg79  1  0.32810918  0.41566069  0.24992546  1
  Mg  Mg80  1  0.83490860  0.66491438  0.25559331  1
  Mg  Mg81  1  0.66378092  0.08607553  0.75388582  1
  Mg  Mg82  1  0.49689083  0.66594614  0.25094842  1
  Mg  Mg83  1  0.49867620  0.16638076  0.24599084  1
  Mg  Mg84  1  0.00007265  0.58349918  0.74604789  1
  Mg  Mg85  1  0.16862880  0.66520614  0.74581742  1
  Mg  Mg86  1  0.83654660  0.33328753  0.25558414  1
  Mg  Mg87  1  0.00547620  0.08238241  0.24740620  1
  Mg  Mg88  1  0.66614613  0.41611794  0.25355594  1
  Mg  Mg89  1  -0.00025123  0.91732868  0.75201764  1
  Mg  Mg90  1  0.16388038  0.33404762  0.25103390  1
  Mg  Mg91  1  0.00142135  0.41476594  0.25447041  1
  Mg  Mg92  1  0.66679946  0.58402031  0.25353293  1
  Mg  Mg93  1  0.83757557  0.16479330  0.25124392  1
  Mg  Mg94  1  0.50047252  0.83493074  0.75486741  1
  Mg  Mg95  1  0.16755092  0.83349432  0.75063502  1
  Fe  Fe96  1  0.69354369  0.66819806  0.60957677  1
  Fe  Fe97  1  0.14519788  0.41667428  0.39405013  1
  Fe  Fe98  1  0.86627853  0.58481266  0.60761862  1
  Fe  Fe99  1  0.14438237  0.07773290  0.89130633  1
  Fe  Fe100  1  0.14406616  0.58997619  0.39116614  1
  Fe  Fe101  1  0.97227063  0.32710313  0.39298561  1
  Fe  Fe102  1  0.19825682  0.58837219  0.60966798  1
  Fe  Fe103  1  0.02283554  0.83279908  0.10636451  1
  Fe  Fe104  1  0.64497950  0.66669137  0.89237592  1
  Fe  Fe105  1  0.52708434  0.91767459  0.10743965  1
  Fe  Fe106  1  0.02618742  0.16482509  0.10666250  1
  Fe  Fe107  1  0.46584694  0.91773104  0.89177070  1
  Fe  Fe108  1  0.80754822  0.58236791  0.39302746  1
  Fe  Fe109  1  0.80894357  0.92233759  0.89170655  1
  Fe  Fe110  1  0.36122797  0.17073633  0.10760099  1
  Fe  Fe111  1  0.02454822  0.15974149  0.60930684  1
  Fe  Fe112  1  0.81308709  0.41392403  0.89208614  1
  Si  Si113  1  0.52398168  0.92268286  0.61648863  1
  Si  Si114  1  0.30031293  0.82621439  0.88634106  1
  Si  Si115  1  0.80711853  0.08088087  0.38511180  1
  Si  Si116  1  0.46847217  0.41597740  0.38498549  1
  Si  Si117  1  0.98069751  0.33089421  0.88563226  1
  Si  Si118  1  0.30860360  0.32570866  0.38649203  1
  Si  Si119  1  0.35325732  0.34057799  0.11114738  1
  Si  Si120  1  0.68534633  0.83692493  0.61338767  1
  Si  Si121  1  0.35476038  0.16633677  0.61490516  1
  Si  Si122  1  0.81057829  0.09236662  0.88916591  1
  Si  Si123  1  0.47834982  0.91849231  0.38337398  1
  Si  Si124  1  0.19194576  0.41644068  0.61159440  1
  Si  Si125  1  0.14179413  0.41741146  0.88155697  1
  Si  Si126  1  0.35748663  0.33039320  0.61486885  1
  Si  Si127  1  0.18712313  0.58368552  0.11621789  1
  Si  Si128  1  0.97184795  0.67432515  0.39039483  1
  Si  Si129  1  0.63214240  0.66465478  0.38713015  1
  Si  Si130  1  0.69867517  0.83205788  0.11289066  1
  Si  Si131  1  0.80727118  0.91517234  0.38480897  1
  Si  Si132  1  0.02164936  0.33642825  0.11194814  1
  Si  Si133  1  0.69776784  0.16806336  0.11623094  1
  Si  Si134  1  0.19713557  0.91178948  0.11054584  1
  Si  Si135  1  0.30660900  0.33631128  0.88329923  1
  Si  Si136  1  0.31218814  0.16176493  0.38286256  1
  Si  Si137  1  0.63412173  0.33453196  0.38568802  1
  Si  Si138  1  0.68638799  0.16676854  0.61601904  1
  Si  Si139  1  0.47534852  0.08501282  0.89063048  1
  Si  Si140  1  0.31507157  0.83632571  0.38361479  1
  Si  Si141  1  0.98005713  0.15563134  0.38763493  1
  Si  Si142  1  0.64267018  0.16912214  0.88774124  1
  Si  Si143  1  0.97419566  0.83143227  0.88590074  1
  Si  Si144  1  0.14056547  0.90980464  0.88572626  1
  Si  Si145  1  0.97886743  0.84003946  0.38519380  1
  Si  Si146  1  0.13983430  0.58255458  0.88278055  1
  Si  Si147  1  0.52476557  0.41851543  0.11537741  1
  Si  Si148  1  0.31284829  0.17173818  0.88799520  1
  Si  Si149  1  0.18779204  0.42088720  0.11449547  1
  Si  Si150  1  0.97966921  0.66843310  0.88476474  1
  Si  Si151  1  0.47278318  0.58275709  0.88743926  1
  Si  Si152  1  0.85380254  0.91708199  0.61518373  1
  Si  Si153  1  0.85649278  0.08077540  0.11356001  1
  Si  Si154  1  0.84991795  0.08166056  0.61226852  1
  Si  Si155  1  0.19649974  0.07582119  0.60930786  1
  Si  Si156  1  0.63995624  0.83660395  0.89103457  1
  Si  Si157  1  0.52360252  0.58459415  0.11581934  1
  Si  Si158  1  0.36268490  0.83228061  0.61493228  1
  Si  Si159  1  0.81594720  0.58668219  0.89292753  1
  Si  Si160  1  0.80293952  0.40992461  0.39065835  1
  Si  Si161  1  0.03165584  0.67428916  0.60990238  1
  Si  Si162  1  0.36081797  0.82871757  0.11131163  1
  Si  Si163  1  0.35364136  0.66344499  0.11468976  1
  Si  Si164  1  0.63837509  0.33513960  0.89044692  1
  Si  Si165  1  0.85788934  0.91953084  0.11348177  1
  Si  Si166  1  0.69002799  0.33146147  0.61541323  1
  Si  Si167  1  0.02595120  0.33284983  0.61214988  1
  Si  Si168  1  0.19444554  0.91172775  0.61314986  1
  Si  Si169  1  0.85532967  0.58058498  0.11718606  1
  Si  Si170  1  0.85507562  0.41712473  0.11820085  1
  Si  Si171  1  0.85814988  0.41058752  0.61192573  1
  Si  Si172  1  0.52212666  0.08500163  0.61709776  1
  Si  Si173  1  0.19868341  0.07835052  0.10871645  1
  Si  Si174  1  0.97472895  0.16655208  0.88570359  1
  Si  Si175  1  0.31056288  0.67417751  0.38644541  1
  Si  Si176  1  0.69041338  0.33323787  0.11726484  1
  Si  Si177  1  0.52985156  0.57734381  0.61377859  1
  Si  Si178  1  0.64166475  0.83068702  0.38499022  1
  Si  Si179  1  0.46634219  0.58251279  0.38552386  1
  Si  Si180  1  0.30573840  0.66320593  0.88340773  1
  Si  Si181  1  0.69076167  0.66657717  0.11661068  1
  Si  Si182  1  0.52344416  0.41332166  0.61679234  1
  Si  Si183  1  0.14779079  0.91527244  0.38248995  1
  Si  Si184  1  0.01671410  0.66314304  0.11209489  1
  Si  Si185  1  0.53119435  0.09026006  0.11110200  1
  Si  Si186  1  0.64281298  0.16842469  0.38488249  1
  Si  Si187  1  0.02161259  0.83877544  0.61435622  1
  Si  Si188  1  0.14794387  0.07874207  0.38221868  1
  Si  Si189  1  0.47162074  0.41744200  0.88500615  1
  Si  Si190  1  0.37048205  0.66834238  0.61223708  1
  Si  Si191  1  0.47938944  0.08196174  0.38290691  1
  O  O192  1  0.28284646  0.09912718  0.07827531  1
  O  O193  1  0.27491902  0.11651161  0.57946405  1
  O  O194  1  0.26840700  0.61671998  0.08543619  1
  O  O195  1  0.28984480  0.62529780  0.57454336  1
  O  O196  1  0.62184121  0.11294138  0.08727912  1
  O  O197  1  0.59864149  0.12340424  0.58477955  1
  O  O198  1  0.60208608  0.62322690  0.08785732  1
  O  O199  1  0.60697308  0.60093250  0.57802842  1
  O  O200  1  0.93504520  0.10081719  0.07839872  1
  O  O201  1  0.92009008  0.11254240  0.57278425  1
  O  O202  1  0.93558648  0.60817034  0.08464652  1
  O  O203  1  0.96124572  0.61873530  0.57412019  1
  O  O204  1  0.10219897  0.37558081  0.08433994  1
  O  O205  1  0.10578514  0.37083875  0.58371287  1
  O  O206  1  0.12126378  0.86028465  0.07531297  1
  O  O207  1  0.10163036  0.87401439  0.58393512  1
  O  O208  1  0.43588191  0.37845469  0.08514927  1
  O  O209  1  0.43926002  0.36495988  0.58597537  1
  O  O210  1  0.44230366  0.84932534  0.07947024  1
  O  O211  1  0.43604582  0.87917171  0.58588431  1
  O  O212  1  0.77095738  0.36780077  0.08891235  1
  O  O213  1  0.76993692  0.36255897  0.58429990  1
  O  O214  1  0.78633345  0.85713894  0.08858319  1
  O  O215  1  0.76985599  0.86882449  0.58539888  1
  O  O216  1  0.27173914  0.39400258  0.08525512  1
  O  O217  1  0.27201925  0.37533626  0.58437941  1
  O  O218  1  0.28260726  0.88290105  0.08266816  1
  O  O219  1  0.26886999  0.86643247  0.58398000  1
  O  O220  1  0.60391439  0.37923199  0.08802395  1
  O  O221  1  0.60278036  0.37742596  0.58578937  1
  O  O222  1  0.62444471  0.88408606  0.07790165  1
  O  O223  1  0.60563604  0.89309937  0.58560368  1
  O  O224  1  0.93706839  0.38857889  0.08838021  1
  O  O225  1  0.93667428  0.37474862  0.58049247  1
  O  O226  1  0.93837215  0.90306766  0.07919090  1
  O  O227  1  0.93666294  0.88743959  0.58506356  1
  O  O228  1  0.12109311  0.13014494  0.07536847  1
  O  O229  1  0.10988531  0.11224798  0.57161391  1
  O  O230  1  0.10180352  0.62931949  0.08641497  1
  O  O231  1  0.11876917  0.66124415  0.58258427  1
  O  O232  1  0.46676587  0.15420319  0.08304141  1
  O  O233  1  0.43727479  0.13150514  0.58665068  1
  O  O234  1  0.43450657  0.62646847  0.08624295  1
  O  O235  1  0.45148156  0.63207796  0.58449310  1
  O  O236  1  0.78101580  0.14074519  0.08802249  1
  O  O237  1  0.76022416  0.12573030  0.58402630  1
  O  O238  1  0.76917410  0.62757954  0.08877659  1
  O  O239  1  0.77948493  0.64317983  0.56604253  1
  O  O240  1  0.06427368  0.10435305  0.41242693  1
  O  O241  1  0.04650923  0.11180457  0.92181508  1
  O  O242  1  0.04800501  0.62329073  0.42465239  1
  O  O243  1  0.06204839  0.61747320  0.91476047  1
  O  O244  1  0.39733716  0.11295262  0.41190236  1
  O  O245  1  0.40342118  0.13268669  0.92073456  1
  O  O246  1  0.38739591  0.61597691  0.41597071  1
  O  O247  1  0.38621548  0.61153381  0.91369609  1
  O  O248  1  0.73140796  0.12529133  0.41372376  1
  O  O249  1  0.72839653  0.12437023  0.91959868  1
  O  O250  1  0.70644941  0.61236063  0.41990552  1
  O  O251  1  0.74120287  0.61393511  0.93156610  1
  O  O252  1  0.23110381  0.34537663  0.42202745  1
  O  O253  1  0.22985057  0.37561522  0.91404857  1
  O  O254  1  0.23231717  0.86630800  0.41344560  1
  O  O255  1  0.20875432  0.84392206  0.90879671  1
  O  O256  1  0.55149784  0.36611854  0.41370458  1
  O  O257  1  0.55322150  0.36770699  0.91644616  1
  O  O258  1  0.56463489  0.87252768  0.41342733  1
  O  O259  1  0.55291727  0.85242256  0.91933887  1
  O  O260  1  0.86582731  0.34491657  0.41744078  1
  O  O261  1  0.90869089  0.35751308  0.92685248  1
  O  O262  1  0.89953460  0.87909339  0.41483151  1
  O  O263  1  0.89526290  0.85404628  0.92025023  1
  O  O264  1  0.05166428  0.39218382  0.43118251  1
  O  O265  1  0.06644656  0.38020469  0.91376444  1
  O  O266  1  0.06550191  0.88624461  0.41407975  1
  O  O267  1  0.05417863  0.88467105  0.91290664  1
  O  O268  1  0.39100449  0.37862810  0.41446692  1
  O  O269  1  0.39102093  0.38421635  0.91450408  1
  O  O270  1  0.39664574  0.88853276  0.41359552  1
  O  O271  1  0.37105422  0.88014921  0.92366221  1
  O  O272  1  0.71120052  0.38812223  0.41448975  1
  O  O273  1  0.71742898  0.38122306  0.92804739  1
  O  O274  1  0.73224181  0.87113291  0.41391780  1
  O  O275  1  0.70822528  0.89895742  0.91991511  1
  O  O276  1  0.23267443  0.12732384  0.41344411  1
  O  O277  1  0.23867832  0.13701047  0.92205846  1
  O  O278  1  0.22950041  0.65961847  0.41948580  1
  O  O279  1  0.22576098  0.62787042  0.91393348  1
  O  O280  1  0.56473745  0.12909822  0.41408138  1
  O  O281  1  0.56367667  0.13247488  0.91593910  1
  O  O282  1  0.54592372  0.63570804  0.41274395  1
  O  O283  1  0.55113083  0.62857911  0.92703241  1
  O  O284  1  0.89968177  0.11434941  0.41465825  1
  O  O285  1  0.88531462  0.15191036  0.91404874  1
  O  O286  1  0.88520367  0.65619427  0.41757138  1
  O  O287  1  0.89977595  0.64058092  0.91703084  1
  O  O288  1  0.17586239  -0.00562159  0.08472555  1
  O  O289  1  0.19509567  -0.00880977  0.57868186  1
  O  O290  1  0.17080107  0.50254838  0.08411453  1
  O  O291  1  0.17984971  0.49406116  0.57637193  1
  O  O292  1  0.50151197  0.01263962  0.08041293  1
  O  O293  1  0.50836052  0.00397629  0.58349555  1
  O  O294  1  0.51713976  0.50166456  0.08707382  1
  O  O295  1  0.50345906  0.49432693  0.58656583  1
  O  O296  1  0.81816735  0.00005303  0.09096596  1
  O  O297  1  0.83004869  -0.00227957  0.58495214  1
  O  O298  1  0.83271523  0.49849183  0.08911593  1
  O  O299  1  0.83994154  0.48903436  0.57942508  1
  O  O300  1  0.00180371  0.26028185  0.07516733  1
  O  O301  1  0.01686076  0.25463315  0.57719010  1
  O  O302  1  -0.00528620  0.73869143  0.07394256  1
  O  O303  1  0.00122021  0.75822367  0.58473989  1
  O  O304  1  0.33175524  0.26472152  0.07530385  1
  O  O305  1  0.34619825  0.24882732  0.58237702  1
  O  O306  1  0.33558742  0.74487187  0.08580216  1
  O  O307  1  0.36621722  0.75234433  0.58247632  1
  O  O308  1  0.67590222  0.25075662  0.08871574  1
  O  O309  1  0.67298472  0.24882218  0.58529488  1
  O  O310  1  0.68034687  0.74806718  0.08682168  1
  O  O311  1  0.65865894  0.76203747  0.57685401  1
  O  O312  1  0.16960798  -0.00311883  0.41223104  1
  O  O313  1  0.17260018  -0.01691525  0.92347522  1
  O  O314  1  0.18962756  0.50406498  0.42542773  1
  O  O315  1  0.15372240  0.50019425  0.91260408  1
  O  O316  1  0.49761831  0.00036495  0.41341474  1
  O  O317  1  0.48925073  0.00915549  0.93044029  1
  O  O318  1  0.48305896  0.49903169  0.41295788  1
  O  O319  1  0.48528243  0.49864078  0.91642449  1
  O  O320  1  0.80503688  -0.00209446  0.41361761  1
  O  O321  1  0.83851333  0.01600584  0.92382799  1
  O  O322  1  0.83219485  0.48737838  0.42252133  1
  O  O323  1  0.84544054  0.50741735  0.92201025  1
  O  O324  1  0.33873456  0.24267305  0.41121390  1
  O  O325  1  0.32315261  0.25675337  0.91648206  1
  O  O326  1  0.34439848  0.75628814  0.41241582  1
  O  O327  1  0.32349253  0.74367584  0.91601067  1
  O  O328  1  0.65020600  0.25122815  0.41375195  1
  O  O329  1  0.64977422  0.25142641  0.91869479  1
  O  O330  1  0.64616203  0.74880892  0.41440484  1
  O  O331  1  0.67559133  0.75949230  0.92222070  1
  O  O332  1  0.99718017  0.23135675  0.42439135  1
  O  O333  1  1.00590727  0.24820581  0.91063653  1
  O  O334  1  0.99446370  0.75944666  0.41553436  1
  O  O335  1  1.00517575  0.74967799  0.91241864  1
  O  O336  1  0.21448929  0.08476866  0.18953767  1
  O  O337  1  0.21070142  0.07283435  0.68786822  1
  O  O338  1  0.21031168  0.58009412  0.19534340  1
  O  O339  1  0.21180265  0.58374870  0.69974478  1
  O  O340  1  0.54825809  0.08655968  0.19341259  1
  O  O341  1  0.54497380  0.07931124  0.69569403  1
  O  O342  1  0.54052316  0.58353900  0.19637723  1
  O  O343  1  0.54327658  0.58052802  0.69422162  1
  O  O344  1  0.87623851  0.08310089  0.19503808  1
  O  O345  1  0.86931033  0.08215245  0.69273801  1
  O  O346  1  0.87473240  0.58289506  0.19739182  1
  O  O347  1  0.88332404  0.59372432  0.69788492  1
  O  O348  1  0.04233143  0.33276160  0.19241885  1
  O  O349  1  0.04464861  0.33708259  0.69186707  1
  O  O350  1  0.04304798  0.83208773  0.19805559  1
  O  O351  1  0.04180361  0.83665208  0.69455530  1
  O  O352  1  0.37445967  0.33685989  0.19254468  1
  O  O353  1  0.37722272  0.33364137  0.69474371  1
  O  O354  1  0.37854170  0.83100265  0.19266356  1
  O  O355  1  0.37683643  0.83172038  0.69469657  1
  O  O356  1  0.70774251  0.33379839  0.19782341  1
  O  O357  1  0.70631991  0.33233240  0.69508057  1
  O  O358  1  0.71158339  0.83238169  0.19440423  1
  O  O359  1  0.70517090  0.83564228  0.69391932  1
  O  O360  1  0.20846453  0.41745815  0.19469592  1
  O  O361  1  0.21117593  0.41791981  0.69226209  1
  O  O362  1  0.21479299  0.91000870  0.19101479  1
  O  O363  1  0.21002446  0.91220183  0.69308183  1
  O  O364  1  0.54153507  0.41759596  0.19600892  1
  O  O365  1  0.54227405  0.41513666  0.69686134  1
  O  O366  1  0.54778666  0.91621627  0.20005737  1
  O  O367  1  0.54359314  0.91870812  0.69611607  1
  O  O368  1  0.87150317  0.41660556  0.19840449  1
  O  O369  1  0.88017626  0.40767590  0.69137599  1
  O  O370  1  0.87711894  0.91697445  0.19499022  1
  O  O371  1  0.87504132  0.91675846  0.69498117  1
  O  O372  1  0.04392286  0.16646495  0.19880521  1
  O  O373  1  0.03155026  0.16383887  0.69597336  1
  O  O374  1  0.03168038  0.66641455  0.19188369  1
  O  O375  1  0.04484062  0.67116859  0.69137806  1
  O  O376  1  0.37983086  0.16843669  0.20005107  1
  O  O377  1  0.36651405  0.17006471  0.69289268  1
  O  O378  1  0.37527351  0.66385196  0.19505300  1
  O  O379  1  0.38273975  0.67047220  0.69223279  1
  O  O380  1  0.71265642  0.16806772  0.19707051  1
  O  O381  1  0.70580665  0.16666726  0.69579190  1
  O  O382  1  0.70673767  0.66656020  0.19697805  1
  O  O383  1  0.71244652  0.66849309  0.70128213  1
  O  O384  1  0.12799862  0.08254372  0.30301199  1
  O  O385  1  0.11702092  0.07244323  0.80190605  1
  O  O386  1  0.11937329  0.58382131  0.30003634  1
  O  O387  1  0.12277810  0.58523575  0.80314423  1
  O  O388  1  0.46349714  0.08243513  0.30306560  1
  O  O389  1  0.45463727  0.07547998  0.81209010  1
  O  O390  1  0.45210445  0.58214933  0.30477385  1
  O  O391  1  0.46071328  0.58355063  0.80753690  1
  O  O392  1  0.78949819  0.08218653  0.30470389  1
  O  O393  1  0.78873349  0.08660144  0.80793412  1
  O  O394  1  0.78558090  0.58263575  0.30051422  1
  O  O395  1  0.78849046  0.59170904  0.81323515  1
  O  O396  1  0.29181985  0.33072442  0.30525867  1
  O  O397  1  0.28918420  0.33688898  0.80355806  1
  O  O398  1  0.29510470  0.83597948  0.30358729  1
  O  O399  1  0.28956824  0.82913993  0.80544374  1
  O  O400  1  0.61849449  0.33315106  0.30494277  1
  O  O401  1  0.62186841  0.33509447  0.80969482  1
  O  O402  1  0.62470943  0.83189890  0.30470750  1
  O  O403  1  0.62337176  0.83494522  0.80849328  1
  O  O404  1  0.95648149  0.33000999  0.29997642  1
  O  O405  1  0.95588891  0.33734883  0.80622797  1
  O  O406  1  0.95633152  0.83833679  0.30518121  1
  O  O407  1  0.95591812  0.83323940  0.80474453  1
  O  O408  1  0.12259429  0.41513797  0.30036678  1
  O  O409  1  0.12543975  0.41891880  0.80188465  1
  O  O410  1  0.12665362  0.91336914  0.30342788  1
  O  O411  1  0.12231328  0.91317429  0.80453573  1
  O  O412  1  0.45323485  0.41628459  0.30422397  1
  O  O413  1  0.45589692  0.41868704  0.80500074  1
  O  O414  1  0.45912565  0.91687163  0.30347268  1
  O  O415  1  0.45287864  0.91597355  0.80031384  1
  O  O416  1  0.78530791  0.41394583  0.30834060  1
  O  O417  1  0.78438574  0.40703927  0.80260547  1
  O  O418  1  0.79000439  0.91574724  0.30444507  1
  O  O419  1  0.78747464  0.91897884  0.79963850  1
  O  O420  1  0.29133032  0.16331523  0.30292785  1
  O  O421  1  0.29903431  0.17135621  0.80919490  1
  O  O422  1  0.29797383  0.66995487  0.30646594  1
  O  O423  1  0.28783502  0.66873452  0.80423334  1
  O  O424  1  0.62425221  0.16743537  0.30450620  1
  O  O425  1  0.63178133  0.16995225  0.80845385  1
  O  O426  1  0.61818261  0.66648392  0.30585577  1
  O  O427  1  0.61951492  0.66616229  0.80100483  1
  O  O428  1  0.95733464  0.16076515  0.30689492  1
  O  O429  1  0.95246101  0.16105824  0.80599281  1
  O  O430  1  0.95652658  0.67075411  0.30851052  1
  O  O431  1  0.96097060  0.66832649  0.80470807  1
  F  F432  1  0.04319950  -0.00045280  0.20008828  1
  F  F433  1  0.04152099  -0.00483256  0.69833496  1
  F  F434  1  0.03924556  0.49873677  0.20085094  1
  F  F435  1  0.04753663  0.50060171  0.69865536  1
  F  F436  1  0.38350231  -0.00100996  0.19921200  1
  F  F437  1  0.38008360  -0.00646893  0.69513075  1
  F  F438  1  0.37658479  0.50010497  0.20180671  1
  F  F439  1  0.38120653  0.49672107  0.70034036  1
  F  F440  1  0.71383078  -0.00001623  0.20336414  1
  F  F441  1  0.70821566  0.00392351  0.70266290  1
  F  F442  1  0.70667588  0.49762444  0.20280271  1
  F  F443  1  0.69819587  0.50059672  0.70047190  1
  F  F444  1  0.21227522  0.25156868  0.20176436  1
  F  F445  1  0.21650497  0.26066371  0.69610322  1
  F  F446  1  0.21483738  0.75091170  0.20003078  1
  F  F447  1  0.21323039  0.75209151  0.70062790  1
  F  F448  1  0.54696602  0.25280837  0.20209115  1
  F  F449  1  0.54900250  0.25933405  0.70126774  1
  F  F450  1  0.54539994  0.74730159  0.20159083  1
  F  F451  1  0.54401413  0.75400567  0.70322504  1
  F  F452  1  0.87529420  0.24826078  0.20279207  1
  F  F453  1  0.86601327  0.24883331  0.69822722  1
  F  F454  1  0.87696225  0.74853055  0.20519347  1
  F  F455  1  0.87731852  0.75456826  0.70250129  1
  F  F456  1  0.29799583  0.00002594  0.29579075  1
  F  F457  1  0.28409589  -0.00691529  0.79796199  1
  F  F458  1  0.28895988  0.49874887  0.29820802  1
  F  F459  1  0.28674117  0.49419528  0.80160099  1
  F  F460  1  0.62495988  0.00200402  0.29905269  1
  F  F461  1  0.61971439  0.00188508  0.79985967  1
  F  F462  1  0.61587404  0.49952055  0.29862100  1
  F  F463  1  0.61911305  0.49948846  0.80086291  1
  F  F464  1  0.95579895  -0.00080287  0.29759582  1
  F  F465  1  0.95096480  -0.00068962  0.79594737  1
  F  F466  1  0.95257411  0.50012181  0.29880513  1
  F  F467  1  0.97175356  0.49999230  0.80016590  1
  F  F468  1  0.12443372  0.24789623  0.29714299  1
  F  F469  1  0.12316869  0.26317020  0.80396618  1
  F  F470  1  0.12233326  0.75328480  0.29881812  1
  F  F471  1  0.12038023  0.74918863  0.79429864  1
  F  F472  1  0.45690902  0.25215315  0.29807819  1
  F  F473  1  0.44896688  0.26333731  0.80465632  1
  F  F474  1  0.45531613  0.75147574  0.29582575  1
  F  F475  1  0.45377663  0.74869351  0.79862815  1
  F  F476  1  0.78653782  0.24717629  0.29947268  1
  F  F477  1  0.78697934  0.24903221  0.79850950  1
  F  F478  1  0.78615204  0.75267285  0.29876858  1
  F  F479  1  0.78940171  0.75375004  0.79909630  1
