# generated using pymatgen
data_K24Na3Li5Mg64Fe17Si79(O5F)48
_symmetry_space_group_name_H-M   'P 1'
_cell_length_a   16.10390111
_cell_length_b   18.58628653
_cell_length_c   20.55154121
_cell_angle_alpha   89.98805003
_cell_angle_beta   100.00881745
_cell_angle_gamma   90.02902770
_symmetry_Int_Tables_number   1
_chemical_formula_structural   K24Na3Li5Mg64Fe17Si79(O5F)48
_chemical_formula_sum   'K24 Na3 Li5 Mg64 Fe17 Si79 O240 F48'
_cell_volume   6057.69954564
_cell_formula_units_Z   1
loop_
 _symmetry_equiv_pos_site_id
 _symmetry_equiv_pos_as_xyz
  1  'x, y, z'
loop_
 _atom_site_type_symbol
 _atom_site_label
 _atom_site_symmetry_multiplicity
 _atom_site_fract_x
 _atom_site_fract_y
 _atom_site_fract_z
 _atom_site_occupancy
  K  K0  1  0.00130250  -0.00194031  0.00058642  1
  K  K1  1  0.00412150  -0.00036452  0.49840236  1
  K  K2  1  0.00462661  0.49162862  0.00830792  1
  K  K3  1  -0.01078615  0.49227022  0.49392339  1
  K  K4  1  0.34107429  0.00821394  -0.00562147  1
  K  K5  1  0.32672471  -0.00350027  0.50480222  1
  K  K6  1  0.31952295  0.49619648  -0.00240534  1
  K  K7  1  0.34066814  0.49141458  0.49953423  1
  K  K8  1  0.66291992  -0.00090567  0.00170500  1
  K  K9  1  0.66681295  -0.00064163  0.49914596  1
  K  K10  1  0.66810728  0.50224063  0.00947344  1
  K  K11  1  0.67184044  0.49487287  0.49042734  1
  K  K12  1  0.16815955  0.25172605  0.00299514  1
  K  K13  1  0.16820673  0.24570941  0.50225659  1
  K  K14  1  0.14606488  0.75921222  -0.00068513  1
  K  K15  1  0.16540505  0.75339466  0.49811151  1
  K  K16  1  0.49017527  0.24162393  -0.00072285  1
  K  K17  1  0.49768835  0.25385341  0.49703981  1
  K  K18  1  0.49772564  0.75801475  0.00330813  1
  K  K19  1  0.51502578  0.75826973  0.50136186  1
  K  K20  1  0.84141825  0.24591057  0.01479149  1
  K  K21  1  0.82841016  0.25249463  0.48529533  1
  K  K22  1  0.83964638  0.74792313  0.00528385  1
  K  K23  1  0.82922321  0.75777137  0.49759859  1
  Na  Na24  1  0.83465862  0.49840453  0.24544187  1
  Na  Na25  1  0.83412474  0.32924156  0.24913877  1
  Na  Na26  1  0.83343601  0.16841350  0.25305106  1
  Li  Li27  1  0.33427733  0.24831448  0.74219586  1
  Li  Li28  1  0.82474999  0.00125151  0.25187397  1
  Li  Li29  1  0.66222066  0.92155609  0.74625165  1
  Li  Li30  1  0.67598598  0.92228493  0.25241544  1
  Li  Li31  1  0.16271187  0.83325116  0.24800773  1
  Mg  Mg32  1  0.16917539  0.00013617  0.74952336  1
  Mg  Mg33  1  0.00126142  0.24898259  0.75132858  1
  Mg  Mg34  1  0.50212747  -0.00111730  0.24987233  1
  Mg  Mg35  1  0.83043628  0.00019772  0.74969086  1
  Mg  Mg36  1  0.66599807  0.75484746  0.74681800  1
  Mg  Mg37  1  0.33209491  0.75146680  0.25030616  1
  Mg  Mg38  1  0.00055850  0.24969088  0.24587305  1
  Mg  Mg39  1  0.50186091  -0.00023004  0.75122572  1
  Mg  Mg40  1  0.16464845  0.49848083  0.75319578  1
  Mg  Mg41  1  0.66546324  0.24861790  0.74995837  1
  Mg  Mg42  1  0.83375172  0.50080564  0.74660918  1
  Mg  Mg43  1  0.16545091  -0.00389359  0.24758934  1
  Mg  Mg44  1  -0.00085986  0.75246917  0.74888739  1
  Mg  Mg45  1  0.16723395  0.50105330  0.24755503  1
  Mg  Mg46  1  0.33403067  0.24884476  0.24840100  1
  Mg  Mg47  1  0.49973811  0.49841135  0.74739017  1
  Mg  Mg48  1  0.67018707  0.75523333  0.25225141  1
  Mg  Mg49  1  0.33393152  0.75026231  0.75296189  1
  Mg  Mg50  1  0.66721168  0.24901427  0.25651981  1
  Mg  Mg51  1  0.50126513  0.50033228  0.25332965  1
  Mg  Mg52  1  0.00354459  0.75079330  0.24806547  1
  Mg  Mg53  1  0.66234389  0.08201657  0.74993253  1
  Mg  Mg54  1  0.33581985  0.91558434  0.75063185  1
  Mg  Mg55  1  0.66730828  0.58535311  0.74641649  1
  Mg  Mg56  1  0.33282292  0.08320242  0.24640429  1
  Mg  Mg57  1  -0.00276805  0.58475786  0.74863655  1
  Mg  Mg58  1  0.00079166  0.41522733  0.75225519  1
  Mg  Mg59  1  0.50059360  0.66597564  0.75018665  1
  Mg  Mg60  1  0.67183351  0.58428726  0.25224469  1
  Mg  Mg61  1  0.49507235  0.16533916  0.74725030  1
  Mg  Mg62  1  0.66572054  0.41606459  0.74738306  1
  Mg  Mg63  1  0.50358274  0.83544461  0.25270441  1
  Mg  Mg64  1  0.16886076  0.33437456  0.75265437  1
  Mg  Mg65  1  0.83341336  0.33333445  0.75048875  1
  Mg  Mg66  1  0.16509362  0.16327330  0.24493772  1
  Mg  Mg67  1  0.66699827  0.41545613  0.25220705  1
  Mg  Mg68  1  0.33093086  0.91443680  0.24932943  1
  Mg  Mg69  1  -0.00041436  0.58401842  0.24546509  1
  Mg  Mg70  1  0.33466555  0.58562880  0.25164853  1
  Mg  Mg71  1  0.83360607  0.83796025  0.25172335  1
  Mg  Mg72  1  0.33213299  0.58232286  0.75088164  1
  Mg  Mg73  1  0.82997126  0.83792069  0.74808789  1
  Mg  Mg74  1  0.33498372  0.08650321  0.74816035  1
  Mg  Mg75  1  0.49894574  0.16477286  0.24947319  1
  Mg  Mg76  1  0.50349030  0.66759959  0.25356844  1
  Mg  Mg77  1  0.67067957  0.07920103  0.25320136  1
  Mg  Mg78  1  0.83161416  0.16526897  0.75028466  1
  Mg  Mg79  1  0.00240317  0.08439773  0.75058275  1
  Mg  Mg80  1  0.17204187  0.16708573  0.74957290  1
  Mg  Mg81  1  0.33508001  0.41643186  0.24973388  1
  Mg  Mg82  1  0.50269292  0.83690014  0.75090540  1
  Mg  Mg83  1  0.00195156  0.91698757  0.75002820  1
  Mg  Mg84  1  0.16406024  0.66602142  0.75057994  1
  Mg  Mg85  1  0.16546565  0.83570213  0.75124664  1
  Mg  Mg86  1  -0.00202173  0.91628907  0.25039016  1
  Mg  Mg87  1  0.83671137  0.66654692  0.24843556  1
  Mg  Mg88  1  -0.00201028  0.41420915  0.24549433  1
  Mg  Mg89  1  0.83259746  0.66718674  0.74556964  1
  Mg  Mg90  1  0.16617499  0.33335387  0.24746667  1
  Mg  Mg91  1  0.50010274  0.33487109  0.25384166  1
  Mg  Mg92  1  -0.00421058  0.08106999  0.24996307  1
  Mg  Mg93  1  0.33148431  0.41335448  0.74991402  1
  Mg  Mg94  1  0.16538413  0.66996441  0.24713698  1
  Mg  Mg95  1  0.49593272  0.33168713  0.74806185  1
  Fe  Fe96  1  0.02500907  0.32863338  0.10650664  1
  Fe  Fe97  1  0.14197756  0.91912273  0.89138654  1
  Fe  Fe98  1  0.85667430  0.57860596  0.60736777  1
  Fe  Fe99  1  0.52187174  0.08592158  0.60692919  1
  Fe  Fe100  1  0.35476074  0.16999527  0.10811735  1
  Fe  Fe101  1  0.35458354  0.33896952  0.60890770  1
  Fe  Fe102  1  0.47225122  0.41893380  0.39148231  1
  Fe  Fe103  1  0.02518685  0.66723497  0.10610409  1
  Fe  Fe104  1  0.13874204  0.41645943  0.89336806  1
  Fe  Fe105  1  0.52122963  0.91529652  0.60878859  1
  Fe  Fe106  1  0.02205026  0.83174743  0.60968904  1
  Fe  Fe107  1  0.85638760  0.57875832  0.10424682  1
  Fe  Fe108  1  0.80938949  0.41659644  0.39127273  1
  Fe  Fe109  1  0.47744025  0.91349670  0.89350404  1
  Fe  Fe110  1  0.81383409  0.92103916  0.39189528  1
  Fe  Fe111  1  0.19480234  0.07895696  0.60953315  1
  Fe  Fe112  1  0.47970414  0.08746322  0.89159859  1
  Si  Si113  1  0.18861654  0.07665471  0.10988717  1
  Si  Si114  1  0.69182902  0.67157848  0.11291033  1
  Si  Si115  1  0.35801878  0.17072675  0.60745544  1
  Si  Si116  1  0.64109515  0.16202292  0.38703265  1
  Si  Si117  1  0.30584668  0.83434593  0.38461453  1
  Si  Si118  1  0.30593640  0.82839434  0.89040700  1
  Si  Si119  1  0.47018965  0.91548963  0.38566088  1
  Si  Si120  1  0.98079360  0.83002131  0.38759335  1
  Si  Si121  1  0.47599876  0.59030465  0.38993506  1
  Si  Si122  1  0.30719914  0.17184884  0.88493404  1
  Si  Si123  1  0.35922753  0.83004879  0.11514604  1
  Si  Si124  1  0.02170294  0.15573200  0.11067214  1
  Si  Si125  1  0.30658485  0.66972577  0.38615480  1
  Si  Si126  1  0.52530455  0.58613948  0.61350479  1
  Si  Si127  1  0.52572706  0.08064482  0.11346705  1
  Si  Si128  1  0.53097016  0.58435526  0.11821216  1
  Si  Si129  1  0.18748021  0.58375551  0.61703280  1
  Si  Si130  1  0.98071781  0.66608636  0.38504069  1
  Si  Si131  1  0.85475966  0.91884479  0.11512363  1
  Si  Si132  1  0.31063195  0.33762451  0.88911661  1
  Si  Si133  1  0.68956221  0.67182759  0.61043325  1
  Si  Si134  1  0.81048796  0.59142850  0.38838652  1
  Si  Si135  1  0.64817188  0.17477361  0.88841404  1
  Si  Si136  1  0.18488812  0.42166412  0.61302952  1
  Si  Si137  1  0.79893626  0.91639984  0.88363112  1
  Si  Si138  1  0.30263591  0.32961754  0.38515578  1
  Si  Si139  1  0.47786227  0.58166206  0.88552241  1
  Si  Si140  1  0.13957057  0.58944222  0.88858090  1
  Si  Si141  1  0.63935997  0.83701957  0.38804969  1
  Si  Si142  1  0.14114743  0.08104757  0.38335103  1
  Si  Si143  1  0.69634693  0.83804889  0.61230737  1
  Si  Si144  1  0.80985721  0.58180186  0.88273555  1
  Si  Si145  1  0.80555078  0.08192453  0.88603406  1
  Si  Si146  1  0.36033521  0.82263910  0.61387763  1
  Si  Si147  1  0.01910665  0.83908762  0.11180266  1
  Si  Si148  1  0.69355592  0.32960218  0.61611102  1
  Si  Si149  1  0.64354232  0.67213599  0.38715606  1
  Si  Si150  1  0.85892769  0.08833600  0.61649748  1
  Si  Si151  1  0.19345150  0.91255190  0.11491614  1
  Si  Si152  1  0.19914559  0.58780031  0.11365498  1
  Si  Si153  1  0.02417896  0.66275066  0.61158546  1
  Si  Si154  1  0.64338034  0.33827671  0.88398861  1
  Si  Si155  1  0.53227563  0.41903087  0.61139292  1
  Si  Si156  1  0.36148191  0.34074938  0.11276675  1
  Si  Si157  1  0.30634160  0.16326104  0.38318650  1
  Si  Si158  1  0.36608611  0.66470225  0.11696601  1
  Si  Si159  1  0.97150106  0.67181383  0.88372726  1
  Si  Si160  1  0.14356826  0.09089215  0.88788416  1
  Si  Si161  1  0.81238546  0.08686777  0.39017131  1
  Si  Si162  1  0.69023602  0.83537583  0.11657371  1
  Si  Si163  1  0.19671299  0.90725844  0.61119922  1
  Si  Si164  1  0.31145690  0.66384527  0.88605685  1
  Si  Si165  1  0.98237096  0.33207078  0.38736565  1
  Si  Si166  1  0.53044874  0.41846317  0.11655078  1
  Si  Si167  1  0.63923024  0.32898992  0.39290953  1
  Si  Si168  1  0.64128236  0.82411847  0.88771894  1
  Si  Si169  1  0.35427178  0.65915007  0.61603382  1
  Si  Si170  1  0.14122584  0.91698271  0.38277606  1
  Si  Si171  1  0.47358157  0.08094428  0.38490236  1
  Si  Si172  1  0.96593076  0.32905169  0.88784042  1
  Si  Si173  1  0.52313448  0.91561443  0.11694248  1
  Si  Si174  1  0.85616651  0.40955157  0.61408230  1
  Si  Si175  1  0.19628460  0.42139174  0.11361681  1
  Si  Si176  1  0.80569386  0.41872010  0.88276174  1
  Si  Si177  1  0.97156316  0.16320000  0.88611804  1
  Si  Si178  1  0.68739688  0.16364087  0.11778450  1
  Si  Si179  1  0.96538710  0.83780040  0.88736122  1
  Si  Si180  1  0.68613704  0.32702119  0.11602713  1
  Si  Si181  1  0.02545861  0.16728317  0.61346794  1
  Si  Si182  1  0.64551322  0.66200424  0.88460699  1
  Si  Si183  1  0.98164763  0.16860158  0.38456021  1
  Si  Si184  1  0.14160437  0.41652641  0.38342672  1
  Si  Si185  1  0.14461966  0.58111967  0.38408556  1
  Si  Si186  1  0.69403837  0.16619666  0.61376108  1
  Si  Si187  1  0.02377470  0.33239050  0.61607978  1
  Si  Si188  1  0.85428576  0.08079266  0.11792992  1
  Si  Si189  1  0.85973160  0.92419389  0.61393081  1
  Si  Si190  1  0.85370777  0.40880457  0.10594336  1
  Si  Si191  1  0.47807397  0.41682180  0.88575792  1
  O  O192  1  0.25251587  0.12325060  0.07440579  1
  O  O193  1  0.28908784  0.10947425  0.57548542  1
  O  O194  1  0.28724458  0.61245309  0.08753480  1
  O  O195  1  0.27469274  0.60487721  0.58907341  1
  O  O196  1  0.60941636  0.11032793  0.08511839  1
  O  O197  1  0.62480232  0.11116617  0.57739674  1
  O  O198  1  0.60534924  0.62324849  0.08638012  1
  O  O199  1  0.59704131  0.63201083  0.58408123  1
  O  O200  1  0.93050397  0.11534466  0.08289109  1
  O  O201  1  0.94161209  0.11635998  0.58692909  1
  O  O202  1  0.94394314  0.60682168  0.06120852  1
  O  O203  1  0.96065059  0.59818408  0.58148399  1
  O  O204  1  0.11921595  0.37281239  0.07742555  1
  O  O205  1  0.10320341  0.36801586  0.58678539  1
  O  O206  1  0.10174664  0.87639088  0.08528601  1
  O  O207  1  0.12434516  0.84911621  0.58135443  1
  O  O208  1  0.44266725  0.37741426  0.08537775  1
  O  O209  1  0.45166112  0.37462243  0.57567514  1
  O  O210  1  0.43692627  0.86880163  0.08561114  1
  O  O211  1  0.44103601  0.83987454  0.58023699  1
  O  O212  1  0.76864718  0.35474060  0.08696880  1
  O  O213  1  0.78136520  0.34946663  0.59013785  1
  O  O214  1  0.76921718  0.87053359  0.08516818  1
  O  O215  1  0.78242075  0.86781837  0.58665104  1
  O  O216  1  0.28429784  0.39793104  0.08831291  1
  O  O217  1  0.26233612  0.40187671  0.57630539  1
  O  O218  1  0.26805474  0.86743762  0.08584034  1
  O  O219  1  0.28286190  0.87749599  0.58471092  1
  O  O220  1  0.60543997  0.37990611  0.08374499  1
  O  O221  1  0.61932194  0.38794071  0.58781163  1
  O  O222  1  0.60331806  0.88094220  0.08774998  1
  O  O223  1  0.61975801  0.88666405  0.57558076  1
  O  O224  1  0.92450055  0.37403588  0.06608557  1
  O  O225  1  0.94084805  0.38146267  0.58675982  1
  O  O226  1  0.93554770  0.89009360  0.08206242  1
  O  O227  1  0.94013938  0.90334168  0.58069168  1
  O  O228  1  0.09114289  0.10304621  0.08318433  1
  O  O229  1  0.10051057  0.13916023  0.57762325  1
  O  O230  1  0.12781141  0.64146337  0.07774491  1
  O  O231  1  0.11738168  0.64472120  0.58889059  1
  O  O232  1  0.44604996  0.12715923  0.07706338  1
  O  O233  1  0.44531441  0.16016470  0.57768753  1
  O  O234  1  0.44568545  0.63017786  0.08741928  1
  O  O235  1  0.43427510  0.62546467  0.58557968  1
  O  O236  1  0.77094229  0.13184051  0.09061529  1
  O  O237  1  0.78466176  0.14688161  0.58940979  1
  O  O238  1  0.76277984  0.64151628  0.07389849  1
  O  O239  1  0.76130688  0.63567272  0.57544828  1
  O  O240  1  0.06420880  0.11737387  0.41532671  1
  O  O241  1  0.06061916  0.12432668  0.91649165  1
  O  O242  1  0.06420478  0.61501088  0.41373843  1
  O  O243  1  0.06282645  0.63531941  0.91389356  1
  O  O244  1  0.39576868  0.12211110  0.41258589  1
  O  O245  1  0.38231315  0.12162218  0.92264249  1
  O  O246  1  0.39838230  0.63418442  0.41662128  1
  O  O247  1  0.39561622  0.61334362  0.91417793  1
  O  O248  1  0.73133525  0.12476294  0.41967676  1
  O  O249  1  0.73470477  0.12723228  0.91737793  1
  O  O250  1  0.73210685  0.63212646  0.41817183  1
  O  O251  1  0.72653154  0.60923326  0.91246368  1
  O  O252  1  0.22003285  0.36263386  0.41228177  1
  O  O253  1  0.24103254  0.37078470  0.92940851  1
  O  O254  1  0.22998553  0.87521137  0.41365508  1
  O  O255  1  0.22076152  0.84590010  0.91981755  1
  O  O256  1  0.56380973  0.36253287  0.42732425  1
  O  O257  1  0.56213075  0.36852223  0.91477500  1
  O  O258  1  0.55475884  0.86955916  0.41490900  1
  O  O259  1  0.56479717  0.84560803  0.92483152  1
  O  O260  1  0.90754971  0.36161295  0.42325089  1
  O  O261  1  0.88039904  0.36230431  0.91132310  1
  O  O262  1  0.90679409  0.85851833  0.42439799  1
  O  O263  1  0.88321382  0.87027179  0.91598463  1
  O  O264  1  0.06416080  0.38495542  0.41674498  1
  O  O265  1  0.04715339  0.37242556  0.92436674  1
  O  O266  1  0.06772263  0.87703091  0.41530906  1
  O  O267  1  0.04545562  0.88375403  0.92317675  1
  O  O268  1  0.38130511  0.37562959  0.42249213  1
  O  O269  1  0.39977979  0.38336054  0.91645212  1
  O  O270  1  0.39350473  0.87662532  0.41641902  1
  O  O271  1  0.38156937  0.87931184  0.92630827  1
  O  O272  1  0.72521805  0.36834377  0.42849984  1
  O  O273  1  0.72018634  0.39540017  0.91099669  1
  O  O274  1  0.71884901  0.88235489  0.42458709  1
  O  O275  1  0.72208478  0.87828021  0.91377773  1
  O  O276  1  0.22981448  0.12354042  0.41316643  1
  O  O277  1  0.21885458  0.14985285  0.91214802  1
  O  O278  1  0.23085917  0.62731916  0.41547408  1
  O  O279  1  0.22990881  0.63259720  0.91520876  1
  O  O280  1  0.56339767  0.11984182  0.41548211  1
  O  O281  1  0.57190482  0.15064882  0.92433363  1
  O  O282  1  0.56393826  0.63542305  0.41598234  1
  O  O283  1  0.56293417  0.62956780  0.91396506  1
  O  O284  1  0.89685302  0.14085799  0.41201711  1
  O  O285  1  0.89810202  0.11793738  0.91528666  1
  O  O286  1  0.89875013  0.63784091  0.41568354  1
  O  O287  1  0.89266084  0.63120833  0.91047511  1
  O  O288  1  0.19215468  -0.00679046  0.08289686  1
  O  O289  1  0.17222016  -0.01517760  0.57658653  1
  O  O290  1  0.18041877  0.50492168  0.08676164  1
  O  O291  1  0.15393990  0.50462336  0.58859937  1
  O  O292  1  0.50997024  -0.00315871  0.08658911  1
  O  O293  1  0.48222968  -0.00000013  0.56741028  1
  O  O294  1  0.52175012  0.50206329  0.08813650  1
  O  O295  1  0.52321242  0.50388268  0.58488860  1
  O  O296  1  0.83331568  0.00015556  0.08398613  1
  O  O297  1  0.83056333  0.00734846  0.58924703  1
  O  O298  1  0.82142078  0.48589052  0.07234775  1
  O  O299  1  0.82466322  0.48435325  0.57920970  1
  O  O300  1  0.02091571  0.23273210  0.07392190  1
  O  O301  1  0.00343522  0.25097683  0.58693087  1
  O  O302  1  0.00261069  0.76290978  0.07383105  1
  O  O303  1  -0.01136484  0.73843408  0.57890890  1
  O  O304  1  0.34162803  0.26504668  0.07501524  1
  O  O305  1  0.31834716  0.24822999  0.57811636  1
  O  O306  1  0.35328271  0.74672590  0.08675609  1
  O  O307  1  0.32881379  0.73955665  0.58743093  1
  O  O308  1  0.66691810  0.24495384  0.08507562  1
  O  O309  1  0.66721851  0.24927508  0.58759136  1
  O  O310  1  0.66944408  0.75442382  0.08502096  1
  O  O311  1  0.67826022  0.75484475  0.58310945  1
  O  O312  1  0.15257599  -0.00090550  0.41365138  1
  O  O313  1  0.16711588  0.01398004  0.92349569  1
  O  O314  1  0.16160577  0.49886064  0.41365105  1
  O  O315  1  0.14744140  0.51253526  0.92529877  1
  O  O316  1  0.47870460  -0.00176885  0.41379544  1
  O  O317  1  0.50926665  0.00050680  0.93347368  1
  O  O318  1  0.48460206  0.51353239  0.42657054  1
  O  O319  1  0.49560179  0.49970812  0.91539407  1
  O  O320  1  0.83602897  0.01314685  0.43168375  1
  O  O321  1  0.80808335  -0.00092744  0.91450257  1
  O  O322  1  0.82290630  0.51355198  0.42358314  1
  O  O323  1  0.83118478  0.49991230  0.91071094  1
  O  O324  1  0.31301177  0.24555232  0.41195107  1
  O  O325  1  0.33011210  0.25436625  0.91324309  1
  O  O326  1  0.30925298  0.75211829  0.41552514  1
  O  O327  1  0.33482355  0.74400130  0.91496986  1
  O  O328  1  0.64469818  0.24331410  0.41745883  1
  O  O329  1  0.67325444  0.25906301  0.91337991  1
  O  O330  1  0.64922097  0.75351109  0.41806694  1
  O  O331  1  0.67112278  0.74128487  0.91564821  1
  O  O332  1  1.00558559  0.24908908  0.41637054  1
  O  O333  1  0.97030670  0.24524457  0.91483420  1
  O  O334  1  1.00602275  0.74678787  0.41430007  1
  O  O335  1  0.97424031  0.75322616  0.91408635  1
  O  O336  1  0.20961542  0.07975230  0.19119733  1
  O  O337  1  0.21109171  0.08294612  0.70122817  1
  O  O338  1  0.21490880  0.58638513  0.19483101  1
  O  O339  1  0.20829535  0.58291716  0.69791685  1
  O  O340  1  0.53941702  0.08236484  0.19408138  1
  O  O341  1  0.54555080  0.08519883  0.69926692  1
  O  O342  1  0.54424568  0.58563888  0.19848437  1
  O  O343  1  0.54284527  0.58434919  0.69427018  1
  O  O344  1  0.88058531  0.07571578  0.19581131  1
  O  O345  1  0.87811185  0.08617095  0.69722220  1
  O  O346  1  0.88275412  0.59258096  0.19425691  1
  O  O347  1  0.87666887  0.58337214  0.69969080  1
  O  O348  1  0.04914768  0.33240850  0.19789974  1
  O  O349  1  0.04081574  0.33259367  0.69659019  1
  O  O350  1  0.03663885  0.83542359  0.19178616  1
  O  O351  1  0.04311882  0.83269021  0.70163045  1
  O  O352  1  0.37749356  0.33424545  0.19363881  1
  O  O353  1  0.37896087  0.33907702  0.69980931  1
  O  O354  1  0.37768610  0.83168643  0.19548793  1
  O  O355  1  0.37671907  0.82558184  0.69488125  1
  O  O356  1  0.69443782  0.32944432  0.19493104  1
  O  O357  1  0.71049188  0.33228098  0.69690998  1
  O  O358  1  0.71125627  0.83194070  0.19574836  1
  O  O359  1  0.71213399  0.83303005  0.69262556  1
  O  O360  1  0.21312151  0.41839887  0.19481572  1
  O  O361  1  0.20747843  0.41950605  0.69392731  1
  O  O362  1  0.21293474  0.91607680  0.19451541  1
  O  O363  1  0.21375569  0.91188604  0.69277712  1
  O  O364  1  0.54397053  0.41777347  0.19666999  1
  O  O365  1  0.54530806  0.41854146  0.69264159  1
  O  O366  1  0.53609346  0.91502325  0.19618193  1
  O  O367  1  0.54349971  0.91646460  0.69974131  1
  O  O368  1  0.88725701  0.41406032  0.18401244  1
  O  O369  1  0.87635011  0.41400028  0.69544629  1
  O  O370  1  0.87801507  0.91384169  0.19417603  1
  O  O371  1  0.87739390  0.92048349  0.69512907  1
  O  O372  1  0.04470099  0.16025200  0.19126685  1
  O  O373  1  0.04284171  0.16747632  0.69473300  1
  O  O374  1  0.04707136  0.66757712  0.19837890  1
  O  O375  1  0.04218934  0.66524273  0.69372799  1
  O  O376  1  0.37718562  0.16642486  0.19992599  1
  O  O377  1  0.37602042  0.16675262  0.68875598  1
  O  O378  1  0.38161060  0.66700416  0.19746930  1
  O  O379  1  0.37648490  0.66159879  0.69655025  1
  O  O380  1  0.69698885  0.16666533  0.19661479  1
  O  O381  1  0.71084494  0.16752419  0.69508638  1
  O  O382  1  0.70961317  0.66927027  0.19385927  1
  O  O383  1  0.70798360  0.66781919  0.69179377  1
  O  O384  1  0.12601906  0.08156845  0.30312707  1
  O  O385  1  0.12156343  0.08658481  0.80711213  1
  O  O386  1  0.12986650  0.58343024  0.30420306  1
  O  O387  1  0.12201574  0.58516017  0.80744216  1
  O  O388  1  0.45509450  0.08099141  0.30461747  1
  O  O389  1  0.45464639  0.08438083  0.79987908  1
  O  O390  1  0.45741123  0.58696807  0.30879202  1
  O  O391  1  0.45890994  0.58180679  0.80506056  1
  O  O392  1  0.78523344  0.07796562  0.31210458  1
  O  O393  1  0.78961732  0.08441099  0.80580516  1
  O  O394  1  0.78782715  0.59404008  0.30851921  1
  O  O395  1  0.78804420  0.58352810  0.80242407  1
  O  O396  1  0.28969365  0.33200159  0.30405751  1
  O  O397  1  0.28570228  0.34395721  0.80970880  1
  O  O398  1  0.29449418  0.83281045  0.30530503  1
  O  O399  1  0.29043479  0.83024628  0.80854598  1
  O  O400  1  0.61893515  0.33350910  0.31150560  1
  O  O401  1  0.62322315  0.33708644  0.80353812  1
  O  O402  1  0.62103572  0.83164100  0.30815081  1
  O  O403  1  0.62075562  0.82286503  0.80788392  1
  O  O404  1  0.96990511  0.33203600  0.30785359  1
  O  O405  1  0.95403461  0.33157653  0.80676191  1
  O  O406  1  0.96052428  0.83216998  0.30692931  1
  O  O407  1  0.95136526  0.83636084  0.80662048  1
  O  O408  1  0.12802975  0.41819491  0.30342271  1
  O  O409  1  0.12005976  0.41669794  0.80152714  1
  O  O410  1  0.12342744  0.91756151  0.30342404  1
  O  O411  1  0.12284897  0.91958508  0.79987221  1
  O  O412  1  0.45379777  0.41876346  0.29957130  1
  O  O413  1  0.46058995  0.41931758  0.80563327  1
  O  O414  1  0.45289905  0.91543373  0.30528157  1
  O  O415  1  0.45421473  0.91402945  0.80147976  1
  O  O416  1  0.77959714  0.41804293  0.30415823  1
  O  O417  1  0.78824671  0.41810254  0.80203193  1
  O  O418  1  0.79264638  0.91523069  0.30387928  1
  O  O419  1  0.78988604  0.91798382  0.80427138  1
  O  O420  1  0.28780648  0.16328656  0.30284609  1
  O  O421  1  0.29045604  0.16774584  0.80502819  1
  O  O422  1  0.29110785  0.66780254  0.30585145  1
  O  O423  1  0.29165668  0.66324638  0.80553594  1
  O  O424  1  0.61946411  0.16255939  0.30685784  1
  O  O425  1  0.62969612  0.17040471  0.80789648  1
  O  O426  1  0.62490248  0.66980417  0.30654699  1
  O  O427  1  0.62441203  0.66275587  0.80413803  1
  O  O428  1  0.97143764  0.16761303  0.30554704  1
  O  O429  1  0.95516281  0.16545222  0.80555207  1
  O  O430  1  0.96092031  0.66663107  0.30524776  1
  O  O431  1  0.95532692  0.66959503  0.80337839  1
  F  F432  1  0.04626841  -0.00178595  0.20021033  1
  F  F433  1  0.04426456  0.00326213  0.70166347  1
  F  F434  1  0.05114601  0.50118199  0.19778311  1
  F  F435  1  0.04341970  0.50077503  0.70389883  1
  F  F436  1  0.37811929  -0.00241742  0.20164897  1
  F  F437  1  0.37556127  -0.00140784  0.70094463  1
  F  F438  1  0.38023474  0.50497837  0.20225210  1
  F  F439  1  0.37855708  0.50107393  0.70288563  1
  F  F440  1  0.70480501  0.00295822  0.19872194  1
  F  F441  1  0.71512944  0.00637054  0.70102782  1
  F  F442  1  0.69371934  0.50194428  0.19778423  1
  F  F443  1  0.71069427  0.50044887  0.69984176  1
  F  F444  1  0.21389736  0.24857864  0.19945743  1
  F  F445  1  0.20523395  0.25376841  0.70268261  1
  F  F446  1  0.21813097  0.74675915  0.19906238  1
  F  F447  1  0.21313650  0.74756774  0.70611578  1
  F  F448  1  0.54244847  0.25088300  0.20673112  1
  F  F449  1  0.54825654  0.25225613  0.70161613  1
  F  F450  1  0.54566845  0.75050104  0.20382527  1
  F  F451  1  0.54472840  0.74626650  0.70171677  1
  F  F452  1  0.89118311  0.24644909  0.18956024  1
  F  F453  1  0.87924256  0.24959547  0.70413914  1
  F  F454  1  0.87973149  0.75311014  0.20400227  1
  F  F455  1  0.87738677  0.75256882  0.70178603  1
  F  F456  1  0.28776836  -0.00028052  0.29672501  1
  F  F457  1  0.28868987  -0.00314223  0.79866584  1
  F  F458  1  0.28964298  0.50139675  0.29780187  1
  F  F459  1  0.28867470  0.50090589  0.79909547  1
  F  F460  1  0.61505163  0.00309915  0.30191972  1
  F  F461  1  0.62373308  0.00400176  0.80308856  1
  F  F462  1  0.61947340  0.50395254  0.30202906  1
  F  F463  1  0.62156741  0.50120718  0.79542368  1
  F  F464  1  0.96859154  -0.00150230  0.30367034  1
  F  F465  1  0.95372487  0.00190024  0.79824434  1
  F  F466  1  0.97265300  0.49947456  0.29852948  1
  F  F467  1  0.95342324  0.49881030  0.79934292  1
  F  F468  1  0.12724092  0.24597790  0.29503465  1
  F  F469  1  0.11933499  0.25033721  0.79971836  1
  F  F470  1  0.12421553  0.74998575  0.29874346  1
  F  F471  1  0.12020535  0.74674355  0.79972021  1
  F  F472  1  0.45280041  0.25026665  0.30078763  1
  F  F473  1  0.46369969  0.24997106  0.79913223  1
  F  F474  1  0.45453163  0.75062362  0.29957727  1
  F  F475  1  0.45490278  0.74480663  0.79889710  1
  F  F476  1  0.77577181  0.24905777  0.31261117  1
  F  F477  1  0.78849396  0.25030845  0.79844561  1
  F  F478  1  0.79013204  0.75063879  0.29846030  1
  F  F479  1  0.78704712  0.74917896  0.79546266  1
