# generated using pymatgen
data_K24Na3Li5Mg64Fe17Si79(O5F)48
_symmetry_space_group_name_H-M   'P 1'
_cell_length_a   16.09136766
_cell_length_b   18.58418429
_cell_length_c   20.54792545
_cell_angle_alpha   90.01824173
_cell_angle_beta   100.01840805
_cell_angle_gamma   89.95869127
_symmetry_Int_Tables_number   1
_chemical_formula_structural   K24Na3Li5Mg64Fe17Si79(O5F)48
_chemical_formula_sum   'K24 Na3 Li5 Mg64 Fe17 Si79 O240 F48'
_cell_volume   6051.05574958
_cell_formula_units_Z   1
loop_
 _symmetry_equiv_pos_site_id
 _symmetry_equiv_pos_as_xyz
  1  'x, y, z'
loop_
 _atom_site_type_symbol
 _atom_site_label
 _atom_site_symmetry_multiplicity
 _atom_site_fract_x
 _atom_site_fract_y
 _atom_site_fract_z
 _atom_site_occupancy
  K  K0  1  -0.00484640  0.00055865  -0.00321447  1
  K  K1  1  -0.00856355  -0.00655284  0.49753381  1
  K  K2  1  -0.00331680  0.50542543  0.00326164  1
  K  K3  1  -0.00293129  0.50001982  0.49699542  1
  K  K4  1  0.34059361  -0.00676754  -0.00069032  1
  K  K5  1  0.33448903  0.00443759  0.49939102  1
  K  K6  1  0.33305087  0.49683713  0.00657569  1
  K  K7  1  0.33358828  0.50137443  0.49055371  1
  K  K8  1  0.65975482  0.00051550  0.00301779  1
  K  K9  1  0.67080763  0.00325239  0.49830848  1
  K  K10  1  0.66941783  0.51027400  0.00884768  1
  K  K11  1  0.66044853  0.50086137  0.49434110  1
  K  K12  1  0.16328441  0.25103988  -0.00267236  1
  K  K13  1  0.16093990  0.24383312  0.49912371  1
  K  K14  1  0.16563840  0.75544611  0.00702790  1
  K  K15  1  0.16393714  0.75554459  0.49068644  1
  K  K16  1  0.49555693  0.24673069  -0.00138562  1
  K  K17  1  0.50857919  0.24457019  0.50497597  1
  K  K18  1  0.51169459  0.75356488  0.00814950  1
  K  K19  1  0.50043371  0.74880049  0.49493262  1
  K  K20  1  0.83598112  0.24819370  -0.00570246  1
  K  K21  1  0.84189749  0.24989747  0.50443246  1
  K  K22  1  0.82798813  0.74759379  0.00836856  1
  K  K23  1  0.82843191  0.75431572  0.48941151  1
  Na  Na24  1  0.66647860  0.24956165  0.74315299  1
  Na  Na25  1  0.66671154  0.91803486  0.24739196  1
  Na  Na26  1  0.83212178  0.83192640  0.25248264  1
  Li  Li27  1  -0.00224539  0.24639614  0.75029779  1
  Li  Li28  1  0.83298729  0.50301875  0.24747896  1
  Li  Li29  1  0.33486218  0.41711317  0.24273388  1
  Li  Li30  1  0.16475991  0.83120261  0.25688532  1
  Li  Li31  1  0.16650673  0.66788160  0.75077655  1
  Mg  Mg32  1  0.83337056  0.00183663  0.25216078  1
  Mg  Mg33  1  0.49885834  0.00048987  0.24743436  1
  Mg  Mg34  1  0.49950473  0.49756252  0.74868113  1
  Mg  Mg35  1  0.00244200  0.74970916  0.75138284  1
  Mg  Mg36  1  0.83551465  0.00120516  0.74750803  1
  Mg  Mg37  1  0.83348791  0.49793898  0.74986983  1
  Mg  Mg38  1  0.49829964  0.49889513  0.24497827  1
  Mg  Mg39  1  0.66627924  0.25445433  0.24624730  1
  Mg  Mg40  1  0.50044480  0.00194024  0.74965416  1
  Mg  Mg41  1  0.17205837  0.50028864  0.24921696  1
  Mg  Mg42  1  0.66497857  0.74766862  0.75004151  1
  Mg  Mg43  1  0.16616337  -0.00192004  0.75615061  1
  Mg  Mg44  1  0.33429506  0.25347859  0.24777493  1
  Mg  Mg45  1  0.00242747  0.25120017  0.25192616  1
  Mg  Mg46  1  0.33041175  0.74787537  0.75222807  1
  Mg  Mg47  1  0.00197452  0.74998456  0.25495679  1
  Mg  Mg48  1  0.33256700  0.24826158  0.74962958  1
  Mg  Mg49  1  0.66852432  0.75132935  0.24898679  1
  Mg  Mg50  1  0.16613183  0.50285929  0.74947156  1
  Mg  Mg51  1  0.32882235  0.75000456  0.25018120  1
  Mg  Mg52  1  0.16540354  -0.00230729  0.25771961  1
  Mg  Mg53  1  0.83671611  0.33072454  0.74871863  1
  Mg  Mg54  1  0.83699446  0.16729054  0.74571417  1
  Mg  Mg55  1  0.83422298  0.33861876  0.24801741  1
  Mg  Mg56  1  0.66657372  0.41970409  0.24497174  1
  Mg  Mg57  1  0.83344612  0.83428849  0.74864002  1
  Mg  Mg58  1  0.83318169  0.66458384  0.75070015  1
  Mg  Mg59  1  0.66639844  0.08543888  0.24845481  1
  Mg  Mg60  1  0.33166548  0.58246785  0.25095425  1
  Mg  Mg61  1  0.49810313  0.66575440  0.24809748  1
  Mg  Mg62  1  0.00138973  0.41451666  0.75040159  1
  Mg  Mg63  1  0.00021145  0.58253384  0.25158026  1
  Mg  Mg64  1  -0.00023413  0.91585220  0.75068864  1
  Mg  Mg65  1  0.16663477  0.83076848  0.75388584  1
  Mg  Mg66  1  0.66639117  0.91540835  0.74637490  1
  Mg  Mg67  1  0.33126382  0.58352709  0.75051137  1
  Mg  Mg68  1  0.49933820  0.83450178  0.24770344  1
  Mg  Mg69  1  0.50035034  0.16364821  0.74908508  1
  Mg  Mg70  1  0.00296298  0.08452740  0.25496002  1
  Mg  Mg71  1  0.33120551  0.08448161  0.25079822  1
  Mg  Mg72  1  0.49637205  0.33741463  0.24419731  1
  Mg  Mg73  1  0.66704351  0.08603270  0.74723293  1
  Mg  Mg74  1  0.50052357  0.83350333  0.75076390  1
  Mg  Mg75  1  0.16454610  0.33307665  0.75069604  1
  Mg  Mg76  1  0.00101714  0.91488147  0.25887477  1
  Mg  Mg77  1  0.33291232  0.41488286  0.74806227  1
  Mg  Mg78  1  -0.00091288  0.08588382  0.74967709  1
  Mg  Mg79  1  0.33386901  0.08314943  0.75262419  1
  Mg  Mg80  1  0.16824464  0.16537341  0.25404168  1
  Mg  Mg81  1  0.66733892  0.58392052  0.24597858  1
  Mg  Mg82  1  0.17179115  0.33576210  0.24721636  1
  Mg  Mg83  1  0.66480335  0.58325967  0.75048053  1
  Mg  Mg84  1  0.16328638  0.16666426  0.75410253  1
  Mg  Mg85  1  0.33006218  0.91452618  0.25080162  1
  Mg  Mg86  1  0.50031943  0.33228372  0.74650587  1
  Mg  Mg87  1  0.66472882  0.41502886  0.74690474  1
  Mg  Mg88  1  0.00184504  0.58497491  0.75009502  1
  Mg  Mg89  1  0.49766443  0.16803781  0.24540277  1
  Mg  Mg90  1  0.00185750  0.41834056  0.25021566  1
  Mg  Mg91  1  0.49965823  0.66437887  0.75090494  1
  Mg  Mg92  1  0.33438678  0.91446600  0.75556209  1
  Mg  Mg93  1  0.83425213  0.16891862  0.25166658  1
  Mg  Mg94  1  0.83289009  0.66402897  0.25154959  1
  Mg  Mg95  1  0.16895678  0.66716067  0.25170650  1
  Fe  Fe96  1  0.97957422  0.82674759  0.39807142  1
  Fe  Fe97  1  0.52460071  0.41713971  0.10411803  1
  Fe  Fe98  1  0.47304367  0.08386120  0.89192038  1
  Fe  Fe99  1  0.64079161  0.66509979  0.88967332  1
  Fe  Fe100  1  0.14316068  0.08697383  0.39549836  1
  Fe  Fe101  1  0.14465398  0.91264042  0.89347075  1
  Fe  Fe102  1  0.52096054  0.91861382  0.10676376  1
  Fe  Fe103  1  0.52627495  0.08339633  0.60652871  1
  Fe  Fe104  1  0.51927627  0.41506571  0.60591683  1
  Fe  Fe105  1  0.85721464  0.91272091  0.60838087  1
  Fe  Fe106  1  0.18853925  0.58544776  0.10944513  1
  Fe  Fe107  1  0.85969393  0.08692870  0.60602296  1
  Fe  Fe108  1  0.97564923  0.16710352  0.88919271  1
  Fe  Fe109  1  0.31018088  0.66752415  0.39303184  1
  Fe  Fe110  1  0.80543437  0.92031250  0.39418524  1
  Fe  Fe111  1  0.35267320  0.33120949  0.10556162  1
  Fe  Fe112  1  0.69596336  0.66800946  0.10932897  1
  Si  Si113  1  0.52306579  0.09126686  0.11070061  1
  Si  Si114  1  0.14368789  0.08246302  0.89060833  1
  Si  Si115  1  0.47850321  0.41632431  0.38250552  1
  Si  Si116  1  0.30179454  0.17088657  0.88795754  1
  Si  Si117  1  0.31328857  0.82412396  0.89012780  1
  Si  Si118  1  0.97792091  0.33702231  0.88667824  1
  Si  Si119  1  0.19248326  0.41864584  0.61314551  1
  Si  Si120  1  0.68922424  0.82369860  0.61209745  1
  Si  Si121  1  0.47000639  0.57887136  0.88664775  1
  Si  Si122  1  0.30857641  0.66103378  0.88482532  1
  Si  Si123  1  0.02508578  0.66535254  0.61520692  1
  Si  Si124  1  0.80382899  0.58158388  0.38444569  1
  Si  Si125  1  0.35493297  0.66962883  0.61572129  1
  Si  Si126  1  0.80944872  0.41392031  0.88424033  1
  Si  Si127  1  0.52058780  0.58774631  0.11044858  1
  Si  Si128  1  0.35807460  0.66825109  0.11318368  1
  Si  Si129  1  0.64453656  0.83424334  0.88445374  1
  Si  Si130  1  0.69414074  0.17119944  0.11407422  1
  Si  Si131  1  0.69444610  0.83524941  0.10737197  1
  Si  Si132  1  0.64236740  0.33392753  0.88344024  1
  Si  Si133  1  0.86257881  0.92276611  0.11718932  1
  Si  Si134  1  0.63995928  0.16745256  0.88673324  1
  Si  Si135  1  0.19403229  0.07999113  0.61897819  1
  Si  Si136  1  0.86391550  0.41591397  0.61312692  1
  Si  Si137  1  0.97308960  0.66583792  0.88617677  1
  Si  Si138  1  0.34994848  0.16332077  0.11230261  1
  Si  Si139  1  0.80427947  0.08443639  0.88632144  1
  Si  Si140  1  0.14122971  0.42238097  0.88516024  1
  Si  Si141  1  0.85887998  0.58249209  0.61362861  1
  Si  Si142  1  0.35788075  0.83320772  0.61759370  1
  Si  Si143  1  0.19211783  0.58283185  0.61483155  1
  Si  Si144  1  0.19026275  0.07767684  0.11744544  1
  Si  Si145  1  0.80524811  0.41708773  0.38337212  1
  Si  Si146  1  0.63155552  0.83111191  0.38710063  1
  Si  Si147  1  0.02081452  0.83583578  0.12011004  1
  Si  Si148  1  0.96779307  0.83204184  0.88886704  1
  Si  Si149  1  0.02522773  0.67233925  0.11600543  1
  Si  Si150  1  0.86932878  0.41432027  0.11437709  1
  Si  Si151  1  0.86685644  0.58051617  0.11463586  1
  Si  Si152  1  0.81064199  0.57812016  0.88690246  1
  Si  Si153  1  0.31368082  0.33416217  0.38344937  1
  Si  Si154  1  0.19616690  0.91557265  0.61952643  1
  Si  Si155  1  0.47527329  0.08422037  0.38238310  1
  Si  Si156  1  0.80351974  0.91896510  0.88343539  1
  Si  Si157  1  0.03298316  0.83046488  0.61460616  1
  Si  Si158  1  0.64219071  0.33269875  0.38333831  1
  Si  Si159  1  0.96978197  0.17409756  0.38910224  1
  Si  Si160  1  0.47714954  0.91108719  0.88743284  1
  Si  Si161  1  0.47873350  0.58001134  0.38717926  1
  Si  Si162  1  0.64030956  0.66640765  0.38498624  1
  Si  Si163  1  0.69611565  0.17217561  0.60764839  1
  Si  Si164  1  0.02680185  0.16461938  0.11673092  1
  Si  Si165  1  0.85959124  0.08554484  0.11660177  1
  Si  Si166  1  0.35127670  0.32767126  0.61140660  1
  Si  Si167  1  0.14699867  0.41315290  0.38481754  1
  Si  Si168  1  0.35357892  0.16497175  0.61366266  1
  Si  Si169  1  0.69642231  0.34104093  0.61066991  1
  Si  Si170  1  0.63801299  0.16895601  0.38164968  1
  Si  Si171  1  0.80637012  0.09129673  0.38657838  1
  Si  Si172  1  0.03045912  0.33497299  0.61480933  1
  Si  Si173  1  0.52394970  0.91035245  0.61170611  1
  Si  Si174  1  0.47583797  0.41354859  0.88434775  1
  Si  Si175  1  0.14052835  0.57761984  0.38852228  1
  Si  Si176  1  0.02980511  0.32869443  0.11476583  1
  Si  Si177  1  0.51652919  0.58441432  0.61170350  1
  Si  Si178  1  0.31398007  0.17134150  0.38826886  1
  Si  Si179  1  0.97580577  0.33934667  0.38538299  1
  Si  Si180  1  0.68856853  0.65899762  0.61418319  1
  Si  Si181  1  0.31247037  0.83659391  0.38906585  1
  Si  Si182  1  0.18608773  0.91468926  0.12009541  1
  Si  Si183  1  0.18478297  0.41835924  0.10930864  1
  Si  Si184  1  0.14053889  0.58659840  0.88428387  1
  Si  Si185  1  0.03412277  0.16733057  0.61306328  1
  Si  Si186  1  0.35082326  0.83322831  0.11299521  1
  Si  Si187  1  0.47078220  0.91942760  0.38470872  1
  Si  Si188  1  0.14640790  0.91780636  0.39568448  1
  Si  Si189  1  0.70049874  0.33711689  0.10931948  1
  Si  Si190  1  0.30611317  0.33685513  0.88407327  1
  Si  Si191  1  0.97545515  0.65496312  0.39018892  1
  O  O192  1  0.27480903  0.10203685  0.08824766  1
  O  O193  1  0.27707638  0.10625481  0.58898207  1
  O  O194  1  0.28659776  0.61315992  0.07687931  1
  O  O195  1  0.27141190  0.62050034  0.58593798  1
  O  O196  1  0.60438726  0.13151753  0.08501474  1
  O  O197  1  0.61458751  0.12569487  0.57122538  1
  O  O198  1  0.60053912  0.61229589  0.07732961  1
  O  O199  1  0.60402610  0.61123209  0.58578787  1
  O  O200  1  0.94013266  0.12010802  0.08686623  1
  O  O201  1  0.95563404  0.12303971  0.57355086  1
  O  O202  1  0.94772161  0.61664031  0.08610352  1
  O  O203  1  0.93621571  0.62195157  0.58418519  1
  O  O204  1  0.11015179  0.35617872  0.08368225  1
  O  O205  1  0.10532840  0.37537538  0.58219042  1
  O  O206  1  0.10344074  0.86520492  0.09005892  1
  O  O207  1  0.12101994  0.85889250  0.59104084  1
  O  O208  1  0.44394509  0.35238442  0.06494563  1
  O  O209  1  0.42896730  0.35060009  0.57553872  1
  O  O210  1  0.42229177  0.86434784  0.07408864  1
  O  O211  1  0.44078033  0.85742822  0.58705400  1
  O  O212  1  0.78709986  0.36514742  0.08348534  1
  O  O213  1  0.78176289  0.36845733  0.58055186  1
  O  O214  1  0.78013038  0.87504256  0.08657500  1
  O  O215  1  0.76790396  0.84695421  0.57886520  1
  O  O216  1  0.26399183  0.39604303  0.07452489  1
  O  O217  1  0.26987910  0.38132350  0.58340067  1
  O  O218  1  0.26373761  0.88097931  0.08748715  1
  O  O219  1  0.27991480  0.88840486  0.58955323  1
  O  O220  1  0.62539072  0.38758917  0.07355265  1
  O  O221  1  0.61998319  0.39227373  0.57480910  1
  O  O222  1  0.61520805  0.88551050  0.07293925  1
  O  O223  1  0.60244877  0.86960301  0.58438965  1
  O  O224  1  0.94758155  0.37759172  0.08344226  1
  O  O225  1  0.94369217  0.38015948  0.58361351  1
  O  O226  1  0.94266186  0.88917275  0.08624613  1
  O  O227  1  0.95725936  0.88067601  0.58030169  1
  O  O228  1  0.10749772  0.12916436  0.08848784  1
  O  O229  1  0.11969311  0.13605818  0.58692776  1
  O  O230  1  0.10311124  0.65322818  0.07857276  1
  O  O231  1  0.10243678  0.62406970  0.58628999  1
  O  O232  1  0.43761910  0.14047104  0.08553430  1
  O  O233  1  0.43046862  0.14269585  0.57688222  1
  O  O234  1  0.44690595  0.65004811  0.08699523  1
  O  O235  1  0.43947689  0.64372776  0.58699183  1
  O  O236  1  0.77327347  0.13131946  0.08650544  1
  O  O237  1  0.77660045  0.15515193  0.57240700  1
  O  O238  1  0.78359370  0.62037180  0.07633350  1
  O  O239  1  0.76874047  0.62318453  0.58419880  1
  O  O240  1  0.04774419  0.12684076  0.42620062  1
  O  O241  1  0.06293305  0.10280031  0.92452167  1
  O  O242  1  0.05232223  0.59634588  0.41602246  1
  O  O243  1  0.06089093  0.62172632  0.91424065  1
  O  O244  1  0.39709395  0.11897263  0.41392766  1
  O  O245  1  0.37916166  0.12228846  0.92448160  1
  O  O246  1  0.40577751  0.60966264  0.42524423  1
  O  O247  1  0.38143200  0.60110454  0.91253174  1
  O  O248  1  0.72133967  0.12270721  0.41243634  1
  O  O249  1  0.72049139  0.11377702  0.91535458  1
  O  O250  1  0.72926535  0.62395220  0.41569569  1
  O  O251  1  0.73353807  0.60525652  0.92064847  1
  O  O252  1  0.23169794  0.36515494  0.41491712  1
  O  O253  1  0.22713955  0.37530104  0.91281464  1
  O  O254  1  0.22977778  0.86484669  0.41813849  1
  O  O255  1  0.23604277  0.84968558  0.92519683  1
  O  O256  1  0.56372485  0.36879143  0.41377729  1
  O  O257  1  0.56009600  0.36523208  0.91394414  1
  O  O258  1  0.54587966  0.86250344  0.41417691  1
  O  O259  1  0.55876529  0.85808028  0.91208695  1
  O  O260  1  0.89861399  0.38071481  0.41419809  1
  O  O261  1  0.89318176  0.36682567  0.91538987  1
  O  O262  1  0.89073995  0.86110365  0.43479523  1
  O  O263  1  0.88162538  0.86416170  0.91335107  1
  O  O264  1  0.06520591  0.38066550  0.41490539  1
  O  O265  1  0.05886454  0.39258435  0.91387696  1
  O  O266  1  0.07415681  0.88402803  0.43289214  1
  O  O267  1  0.04719505  0.87861661  0.92546921  1
  O  O268  1  0.39602738  0.38520135  0.41188921  1
  O  O269  1  0.39327602  0.38131217  0.91225436  1
  O  O270  1  0.38804838  0.89663088  0.41653395  1
  O  O271  1  0.39794322  0.87291040  0.91563949  1
  O  O272  1  0.73142315  0.37388344  0.41495592  1
  O  O273  1  0.72706676  0.38274837  0.91325719  1
  O  O274  1  0.70694859  0.88215383  0.42205925  1
  O  O275  1  0.71835649  0.89419091  0.91140732  1
  O  O276  1  0.23778402  0.14728874  0.42515808  1
  O  O277  1  0.21505149  0.14657138  0.91363664  1
  O  O278  1  0.21585184  0.62836492  0.42577936  1
  O  O279  1  0.22306286  0.63611900  0.91298551  1
  O  O280  1  0.55819862  0.13378651  0.41053524  1
  O  O281  1  0.56432600  0.14475844  0.92540141  1
  O  O282  1  0.56715965  0.62375460  0.41703192  1
  O  O283  1  0.54352281  0.63263067  0.92048988  1
  O  O284  1  0.88016900  0.15228577  0.41174056  1
  O  O285  1  0.88121648  0.13312344  0.92371143  1
  O  O286  1  0.89363122  0.61843602  0.41823236  1
  O  O287  1  0.89756123  0.62415117  0.91522108  1
  O  O288  1  0.16547298  -0.00344132  0.08890796  1
  O  O289  1  0.17224421  -0.00266606  0.59142001  1
  O  O290  1  0.14682655  0.49460087  0.07800731  1
  O  O291  1  0.18136563  0.50096880  0.58302878  1
  O  O292  1  0.50795856  0.01484830  0.07413753  1
  O  O293  1  0.50547853  -0.01295752  0.57531536  1
  O  O294  1  0.48693156  0.51091910  0.07811066  1
  O  O295  1  0.48678931  0.50948759  0.57566608  1
  O  O296  1  0.84657786  0.00482864  0.08458593  1
  O  O297  1  0.82354427  -0.00091016  0.56948603  1
  O  O298  1  0.86096136  0.49621823  0.08500613  1
  O  O299  1  0.85262294  0.49952019  0.58407794  1
  O  O300  1  0.01089453  0.24611284  0.08644384  1
  O  O301  1  0.02467079  0.25287231  0.58576418  1
  O  O302  1  -0.00472837  0.75492648  0.09036826  1
  O  O303  1  0.01944647  0.74691528  0.58561942  1
  O  O304  1  0.31410862  0.23683854  0.07719378  1
  O  O305  1  0.31803025  0.24594719  0.58795873  1
  O  O306  1  0.32860822  0.75020681  0.08676178  1
  O  O307  1  0.33186014  0.75182255  0.58900324  1
  O  O308  1  0.68860946  0.25259103  0.08266471  1
  O  O309  1  0.67251325  0.25825892  0.58724679  1
  O  O310  1  0.68623492  0.75830417  0.06777256  1
  O  O311  1  0.66671232  0.73986058  0.58566789  1
  O  O312  1  0.17396914  -0.00383291  0.42974553  1
  O  O313  1  0.18196420  0.00566881  0.92071621  1
  O  O314  1  0.16348646  0.49384320  0.41596626  1
  O  O315  1  0.15831103  0.50456722  0.91451137  1
  O  O316  1  0.49488760  0.00242002  0.41176649  1
  O  O317  1  0.49543014  -0.01155159  0.92225814  1
  O  O318  1  0.49864409  0.49651946  0.41456105  1
  O  O319  1  0.49206933  0.49560053  0.91305017  1
  O  O320  1  0.83177603  0.01685429  0.42351394  1
  O  O321  1  0.82430804  0.00016592  0.91302860  1
  O  O322  1  0.80720613  0.49844425  0.41530326  1
  O  O323  1  0.83186067  0.49514158  0.91328868  1
  O  O324  1  0.34033182  0.25404525  0.41466307  1
  O  O325  1  0.31746978  0.25553312  0.91381191  1
  O  O326  1  0.34003654  0.76075594  0.42621759  1
  O  O327  1  0.33830319  0.74050790  0.91487136  1
  O  O328  1  0.65126168  0.25050243  0.41308229  1
  O  O329  1  0.66569592  0.25206452  0.91096556  1
  O  O330  1  0.64585797  0.74741974  0.41798424  1
  O  O331  1  0.67682746  0.75796816  0.91637783  1
  O  O332  1  0.98496141  0.25840127  0.41678567  1
  O  O333  1  1.00254644  0.26131912  0.92299514  1
  O  O334  1  0.99899092  0.72942772  0.42878696  1
  O  O335  1  0.97886602  0.74748801  0.91642681  1
  O  O336  1  0.20883913  0.08257021  0.19769176  1
  O  O337  1  0.21071691  0.08145891  0.69959330  1
  O  O338  1  0.21010672  0.58339053  0.20065616  1
  O  O339  1  0.21145461  0.58009565  0.69441280  1
  O  O340  1  0.54199943  0.08816013  0.19161955  1
  O  O341  1  0.54567309  0.08211685  0.69798149  1
  O  O342  1  0.54139696  0.58472602  0.19229257  1
  O  O343  1  0.53774607  0.58193086  0.69261340  1
  O  O344  1  0.87954094  0.08900284  0.19687294  1
  O  O345  1  0.87957706  0.08152107  0.69820921  1
  O  O346  1  0.88153659  0.58176174  0.19463400  1
  O  O347  1  0.87611706  0.58255244  0.69413574  1
  O  O348  1  0.04511725  0.33142176  0.19534748  1
  O  O349  1  0.04814239  0.33978153  0.69411045  1
  O  O350  1  0.03896287  0.83580438  0.19931717  1
  O  O351  1  0.04480709  0.82946207  0.69547778  1
  O  O352  1  0.37803667  0.33054165  0.19669924  1
  O  O353  1  0.37170923  0.33297379  0.69252327  1
  O  O354  1  0.37264272  0.83430252  0.19386448  1
  O  O355  1  0.37633027  0.83223959  0.69811395  1
  O  O356  1  0.71357068  0.33571254  0.19055075  1
  O  O357  1  0.71794911  0.34637088  0.69043382  1
  O  O358  1  0.70254115  0.82520054  0.18583571  1
  O  O359  1  0.70780163  0.82798862  0.69340138  1
  O  O360  1  0.20280001  0.41667167  0.19019498  1
  O  O361  1  0.20887598  0.41793832  0.69365368  1
  O  O362  1  0.20840629  0.91949388  0.19955056  1
  O  O363  1  0.21442958  0.91509553  0.69986451  1
  O  O364  1  0.54653311  0.41628488  0.19668909  1
  O  O365  1  0.54209026  0.41670885  0.69770087  1
  O  O366  1  0.53142609  0.91871905  0.19672188  1
  O  O367  1  0.54188635  0.91380143  0.69294753  1
  O  O368  1  0.88457938  0.41216980  0.19398843  1
  O  O369  1  0.88061850  0.41837489  0.69337481  1
  O  O370  1  0.88381034  0.92834364  0.19605361  1
  O  O371  1  0.87888614  0.91426626  0.70124889  1
  O  O372  1  0.04331096  0.16739070  0.19699688  1
  O  O373  1  0.04943059  0.16416472  0.69300121  1
  O  O374  1  0.04497991  0.66649170  0.19665024  1
  O  O375  1  0.03816952  0.66487399  0.69482757  1
  O  O376  1  0.37204302  0.16537031  0.19365602  1
  O  O377  1  0.37256115  0.16570699  0.69463257  1
  O  O378  1  0.37535568  0.66643836  0.19410189  1
  O  O379  1  0.37457709  0.66583075  0.69608128  1
  O  O380  1  0.71179537  0.17201106  0.19457068  1
  O  O381  1  0.71540957  0.15972203  0.68756088  1
  O  O382  1  0.71226767  0.66601936  0.20054544  1
  O  O383  1  0.71149901  0.66136755  0.69445333  1
  O  O384  1  0.12320857  0.08653224  0.30367913  1
  O  O385  1  0.12417619  0.08262163  0.80871176  1
  O  O386  1  0.12402020  0.57984104  0.30813509  1
  O  O387  1  0.12078472  0.58183202  0.80458463  1
  O  O388  1  0.45466269  0.08588951  0.30204942  1
  O  O389  1  0.45287951  0.08279259  0.80031212  1
  O  O390  1  0.45881969  0.58295554  0.30659968  1
  O  O391  1  0.45483646  0.58040748  0.80517012  1
  O  O392  1  0.78930560  0.09054140  0.30546411  1
  O  O393  1  0.78774043  0.08372977  0.80555336  1
  O  O394  1  0.78771867  0.58095081  0.30540534  1
  O  O395  1  0.79225604  0.58140602  0.80564334  1
  O  O396  1  0.28878062  0.33067717  0.30437458  1
  O  O397  1  0.28827720  0.33583446  0.80341491  1
  O  O398  1  0.29733714  0.83390697  0.30900101  1
  O  O399  1  0.29210239  0.82920149  0.80898403  1
  O  O400  1  0.62631267  0.33394588  0.30326376  1
  O  O401  1  0.62023530  0.33948811  0.80428567  1
  O  O402  1  0.61565875  0.82551129  0.30762011  1
  O  O403  1  0.62427277  0.83296282  0.80304405  1
  O  O404  1  0.95819750  0.33610429  0.30529339  1
  O  O405  1  0.95738299  0.33994764  0.80653919  1
  O  O406  1  0.96657324  0.83100441  0.30827346  1
  O  O407  1  0.95550914  0.83018966  0.80807205  1
  O  O408  1  0.12620128  0.41334194  0.30474417  1
  O  O409  1  0.12438576  0.42010243  0.80451335  1
  O  O410  1  0.12231614  0.92266098  0.31522671  1
  O  O411  1  0.12164676  0.91312478  0.80170471  1
  O  O412  1  0.46313386  0.41665559  0.30355176  1
  O  O413  1  0.45468469  0.41446362  0.80375890  1
  O  O414  1  0.45296531  0.91902036  0.30464815  1
  O  O415  1  0.45789869  0.91414935  0.80609725  1
  O  O416  1  0.78762607  0.41383867  0.30403955  1
  O  O417  1  0.79121532  0.41576355  0.80374463  1
  O  O418  1  0.79373778  0.92790512  0.30647982  1
  O  O419  1  0.78725178  0.91582152  0.80304802  1
  O  O420  1  0.29237146  0.16849337  0.30721394  1
  O  O421  1  0.28892818  0.16833918  0.80673391  1
  O  O422  1  0.29122965  0.66687653  0.30237740  1
  O  O423  1  0.29273163  0.66360553  0.80494193  1
  O  O424  1  0.62179839  0.17129808  0.30129816  1
  O  O425  1  0.61874867  0.16166126  0.80705180  1
  O  O426  1  0.62011222  0.66469295  0.30516813  1
  O  O427  1  0.62047138  0.66478002  0.79743810  1
  O  O428  1  0.95773085  0.17195505  0.30792658  1
  O  O429  1  0.95638583  0.16681870  0.79916962  1
  O  O430  1  0.95723973  0.66022744  0.30978102  1
  O  O431  1  0.95559488  0.66510210  0.80547826  1
  F  F432  1  0.04561623  0.00064018  0.20630029  1
  F  F433  1  0.04720907  0.00017575  0.70374818  1
  F  F434  1  0.04752040  0.49922290  0.20343497  1
  F  F435  1  0.04463101  0.50075511  0.70040873  1
  F  F436  1  0.37408571  0.00161807  0.20268101  1
  F  F437  1  0.37620780  -0.00423153  0.70330885  1
  F  F438  1  0.37936859  0.50415954  0.20159249  1
  F  F439  1  0.37624629  0.49970253  0.70169377  1
  F  F440  1  0.71817199  0.01612043  0.19581261  1
  F  F441  1  0.71153318  -0.00187572  0.70104845  1
  F  F442  1  0.71028556  0.50014686  0.19838294  1
  F  F443  1  0.71319591  0.50241605  0.70205349  1
  F  F444  1  0.21016174  0.24721896  0.20286683  1
  F  F445  1  0.21127998  0.25044361  0.70283975  1
  F  F446  1  0.21039262  0.75067475  0.20254099  1
  F  F447  1  0.21346715  0.75193154  0.70294613  1
  F  F448  1  0.54630070  0.25106159  0.19894420  1
  F  F449  1  0.53016405  0.24849662  0.69702203  1
  F  F450  1  0.54311534  0.74899236  0.20127099  1
  F  F451  1  0.54217807  0.74989884  0.70047881  1
  F  F452  1  0.88121215  0.25158648  0.20318563  1
  F  F453  1  0.87780072  0.25439523  0.69592007  1
  F  F454  1  0.88558746  0.73825965  0.20292922  1
  F  F455  1  0.87936111  0.74701400  0.70312881  1
  F  F456  1  0.28954883  0.00177232  0.30088621  1
  F  F457  1  0.28994660  -0.00122643  0.80165577  1
  F  F458  1  0.28862904  0.49902459  0.30121104  1
  F  F459  1  0.28721200  0.49807724  0.79755410  1
  F  F460  1  0.61409781  0.01498737  0.29991233  1
  F  F461  1  0.62214967  -0.00400345  0.79633067  1
  F  F462  1  0.62246655  0.50151146  0.29664186  1
  F  F463  1  0.62161596  0.50067101  0.79736207  1
  F  F464  1  0.95540122  0.00622661  0.30220631  1
  F  F465  1  0.95675040  -0.00118824  0.80078188  1
  F  F466  1  0.96130884  0.49711450  0.30093275  1
  F  F467  1  0.95527452  0.50117132  0.79662932  1
  F  F468  1  0.12255635  0.25227475  0.29925369  1
  F  F469  1  0.12641741  0.25295492  0.80010746  1
  F  F470  1  0.12138049  0.74349975  0.30290676  1
  F  F471  1  0.11908681  0.74938932  0.80110657  1
  F  F472  1  0.45752994  0.24903862  0.29664162  1
  F  F473  1  0.45193855  0.25168718  0.79764335  1
  F  F474  1  0.45265339  0.74974928  0.29531324  1
  F  F475  1  0.45450660  0.74848936  0.79736008  1
  F  F476  1  0.78814995  0.25480024  0.29620562  1
  F  F477  1  0.79924452  0.25030300  0.79803345  1
  F  F478  1  0.78350419  0.73949597  0.30613019  1
  F  F479  1  0.78767651  0.74786311  0.79624120  1
