# generated using pymatgen
data_K24Na3Li5Mg64Fe17Si79(O5F)48
_symmetry_space_group_name_H-M   'P 1'
_cell_length_a   16.09659108
_cell_length_b   18.59288343
_cell_length_c   20.55833982
_cell_angle_alpha   89.98935351
_cell_angle_beta   100.01524716
_cell_angle_gamma   90.02523563
_symmetry_Int_Tables_number   1
_chemical_formula_structural   K24Na3Li5Mg64Fe17Si79(O5F)48
_chemical_formula_sum   'K24 Na3 Li5 Mg64 Fe17 Si79 O240 F48'
_cell_volume   6058.98278151
_cell_formula_units_Z   1
loop_
 _symmetry_equiv_pos_site_id
 _symmetry_equiv_pos_as_xyz
  1  'x, y, z'
loop_
 _atom_site_type_symbol
 _atom_site_label
 _atom_site_symmetry_multiplicity
 _atom_site_fract_x
 _atom_site_fract_y
 _atom_site_fract_z
 _atom_site_occupancy
  K  K0  1  -0.00414277  -0.00264577  -0.00848086  1
  K  K1  1  -0.01419892  0.00013424  0.50573929  1
  K  K2  1  0.00167537  0.50405070  0.00173150  1
  K  K3  1  0.00152121  0.50115895  0.49911575  1
  K  K4  1  0.32805566  -0.00728020  -0.01214762  1
  K  K5  1  0.33623104  -0.00621650  0.50751839  1
  K  K6  1  0.32437022  0.50906767  -0.00173093  1
  K  K7  1  0.33603545  0.49573928  0.50776515  1
  K  K8  1  0.67006539  0.00236672  -0.00176019  1
  K  K9  1  0.68394954  -0.00433505  0.50915640  1
  K  K10  1  0.67541407  0.51160291  0.00078572  1
  K  K11  1  0.66225632  0.50713507  0.50165076  1
  K  K12  1  0.16011414  0.25650994  -0.00001256  1
  K  K13  1  0.16038793  0.25687877  0.50262745  1
  K  K14  1  0.15741855  0.74793896  -0.01479579  1
  K  K15  1  0.16440028  0.73583753  0.51157015  1
  K  K16  1  0.50395526  0.25109271  -0.00322108  1
  K  K17  1  0.50016765  0.24623037  0.50926969  1
  K  K18  1  0.50670441  0.74284257  -0.01145360  1
  K  K19  1  0.50193789  0.75354539  0.50876225  1
  K  K20  1  0.83803900  0.24971785  0.00607977  1
  K  K21  1  0.83679447  0.24869540  0.49666041  1
  K  K22  1  0.82578351  0.74272314  -0.00496969  1
  K  K23  1  0.84187080  0.76274888  0.50388196  1
  Na  Na24  1  0.67267520  0.25364693  0.25132715  1
  Na  Na25  1  0.50283519  0.83153249  0.24984662  1
  Na  Na26  1  0.49868219  0.16835650  0.74045591  1
  Li  Li27  1  0.32521896  0.74348390  0.75042370  1
  Li  Li28  1  0.66222860  0.75000099  0.75168908  1
  Li  Li29  1  0.17331691  0.66610552  0.75526618  1
  Li  Li30  1  0.00115404  0.08118555  0.74894354  1
  Li  Li31  1  0.83405945  0.33409342  0.25403248  1
  Mg  Mg32  1  0.16339058  -0.00107734  0.75155714  1
  Mg  Mg33  1  0.00277487  0.74961246  0.75573079  1
  Mg  Mg34  1  -0.00439585  0.25161111  0.24887597  1
  Mg  Mg35  1  0.33579277  0.24818177  0.74550885  1
  Mg  Mg36  1  0.83249869  0.00073155  0.25040019  1
  Mg  Mg37  1  0.33642555  0.75091682  0.25011348  1
  Mg  Mg38  1  0.83380000  0.49713237  0.24920484  1
  Mg  Mg39  1  0.50010714  0.00021566  0.74801841  1
  Mg  Mg40  1  0.83824220  0.00092394  0.74835300  1
  Mg  Mg41  1  0.00185794  0.24704866  0.75036409  1
  Mg  Mg42  1  0.49770593  0.49855364  0.24859808  1
  Mg  Mg43  1  0.66699164  0.74883876  0.24918138  1
  Mg  Mg44  1  0.50262806  0.00157143  0.24912180  1
  Mg  Mg45  1  0.16824287  0.50243817  0.75212607  1
  Mg  Mg46  1  0.50017053  0.50200164  0.74822182  1
  Mg  Mg47  1  0.16342988  0.49901476  0.25065215  1
  Mg  Mg48  1  0.66737020  0.25003895  0.74514505  1
  Mg  Mg49  1  0.33132946  0.25039758  0.24799732  1
  Mg  Mg50  1  0.83361623  0.50083444  0.75243632  1
  Mg  Mg51  1  -0.00005998  0.74847555  0.25215089  1
  Mg  Mg52  1  0.16710918  -0.00069320  0.24902717  1
  Mg  Mg53  1  -0.00004888  0.58239975  0.25086969  1
  Mg  Mg54  1  0.33081461  0.08180399  0.74677970  1
  Mg  Mg55  1  0.16579720  0.16263154  0.75006429  1
  Mg  Mg56  1  0.66812529  0.41662295  0.25138232  1
  Mg  Mg57  1  0.66362434  0.41649315  0.74624179  1
  Mg  Mg58  1  0.32782115  0.41575978  0.24855724  1
  Mg  Mg59  1  0.33162551  0.58646633  0.75273813  1
  Mg  Mg60  1  0.50031844  0.66516559  0.24863023  1
  Mg  Mg61  1  0.66445215  0.58677618  0.74921395  1
  Mg  Mg62  1  0.49814910  0.33390702  0.24780733  1
  Mg  Mg63  1  0.66640734  0.58468084  0.24825153  1
  Mg  Mg64  1  0.49873771  0.67017803  0.74985402  1
  Mg  Mg65  1  0.16268073  0.33602140  0.24853160  1
  Mg  Mg66  1  0.00371227  0.58526510  0.75522835  1
  Mg  Mg67  1  0.83444252  0.16529179  0.74639350  1
  Mg  Mg68  1  0.49877167  0.83056752  0.75140783  1
  Mg  Mg69  1  0.83503576  0.16783596  0.24881789  1
  Mg  Mg70  1  0.49801399  0.33451425  0.74559124  1
  Mg  Mg71  1  0.83125122  0.83470525  0.24988467  1
  Mg  Mg72  1  0.00254171  0.41672994  0.75407350  1
  Mg  Mg73  1  0.33673574  0.91692915  0.24807027  1
  Mg  Mg74  1  0.66640403  0.91456968  0.74922113  1
  Mg  Mg75  1  0.16651587  0.66536405  0.25065089  1
  Mg  Mg76  1  0.33120351  0.91269860  0.75112204  1
  Mg  Mg77  1  -0.00174854  0.91518195  0.24994243  1
  Mg  Mg78  1  0.16533798  0.16514005  0.24783407  1
  Mg  Mg79  1  0.00046961  0.91730318  0.75328760  1
  Mg  Mg80  1  0.66886397  0.08694153  0.24934948  1
  Mg  Mg81  1  0.66769289  0.91595691  0.25078951  1
  Mg  Mg82  1  -0.00279211  0.41396364  0.24827853  1
  Mg  Mg83  1  0.16808481  0.83400221  0.24943433  1
  Mg  Mg84  1  0.83326709  0.33360494  0.74785277  1
  Mg  Mg85  1  0.33444387  0.41447265  0.74663762  1
  Mg  Mg86  1  0.66735661  0.08480826  0.74603978  1
  Mg  Mg87  1  0.33528375  0.08378534  0.24931749  1
  Mg  Mg88  1  0.16838458  0.82941461  0.75461883  1
  Mg  Mg89  1  0.83132194  0.83340113  0.75216155  1
  Mg  Mg90  1  0.83249445  0.66382647  0.24942179  1
  Mg  Mg91  1  0.50175098  0.16879582  0.24869713  1
  Mg  Mg92  1  -0.00213633  0.08360535  0.24852060  1
  Mg  Mg93  1  0.16843428  0.33315520  0.75125654  1
  Mg  Mg94  1  0.83149386  0.66806349  0.75555862  1
  Mg  Mg95  1  0.33185766  0.58501365  0.24926508  1
  Fe  Fe96  1  0.35624005  0.32742627  0.60426009  1
  Fe  Fe97  1  0.68877923  0.66664375  0.10934743  1
  Fe  Fe98  1  0.86614066  0.58097932  0.10913298  1
  Fe  Fe99  1  0.14322611  0.91341132  0.89338503  1
  Fe  Fe100  1  0.96738817  0.33494924  0.38967576  1
  Fe  Fe101  1  0.80592052  0.91677938  0.39011567  1
  Fe  Fe102  1  0.69123002  0.17000969  0.60635531  1
  Fe  Fe103  1  0.52720585  0.42082563  0.60749761  1
  Fe  Fe104  1  0.85448612  0.08427562  0.10931391  1
  Fe  Fe105  1  0.35441840  0.66829956  0.61271355  1
  Fe  Fe106  1  0.14814974  0.58710539  0.39145726  1
  Fe  Fe107  1  0.64016158  0.66925391  0.88762545  1
  Fe  Fe108  1  0.14528608  0.58508127  0.89311257  1
  Fe  Fe109  1  0.18513556  0.07909389  0.60956961  1
  Fe  Fe110  1  0.14330404  0.41593964  0.39191534  1
  Fe  Fe111  1  0.18811751  0.42160377  0.10694232  1
  Fe  Fe112  1  0.86194478  0.91499518  0.61263684  1
  Si  Si113  1  0.02200879  0.32779666  0.10962792  1
  Si  Si114  1  0.19323182  0.91586188  0.11336622  1
  Si  Si115  1  0.14467203  0.08632191  0.88949050  1
  Si  Si116  1  0.79794506  0.42106701  0.38977707  1
  Si  Si117  1  0.80981789  0.08577569  0.88455249  1
  Si  Si118  1  0.85544323  0.41114878  0.11041727  1
  Si  Si119  1  0.14346817  0.08036464  0.38411698  1
  Si  Si120  1  0.02394260  0.66333882  0.61977310  1
  Si  Si121  1  0.46476715  0.41564616  0.38372477  1
  Si  Si122  1  0.64125214  0.84060211  0.88759888  1
  Si  Si123  1  0.64118708  0.33107001  0.88426103  1
  Si  Si124  1  0.14682940  0.91426180  0.38486969  1
  Si  Si125  1  0.63124473  0.34025319  0.38508933  1
  Si  Si126  1  0.02434417  0.83623827  0.11467350  1
  Si  Si127  1  0.36018670  0.83578246  0.11340174  1
  Si  Si128  1  0.86367583  0.41898711  0.61750633  1
  Si  Si129  1  0.18813100  0.57837440  0.61597944  1
  Si  Si130  1  0.35916106  0.16630541  0.11377043  1
  Si  Si131  1  0.47507866  0.41437851  0.88541765  1
  Si  Si132  1  0.35880179  0.33190952  0.11117901  1
  Si  Si133  1  0.47715983  0.92207906  0.38377252  1
  Si  Si134  1  0.18795516  0.41608159  0.61477310  1
  Si  Si135  1  0.02726071  0.17272385  0.61472963  1
  Si  Si136  1  0.97996404  0.83291947  0.38787178  1
  Si  Si137  1  0.68998425  0.83039060  0.61509222  1
  Si  Si138  1  0.80781540  0.41218235  0.88477213  1
  Si  Si139  1  0.52756101  0.07619739  0.60977341  1
  Si  Si140  1  0.31566610  0.83866014  0.38424185  1
  Si  Si141  1  0.31036945  0.33066718  0.88509558  1
  Si  Si142  1  0.97455369  0.33101010  0.88574635  1
  Si  Si143  1  0.69751139  0.34062956  0.61014058  1
  Si  Si144  1  0.85423661  0.91315847  0.11196639  1
  Si  Si145  1  0.97553370  0.16713953  0.88448605  1
  Si  Si146  1  0.97205064  0.66589400  0.38893286  1
  Si  Si147  1  0.69614207  0.66489062  0.61706356  1
  Si  Si148  1  0.85938928  0.58359713  0.61794959  1
  Si  Si149  1  0.63530934  0.66391479  0.38592173  1
  Si  Si150  1  0.97879570  0.16373638  0.38693237  1
  Si  Si151  1  0.52122228  0.57747497  0.11250754  1
  Si  Si152  1  0.52487883  0.08700442  0.11262788  1
  Si  Si153  1  0.03229757  0.67231181  0.11372269  1
  Si  Si154  1  0.47416893  0.57881188  0.88912227  1
  Si  Si155  1  0.80370488  0.58591525  0.38757354  1
  Si  Si156  1  0.80537156  0.08862277  0.38702884  1
  Si  Si157  1  0.03045995  0.82635933  0.61642756  1
  Si  Si158  1  0.35410310  0.15605995  0.60723257  1
  Si  Si159  1  0.35369288  0.83706797  0.61528974  1
  Si  Si160  1  0.52232515  0.91220146  0.61449016  1
  Si  Si161  1  0.47562049  0.91956939  0.88627459  1
  Si  Si162  1  0.68533975  0.83476304  0.11199467  1
  Si  Si163  1  0.31137093  0.16697445  0.88548326  1
  Si  Si164  1  0.96708568  0.83245990  0.89064809  1
  Si  Si165  1  0.47501523  0.08323277  0.88323562  1
  Si  Si166  1  0.19636306  0.08155030  0.11333856  1
  Si  Si167  1  0.80486643  0.92136894  0.88591519  1
  Si  Si168  1  0.52246010  0.41446208  0.11372970  1
  Si  Si169  1  0.68909321  0.17096976  0.11105380  1
  Si  Si170  1  0.86285658  0.08773086  0.61132193  1
  Si  Si171  1  0.19556743  0.59341559  0.11292608  1
  Si  Si172  1  0.47924358  0.08429100  0.38490668  1
  Si  Si173  1  0.96990610  0.66622468  0.89109229  1
  Si  Si174  1  0.14424290  0.41213839  0.88904283  1
  Si  Si175  1  0.02437559  0.33506326  0.61844831  1
  Si  Si176  1  0.64337925  0.16628086  0.88326921  1
  Si  Si177  1  0.18780790  0.91273549  0.61574554  1
  Si  Si178  1  0.31097645  0.16151156  0.38340807  1
  Si  Si179  1  0.30598622  0.32476301  0.38474570  1
  Si  Si180  1  0.80739845  0.57786269  0.88800233  1
  Si  Si181  1  0.47004383  0.58136579  0.38393863  1
  Si  Si182  1  0.31314074  0.66599626  0.88979789  1
  Si  Si183  1  0.31310279  0.67546824  0.38604274  1
  Si  Si184  1  0.68886349  0.33804712  0.11528962  1
  Si  Si185  1  0.63919694  0.17270127  0.38402168  1
  Si  Si186  1  0.31497155  0.83085220  0.88929061  1
  Si  Si187  1  0.52656218  0.92373981  0.11402132  1
  Si  Si188  1  0.02966940  0.16152044  0.11083240  1
  Si  Si189  1  0.63898369  0.82921483  0.38786444  1
  Si  Si190  1  0.36358896  0.67022563  0.11345278  1
  Si  Si191  1  0.52540120  0.58961952  0.61021233  1
  O  O192  1  0.27780183  0.11480844  0.08485323  1
  O  O193  1  0.28382839  0.09685693  0.57521490  1
  O  O194  1  0.27844395  0.62516837  0.08436645  1
  O  O195  1  0.26239807  0.60620039  0.57828522  1
  O  O196  1  0.60111476  0.12433986  0.08152743  1
  O  O197  1  0.60187796  0.10634936  0.57304840  1
  O  O198  1  0.60043353  0.59989688  0.07959551  1
  O  O199  1  0.61585918  0.61429366  0.58593942  1
  O  O200  1  0.95210994  0.11231333  0.07557475  1
  O  O201  1  0.94958676  0.11787223  0.58683053  1
  O  O202  1  0.96311839  0.61671723  0.07784303  1
  O  O203  1  0.94005017  0.61461085  0.58753676  1
  O  O204  1  0.09118649  0.36707810  0.07292344  1
  O  O205  1  0.10752909  0.36097604  0.58959194  1
  O  O206  1  0.10504182  0.87284340  0.08624590  1
  O  O207  1  0.11951506  0.84732046  0.59116475  1
  O  O208  1  0.44680205  0.35684778  0.08569125  1
  O  O209  1  0.44555792  0.35843228  0.56573032  1
  O  O210  1  0.43941966  0.87674150  0.08714992  1
  O  O211  1  0.43623027  0.86773932  0.58385040  1
  O  O212  1  0.76784554  0.36490299  0.08070076  1
  O  O213  1  0.78943849  0.36278335  0.58725502  1
  O  O214  1  0.77323236  0.85931712  0.08609512  1
  O  O215  1  0.76261133  0.86328007  0.57836631  1
  O  O216  1  0.28216424  0.38082382  0.07465566  1
  O  O217  1  0.26374936  0.39097495  0.57847864  1
  O  O218  1  0.27174944  0.87940654  0.08306015  1
  O  O219  1  0.27602364  0.89436145  0.58783785  1
  O  O220  1  0.60513163  0.38786393  0.08314925  1
  O  O221  1  0.63318039  0.40443105  0.58191702  1
  O  O222  1  0.60884300  0.89423163  0.08471084  1
  O  O223  1  0.59993500  0.87283948  0.58535928  1
  O  O224  1  0.92841055  0.36240315  0.08244079  1
  O  O225  1  0.94922173  0.39317417  0.59082089  1
  O  O226  1  0.93914747  0.88186308  0.08492052  1
  O  O227  1  0.95424456  0.87595081  0.57881554  1
  O  O228  1  0.11530425  0.13111192  0.08352146  1
  O  O229  1  0.10577279  0.15198926  0.57879457  1
  O  O230  1  0.12341445  0.65535675  0.09051197  1
  O  O231  1  0.10306001  0.62847335  0.59055030  1
  O  O232  1  0.43935578  0.13385126  0.08372949  1
  O  O233  1  0.44370986  0.12653866  0.58537838  1
  O  O234  1  0.44050961  0.63108419  0.08448635  1
  O  O235  1  0.45517297  0.64897040  0.58013633  1
  O  O236  1  0.76182773  0.14344478  0.07139607  1
  O  O237  1  0.78878289  0.14168235  0.57558827  1
  O  O238  1  0.77999494  0.64183400  0.07153568  1
  O  O239  1  0.77743247  0.63274201  0.58583975  1
  O  O240  1  0.06242975  0.11075232  0.41317869  1
  O  O241  1  0.06544267  0.12875275  0.91642803  1
  O  O242  1  0.04943836  0.61715312  0.42438770  1
  O  O243  1  0.05705098  0.63078602  0.92757068  1
  O  O244  1  0.39354329  0.11079886  0.41189683  1
  O  O245  1  0.39940141  0.12311083  0.91561168  1
  O  O246  1  0.39561272  0.62361921  0.41324645  1
  O  O247  1  0.39313807  0.61146439  0.91879900  1
  O  O248  1  0.73032801  0.13601341  0.41403296  1
  O  O249  1  0.73189569  0.12393546  0.91523060  1
  O  O250  1  0.72424903  0.62354384  0.41662778  1
  O  O251  1  0.73321112  0.61037201  0.92171809  1
  O  O252  1  0.22591881  0.34242615  0.41789865  1
  O  O253  1  0.22903407  0.36161774  0.91520252  1
  O  O254  1  0.23407130  0.86988570  0.41346491  1
  O  O255  1  0.24219110  0.86063444  0.92862818  1
  O  O256  1  0.54944711  0.37025005  0.41554349  1
  O  O257  1  0.56256860  0.36840198  0.91406429  1
  O  O258  1  0.55494872  0.86761487  0.41070962  1
  O  O259  1  0.56379107  0.87978064  0.91866977  1
  O  O260  1  0.87211994  0.36923045  0.42518441  1
  O  O261  1  0.89497900  0.36769074  0.91443758  1
  O  O262  1  0.91036425  0.87267485  0.42251314  1
  O  O263  1  0.88783454  0.87397700  0.91754796  1
  O  O264  1  0.05163117  0.39524858  0.43162553  1
  O  O265  1  0.06355851  0.37160524  0.91538984  1
  O  O266  1  0.07156201  0.87394703  0.41421737  1
  O  O267  1  0.05248667  0.87102672  0.92815758  1
  O  O268  1  0.38574257  0.37932487  0.41157699  1
  O  O269  1  0.39726719  0.37518210  0.91556601  1
  O  O270  1  0.39403331  0.89314936  0.41332266  1
  O  O271  1  0.39998314  0.88122487  0.91777089  1
  O  O272  1  0.71040778  0.39255504  0.41573259  1
  O  O273  1  0.72990278  0.37357199  0.91468951  1
  O  O274  1  0.72254687  0.86754682  0.42744059  1
  O  O275  1  0.72409836  0.89223350  0.91685632  1
  O  O276  1  0.22935907  0.12789525  0.41156256  1
  O  O277  1  0.23285886  0.13357326  0.91769397  1
  O  O278  1  0.23321911  0.65770404  0.41989209  1
  O  O279  1  0.23906219  0.64142347  0.92994686  1
  O  O280  1  0.56004534  0.13557775  0.41479347  1
  O  O281  1  0.56435511  0.12668587  0.91167213  1
  O  O282  1  0.56077192  0.61941106  0.41458014  1
  O  O283  1  0.55489250  0.62394108  0.92495948  1
  O  O284  1  0.89733055  0.12698872  0.41384678  1
  O  O285  1  0.89804494  0.12828378  0.91504771  1
  O  O286  1  0.88611971  0.63637199  0.41571872  1
  O  O287  1  0.89440205  0.62120498  0.91795155  1
  O  O288  1  0.18255764  -0.00119747  0.08496677  1
  O  O289  1  0.14846956  -0.01403431  0.58000495  1
  O  O290  1  0.17001285  0.51754418  0.07696773  1
  O  O291  1  0.15599030  0.49689986  0.58915714  1
  O  O292  1  0.50744288  0.00532076  0.08230628  1
  O  O293  1  0.50675455  -0.00718542  0.58140857  1
  O  O294  1  0.49166575  0.49490717  0.08626482  1
  O  O295  1  0.49942404  0.51360631  0.57353869  1
  O  O296  1  0.83028985  -0.01020217  0.07683069  1
  O  O297  1  0.84566418  0.00821932  0.57830752  1
  O  O298  1  0.84685749  0.48742776  0.07171922  1
  O  O299  1  0.84089988  0.50089105  0.58916041  1
  O  O300  1  0.01635817  0.24375129  0.08164416  1
  O  O301  1  -0.00488503  0.25551608  0.58925113  1
  O  O302  1  0.01012585  0.75504376  0.08520225  1
  O  O303  1  0.00882914  0.74379054  0.58691341  1
  O  O304  1  0.34120127  0.24756908  0.08442324  1
  O  O305  1  0.33166762  0.23337366  0.57125326  1
  O  O306  1  0.35477932  0.75324673  0.08417198  1
  O  O307  1  0.32570894  0.76159887  0.57915650  1
  O  O308  1  0.66395679  0.25521053  0.08856225  1
  O  O309  1  0.66720822  0.26456319  0.57530829  1
  O  O310  1  0.65218515  0.75973918  0.07865191  1
  O  O311  1  0.67514212  0.74632599  0.58790766  1
  O  O312  1  0.16133260  -0.00257399  0.41207628  1
  O  O313  1  0.15664863  0.00950590  0.92741417  1
  O  O314  1  0.19177386  0.50164232  0.42616302  1
  O  O315  1  0.15920142  0.48845380  0.92569708  1
  O  O316  1  0.50023237  0.00294432  0.41475353  1
  O  O317  1  0.48474756  0.00247385  0.91704408  1
  O  O318  1  0.47555916  0.49854638  0.41204731  1
  O  O319  1  0.48602286  0.49460144  0.91809346  1
  O  O320  1  0.80705632  0.01115680  0.42268479  1
  O  O321  1  0.82120442  0.00406250  0.91534253  1
  O  O322  1  0.81370836  0.50489646  0.42010911  1
  O  O323  1  0.82247924  0.49341215  0.91415792  1
  O  O324  1  0.33711900  0.24228824  0.40998136  1
  O  O325  1  0.32723858  0.24894337  0.91586785  1
  O  O326  1  0.34408662  0.75826262  0.41078619  1
  O  O327  1  0.34255831  0.74870393  0.91531655  1
  O  O328  1  0.64662684  0.25635384  0.41068453  1
  O  O329  1  0.64986818  0.24860169  0.91515743  1
  O  O330  1  0.63575663  0.74544438  0.41571821  1
  O  O331  1  0.65834561  0.76316199  0.92268394  1
  O  O332  1  0.99661921  0.24006961  0.42307510  1
  O  O333  1  0.98276665  0.24926398  0.91642341  1
  O  O334  1  0.98886541  0.74966967  0.41582567  1
  O  O335  1  0.96399882  0.74932940  0.91866048  1
  O  O336  1  0.21275280  0.08118561  0.19390520  1
  O  O337  1  0.20860278  0.08087329  0.70145942  1
  O  O338  1  0.21435381  0.58777564  0.19373644  1
  O  O339  1  0.21271718  0.57743980  0.69558558  1
  O  O340  1  0.54218958  0.08609259  0.19303668  1
  O  O341  1  0.54988520  0.07344648  0.68972723  1
  O  O342  1  0.53920086  0.58019262  0.19361881  1
  O  O343  1  0.54270567  0.58371326  0.69143675  1
  O  O344  1  0.87820879  0.08092041  0.20095920  1
  O  O345  1  0.87330813  0.08514363  0.69193261  1
  O  O346  1  0.87883259  0.58292355  0.20164688  1
  O  O347  1  0.87714172  0.58305805  0.69835277  1
  O  O348  1  0.04372800  0.32926928  0.18997830  1
  O  O349  1  0.04324221  0.33440223  0.69917368  1
  O  O350  1  0.04451036  0.83564182  0.19539989  1
  O  O351  1  0.04164956  0.82940538  0.69678716  1
  O  O352  1  0.37365423  0.33279992  0.19223955  1
  O  O353  1  0.37662822  0.33200090  0.69710465  1
  O  O354  1  0.36914626  0.83471401  0.19269288  1
  O  O355  1  0.37779343  0.83793057  0.69511989  1
  O  O356  1  0.70924176  0.34447615  0.19362614  1
  O  O357  1  0.71392748  0.33616831  0.69206449  1
  O  O358  1  0.70534028  0.83397035  0.19304394  1
  O  O359  1  0.71064569  0.83546698  0.69498672  1
  O  O360  1  0.21078675  0.41701213  0.19835953  1
  O  O361  1  0.20846842  0.41466189  0.69607401  1
  O  O362  1  0.21151627  0.91686418  0.19394395  1
  O  O363  1  0.20900891  0.91526391  0.69643810  1
  O  O364  1  0.54022334  0.41621687  0.19417764  1
  O  O365  1  0.54392811  0.41878888  0.70011383  1
  O  O366  1  0.54692737  0.92591897  0.19344318  1
  O  O367  1  0.54215542  0.91513946  0.69475275  1
  O  O368  1  0.87536937  0.41884231  0.19020435  1
  O  O369  1  0.87925601  0.41845298  0.69822313  1
  O  O370  1  0.87705696  0.91463986  0.19302891  1
  O  O371  1  0.87916105  0.91467315  0.70377406  1
  O  O372  1  0.04677153  0.16068184  0.19168196  1
  O  O373  1  0.04748758  0.17207956  0.69502998  1
  O  O374  1  0.04390494  0.67178325  0.19469076  1
  O  O375  1  0.03482418  0.66607845  0.69879279  1
  O  O376  1  0.37613483  0.16537705  0.19426585  1
  O  O377  1  0.36339286  0.16272151  0.68763653  1
  O  O378  1  0.37829323  0.66897850  0.19398772  1
  O  O379  1  0.37877803  0.66412224  0.70284152  1
  O  O380  1  0.71243186  0.16022861  0.19012797  1
  O  O381  1  0.71257327  0.16759301  0.69829502  1
  O  O382  1  0.71145244  0.66642613  0.20182628  1
  O  O383  1  0.71715663  0.66216398  0.69629611  1
  O  O384  1  0.12608183  0.08098980  0.30322852  1
  O  O385  1  0.12846183  0.08434965  0.80994643  1
  O  O386  1  0.12243871  0.58497894  0.29835286  1
  O  O387  1  0.12137717  0.57934539  0.80321526  1
  O  O388  1  0.45840242  0.08490194  0.30406026  1
  O  O389  1  0.45333591  0.07859950  0.80430581  1
  O  O390  1  0.45455893  0.58206923  0.30335926  1
  O  O391  1  0.45859389  0.57898240  0.80863247  1
  O  O392  1  0.78756446  0.08494513  0.30626026  1
  O  O393  1  0.79213042  0.08435930  0.80475542  1
  O  O394  1  0.78712328  0.58344172  0.30762735  1
  O  O395  1  0.79076698  0.58074462  0.80726777  1
  O  O396  1  0.28945510  0.32852438  0.30353546  1
  O  O397  1  0.29043055  0.33209622  0.80527360  1
  O  O398  1  0.29328731  0.83769251  0.30369400  1
  O  O399  1  0.29037413  0.83686986  0.80991775  1
  O  O400  1  0.61306110  0.34306779  0.30564276  1
  O  O401  1  0.62602458  0.33207546  0.80449073  1
  O  O402  1  0.63352726  0.83131524  0.30834112  1
  O  O403  1  0.62124828  0.84110467  0.80777082  1
  O  O404  1  0.95713952  0.33308942  0.29850963  1
  O  O405  1  0.95676891  0.33267734  0.80554312  1
  O  O406  1  0.96002952  0.83380748  0.30655088  1
  O  O407  1  0.95493283  0.83277678  0.81040060  1
  O  O408  1  0.11941595  0.41583424  0.29875415  1
  O  O409  1  0.12494477  0.41390394  0.80821201  1
  O  O410  1  0.12706690  0.91569958  0.30406213  1
  O  O411  1  0.12207987  0.91532905  0.80261810  1
  O  O412  1  0.45071414  0.41598647  0.30294970  1
  O  O413  1  0.45688380  0.41616538  0.80575094  1
  O  O414  1  0.45374489  0.92644417  0.30440152  1
  O  O415  1  0.45780734  0.91839675  0.80626036  1
  O  O416  1  0.78427130  0.42385676  0.30972601  1
  O  O417  1  0.78974933  0.41360857  0.80447695  1
  O  O418  1  0.78896090  0.91723551  0.29825154  1
  O  O419  1  0.78750289  0.91912979  0.80612542  1
  O  O420  1  0.29043235  0.16261306  0.30254996  1
  O  O421  1  0.29318306  0.16688809  0.80565338  1
  O  O422  1  0.29245089  0.67023045  0.30484079  1
  O  O423  1  0.29027752  0.66068849  0.81102179  1
  O  O424  1  0.61779888  0.16281989  0.30490587  1
  O  O425  1  0.63152187  0.16741763  0.80446809  1
  O  O426  1  0.61971569  0.66401872  0.30583165  1
  O  O427  1  0.61965673  0.66506637  0.79782479  1
  O  O428  1  0.96311975  0.16439482  0.30601923  1
  O  O429  1  0.95516017  0.16985086  0.80518567  1
  O  O430  1  0.95705354  0.66712983  0.30788923  1
  O  O431  1  0.95513837  0.66532084  0.81022862  1
  F  F432  1  0.04733140  -0.00254208  0.20182495  1
  F  F433  1  0.04368573  -0.00172173  0.70340368  1
  F  F434  1  0.04214820  0.50021839  0.19880801  1
  F  F435  1  0.04282062  0.49763548  0.70450498  1
  F  F436  1  0.37887540  0.00220767  0.19910420  1
  F  F437  1  0.37866976  -0.00223930  0.70230553  1
  F  F438  1  0.37672081  0.50040701  0.20087219  1
  F  F439  1  0.37862367  0.50001974  0.70357494  1
  F  F440  1  0.70987060  0.00191507  0.20122514  1
  F  F441  1  0.71419889  -0.00104918  0.70249323  1
  F  F442  1  0.71019952  0.50139248  0.20285190  1
  F  F443  1  0.71469023  0.50062726  0.70394151  1
  F  F444  1  0.21254753  0.24643538  0.19920635  1
  F  F445  1  0.21117060  0.24980148  0.70488621  1
  F  F446  1  0.21385330  0.75226639  0.20332184  1
  F  F447  1  0.20707430  0.74954892  0.70671962  1
  F  F448  1  0.53194932  0.25072240  0.19723154  1
  F  F449  1  0.55181764  0.26071979  0.69563528  1
  F  F450  1  0.54887573  0.74031354  0.19891880  1
  F  F451  1  0.54068136  0.75362932  0.69958956  1
  F  F452  1  0.88419326  0.23765100  0.19294371  1
  F  F453  1  0.88095824  0.25179578  0.70196581  1
  F  F454  1  0.88025298  0.75162096  0.20450844  1
  F  F455  1  0.87951005  0.74897732  0.70640579  1
  F  F456  1  0.28890054  -0.00000855  0.29618368  1
  F  F457  1  0.29022225  -0.00172370  0.80018109  1
  F  F458  1  0.28992003  0.50228211  0.29728326  1
  F  F459  1  0.28971278  0.49497076  0.79912257  1
  F  F460  1  0.62165945  0.00222682  0.29815119  1
  F  F461  1  0.62212744  0.00162287  0.79735127  1
  F  F462  1  0.61724245  0.50208390  0.29700620  1
  F  F463  1  0.62381260  0.50061900  0.79842652  1
  F  F464  1  0.95824574  -0.00287059  0.29889044  1
  F  F465  1  0.95346317  0.00010675  0.80356482  1
  F  F466  1  0.95436940  0.49796474  0.29837957  1
  F  F467  1  0.95430000  0.49851249  0.80194092  1
  F  F468  1  0.12152581  0.24669437  0.29336906  1
  F  F469  1  0.12272161  0.25002230  0.80089083  1
  F  F470  1  0.12302895  0.75285406  0.29777429  1
  F  F471  1  0.11677402  0.75522997  0.80808577  1
  F  F472  1  0.45176437  0.24967399  0.29697358  1
  F  F473  1  0.45304597  0.25609294  0.80025803  1
  F  F474  1  0.45198047  0.74102641  0.30095835  1
  F  F475  1  0.46546229  0.75183298  0.80520889  1
  F  F476  1  0.80304339  0.24600979  0.30141049  1
  F  F477  1  0.79046588  0.25241422  0.79760160  1
  F  F478  1  0.79004263  0.75133305  0.29896336  1
  F  F479  1  0.79194523  0.75121883  0.80256740  1
