# generated using pymatgen
data_K24Na3Li5Mg64Fe17Si79(O5F)48
_symmetry_space_group_name_H-M   'P 1'
_cell_length_a   16.11220130
_cell_length_b   18.62251918
_cell_length_c   20.57287142
_cell_angle_alpha   90.00590578
_cell_angle_beta   100.01745621
_cell_angle_gamma   89.99824355
_symmetry_Int_Tables_number   1
_chemical_formula_structural   K24Na3Li5Mg64Fe17Si79(O5F)48
_chemical_formula_sum   'K24 Na3 Li5 Mg64 Fe17 Si79 O240 F48'
_cell_volume   6078.77860365
_cell_formula_units_Z   1
loop_
 _symmetry_equiv_pos_site_id
 _symmetry_equiv_pos_as_xyz
  1  'x, y, z'
loop_
 _atom_site_type_symbol
 _atom_site_label
 _atom_site_symmetry_multiplicity
 _atom_site_fract_x
 _atom_site_fract_y
 _atom_site_fract_z
 _atom_site_occupancy
  K  K0  1  0.00303148  -0.00171978  -0.00256025  1
  K  K1  1  -0.00754305  0.00376583  0.50623672  1
  K  K2  1  -0.00426469  0.50452169  -0.01260104  1
  K  K3  1  0.00016987  0.49210445  0.51866442  1
  K  K4  1  0.32041462  0.00623189  0.00097119  1
  K  K5  1  0.34036696  0.00294477  0.50369264  1
  K  K6  1  0.33556880  0.48891880  -0.01504432  1
  K  K7  1  0.35075810  0.49924602  0.52071390  1
  K  K8  1  0.66962409  0.01058895  -0.00436466  1
  K  K9  1  0.66687140  0.00671041  0.50185291  1
  K  K10  1  0.64623393  0.49753734  -0.01359087  1
  K  K11  1  0.66637227  0.50041676  0.50943701  1
  K  K12  1  0.17622492  0.24359446  -0.00842948  1
  K  K13  1  0.18320564  0.25796988  0.51822307  1
  K  K14  1  0.17017087  0.75927155  -0.00967424  1
  K  K15  1  0.18081067  0.74619293  0.51369964  1
  K  K16  1  0.49670268  0.25501588  -0.01053028  1
  K  K17  1  0.50114548  0.25151273  0.50787217  1
  K  K18  1  0.49942663  0.74838547  -0.00857280  1
  K  K19  1  0.49924655  0.74160740  0.50707372  1
  K  K20  1  0.82915864  0.24450734  -0.00597545  1
  K  K21  1  0.83009276  0.24659275  0.50417581  1
  K  K22  1  0.83030297  0.74937777  -0.01185838  1
  K  K23  1  0.83947216  0.74733754  0.51049815  1
  Na  Na24  1  0.83805759  0.49940713  0.75240154  1
  Na  Na25  1  0.66515127  0.58299824  0.25600146  1
  Na  Na26  1  0.49252453  0.33085031  0.75391534  1
  Li  Li27  1  0.33632015  0.25332263  0.75607458  1
  Li  Li28  1  0.83165483  0.00297098  0.24889239  1
  Li  Li29  1  0.16552264  0.83166620  0.74460982  1
  Li  Li30  1  0.33014426  0.40741587  0.75179948  1
  Li  Li31  1  0.50374682  0.16464511  0.25077127  1
  Mg  Mg32  1  -0.00084502  0.75078641  0.24846602  1
  Mg  Mg33  1  0.33146161  0.75050790  0.24953902  1
  Mg  Mg34  1  0.00257447  0.75049301  0.74581576  1
  Mg  Mg35  1  0.50087752  0.00302617  0.25190071  1
  Mg  Mg36  1  0.16528663  0.49893364  0.25100186  1
  Mg  Mg37  1  0.82968613  0.50060558  0.25141832  1
  Mg  Mg38  1  0.66399427  0.25121844  0.75416979  1
  Mg  Mg39  1  0.33666237  0.24781386  0.24929994  1
  Mg  Mg40  1  0.33253432  0.75162847  0.74608683  1
  Mg  Mg41  1  0.66753761  0.74894497  0.75103216  1
  Mg  Mg42  1  0.49991725  0.50180052  0.25684977  1
  Mg  Mg43  1  0.49666972  0.49903448  0.74828865  1
  Mg  Mg44  1  0.83337503  -0.00218371  0.74957733  1
  Mg  Mg45  1  0.50007911  0.00062685  0.75036704  1
  Mg  Mg46  1  0.17127959  0.49828555  0.74844022  1
  Mg  Mg47  1  0.16787740  0.00112287  0.24415869  1
  Mg  Mg48  1  -0.00247217  0.24959766  0.24870979  1
  Mg  Mg49  1  0.66318348  0.24579039  0.25077869  1
  Mg  Mg50  1  0.00069414  0.25240421  0.74990867  1
  Mg  Mg51  1  0.66678832  0.75160393  0.25347946  1
  Mg  Mg52  1  0.16496157  -0.00329456  0.74727850  1
  Mg  Mg53  1  0.33365735  0.08506490  0.74974917  1
  Mg  Mg54  1  0.66675450  0.41704851  0.75452839  1
  Mg  Mg55  1  0.16835586  0.66920212  0.74407227  1
  Mg  Mg56  1  0.66912473  0.91573582  0.75063442  1
  Mg  Mg57  1  0.00355921  0.41555629  0.74862558  1
  Mg  Mg58  1  0.50102125  0.66605465  0.75229271  1
  Mg  Mg59  1  0.33415355  0.08510175  0.24726545  1
  Mg  Mg60  1  -0.00301364  0.08344237  0.24657107  1
  Mg  Mg61  1  0.82990928  0.16295690  0.24912638  1
  Mg  Mg62  1  -0.00296236  0.41583600  0.25076846  1
  Mg  Mg63  1  0.66784122  0.08515666  0.75374986  1
  Mg  Mg64  1  0.66672678  0.08516519  0.25053253  1
  Mg  Mg65  1  -0.00131581  0.08313334  0.74793824  1
  Mg  Mg66  1  0.82862462  0.33329759  0.25006264  1
  Mg  Mg67  1  0.50155391  0.33214716  0.25557891  1
  Mg  Mg68  1  0.66450196  0.41589578  0.25299118  1
  Mg  Mg69  1  0.83443695  0.16597502  0.75210436  1
  Mg  Mg70  1  0.33102317  0.91580504  0.74657249  1
  Mg  Mg71  1  0.32997870  0.91684283  0.24605871  1
  Mg  Mg72  1  0.83368459  0.83506385  0.74846338  1
  Mg  Mg73  1  0.50115999  0.83436649  0.75002792  1
  Mg  Mg74  1  0.66827172  0.58373055  0.75211954  1
  Mg  Mg75  1  0.83098616  0.66746873  0.25148848  1
  Mg  Mg76  1  0.17264967  0.33326034  0.74581122  1
  Mg  Mg77  1  0.83347407  0.83688069  0.24935356  1
  Mg  Mg78  1  -0.00289674  0.58370659  0.25119932  1
  Mg  Mg79  1  0.16570219  0.66531238  0.25102552  1
  Mg  Mg80  1  0.49803137  0.16776388  0.75003031  1
  Mg  Mg81  1  0.00333309  0.58297498  0.74771898  1
  Mg  Mg82  1  0.50103377  0.66588909  0.25627288  1
  Mg  Mg83  1  0.83643853  0.33500065  0.75245543  1
  Mg  Mg84  1  0.16609311  0.16509972  0.24553483  1
  Mg  Mg85  1  0.66946004  0.91955483  0.25095133  1
  Mg  Mg86  1  0.16580251  0.33298584  0.25019548  1
  Mg  Mg87  1  -0.00090452  0.91361326  0.74620657  1
  Mg  Mg88  1  0.33438805  0.41496485  0.25417638  1
  Mg  Mg89  1  0.33543114  0.58351536  0.74765803  1
  Mg  Mg90  1  0.83574307  0.66484299  0.74981925  1
  Mg  Mg91  1  0.16448114  0.83604072  0.24498244  1
  Mg  Mg92  1  0.49956896  0.83470588  0.25065332  1
  Mg  Mg93  1  -0.00232809  0.91836068  0.24713217  1
  Mg  Mg94  1  0.33536946  0.58407774  0.25514984  1
  Mg  Mg95  1  0.16827598  0.16684953  0.74905106  1
  Fe  Fe96  1  0.36450473  0.66835922  0.61035195  1
  Fe  Fe97  1  0.64553108  0.66761755  0.89140664  1
  Fe  Fe98  1  0.36220289  0.33011923  0.60774289  1
  Fe  Fe99  1  0.19160034  0.09058352  0.10587862  1
  Fe  Fe100  1  0.85430075  0.91529721  0.60658568  1
  Fe  Fe101  1  0.14349343  0.42013571  0.88975597  1
  Fe  Fe102  1  0.64065369  0.16817114  0.89140226  1
  Fe  Fe103  1  0.46923314  0.41823960  0.88921779  1
  Fe  Fe104  1  0.86284539  0.58153801  0.60836710  1
  Fe  Fe105  1  0.47704149  0.58552446  0.39676855  1
  Fe  Fe106  1  0.64276228  0.16343693  0.39229382  1
  Fe  Fe107  1  0.97563133  0.33459109  0.89206236  1
  Fe  Fe108  1  0.81135133  0.91763313  0.88973607  1
  Fe  Fe109  1  0.30808929  0.32251473  0.89320127  1
  Fe  Fe110  1  0.18890471  0.91542010  0.10433286  1
  Fe  Fe111  1  0.69062461  0.16373316  0.10876167  1
  Fe  Fe112  1  0.19293607  0.41767865  0.60657832  1
  Si  Si113  1  0.13657760  0.08484606  0.38245404  1
  Si  Si114  1  0.97649047  0.83226592  0.38446248  1
  Si  Si115  1  0.47159425  0.91374681  0.38523104  1
  Si  Si116  1  0.30274581  0.83527777  0.38350260  1
  Si  Si117  1  0.53325479  0.58085310  0.61530386  1
  Si  Si118  1  0.30371473  0.16438388  0.38436670  1
  Si  Si119  1  0.02093704  0.66090429  0.11537540  1
  Si  Si120  1  0.13916259  0.91274414  0.87955443  1
  Si  Si121  1  0.81535234  0.08409007  0.88761053  1
  Si  Si122  1  0.52534774  0.42296824  0.11956661  1
  Si  Si123  1  0.64474156  0.33489710  0.39017700  1
  Si  Si124  1  0.13790854  0.91979995  0.38251296  1
  Si  Si125  1  0.35930118  0.15756587  0.61088259  1
  Si  Si126  1  0.86030199  0.40798958  0.61128696  1
  Si  Si127  1  0.97603313  0.66714077  0.38594817  1
  Si  Si128  1  0.13834761  0.58112499  0.38556855  1
  Si  Si129  1  0.85382855  0.41933557  0.11665111  1
  Si  Si130  1  0.81320090  0.08018007  0.38779342  1
  Si  Si131  1  0.97364177  0.16851134  0.38448368  1
  Si  Si132  1  0.52512617  0.07630885  0.11441680  1
  Si  Si133  1  0.19189483  0.91741552  0.61248069  1
  Si  Si134  1  0.97983181  0.66443228  0.88385267  1
  Si  Si135  1  0.64464444  0.83896508  0.38737333  1
  Si  Si136  1  0.52490451  0.91378258  0.11638146  1
  Si  Si137  1  0.85248792  0.58376691  0.11602649  1
  Si  Si138  1  0.35932629  0.84037938  0.61000488  1
  Si  Si139  1  0.81276401  0.58394793  0.88923791  1
  Si  Si140  1  0.46974454  0.58889923  0.89055305  1
  Si  Si141  1  0.64635845  0.67462716  0.39172807  1
  Si  Si142  1  0.30392937  0.15364699  0.88570991  1
  Si  Si143  1  0.30058188  0.67017501  0.38802407  1
  Si  Si144  1  0.81195942  0.91603852  0.38435509  1
  Si  Si145  1  0.47064819  0.07883860  0.88614692  1
  Si  Si146  1  0.18942787  0.08042352  0.61279999  1
  Si  Si147  1  0.97898989  0.16610745  0.88496620  1
  Si  Si148  1  0.69497252  0.66539169  0.61408953  1
  Si  Si149  1  0.19194156  0.58682362  0.60908910  1
  Si  Si150  1  0.30818996  0.83683367  0.88047034  1
  Si  Si151  1  0.36676367  0.17027336  0.11353364  1
  Si  Si152  1  0.97165037  0.33464882  0.38561947  1
  Si  Si153  1  0.85353520  0.08622305  0.61233355  1
  Si  Si154  1  0.02642380  0.83522481  0.60899174  1
  Si  Si155  1  0.14722046  0.58902669  0.88289399  1
  Si  Si156  1  0.46840309  0.07945167  0.38797874  1
  Si  Si157  1  0.52304386  0.58737331  0.11842033  1
  Si  Si158  1  0.68524777  0.82746200  0.61176360  1
  Si  Si159  1  0.52852002  0.08140289  0.61492861  1
  Si  Si160  1  0.19059698  0.41421451  0.11654275  1
  Si  Si161  1  0.64677029  0.33762497  0.89056523  1
  Si  Si162  1  0.02979572  0.67014563  0.60939981  1
  Si  Si163  1  0.36168615  0.33685915  0.11788844  1
  Si  Si164  1  0.53475793  0.41687919  0.61538387  1
  Si  Si165  1  0.80781441  0.42097981  0.38744625  1
  Si  Si166  1  0.30541003  0.32963246  0.38567394  1
  Si  Si167  1  0.69061491  0.16978998  0.61754989  1
  Si  Si168  1  0.86092788  0.91504461  0.11443493  1
  Si  Si169  1  0.02483218  0.32733589  0.60912936  1
  Si  Si170  1  0.13983038  0.41521232  0.38540598  1
  Si  Si171  1  0.80685705  0.41627276  0.88874188  1
  Si  Si172  1  0.02092544  0.82607445  0.11046260  1
  Si  Si173  1  0.47353601  0.41243955  0.39087154  1
  Si  Si174  1  0.64026046  0.83878022  0.88863059  1
  Si  Si175  1  0.35556109  0.66423340  0.11596120  1
  Si  Si176  1  0.02397960  0.16331256  0.61379830  1
  Si  Si177  1  0.69553897  0.33268340  0.61794695  1
  Si  Si178  1  0.69020673  0.67243222  0.11724673  1
  Si  Si179  1  0.30491587  0.67429999  0.88215927  1
  Si  Si180  1  0.68736001  0.33575191  0.11547007  1
  Si  Si181  1  0.19005673  0.58073694  0.11634731  1
  Si  Si182  1  0.36225134  0.82953477  0.11214316  1
  Si  Si183  1  0.47256419  0.91575378  0.88341677  1
  Si  Si184  1  0.86517516  0.08246726  0.11217516  1
  Si  Si185  1  0.52785136  0.91826075  0.61430974  1
  Si  Si186  1  0.69253067  0.83689882  0.11518341  1
  Si  Si187  1  0.01930401  0.33755275  0.11596116  1
  Si  Si188  1  0.02349099  0.17382603  0.11219949  1
  Si  Si189  1  0.81228196  0.58702852  0.38697727  1
  Si  Si190  1  0.13595663  0.07612420  0.88176648  1
  Si  Si191  1  0.97795127  0.82754513  0.88576385  1
  O  O192  1  0.28433271  0.13036629  0.07371903  1
  O  O193  1  0.27014674  0.11120938  0.58217077  1
  O  O194  1  0.26767871  0.61975106  0.08763696  1
  O  O195  1  0.27023188  0.61403067  0.57434578  1
  O  O196  1  0.60406659  0.09727241  0.07960344  1
  O  O197  1  0.60539417  0.12321917  0.58677078  1
  O  O198  1  0.60128404  0.62918410  0.09127495  1
  O  O199  1  0.61882086  0.60823742  0.58858866  1
  O  O200  1  0.94797397  0.11646239  0.08462110  1
  O  O201  1  0.93676702  0.11892972  0.58414663  1
  O  O202  1  0.93563012  0.61375038  0.08751930  1
  O  O203  1  0.95422251  0.62000167  0.57196982  1
  O  O204  1  0.10261030  0.37027271  0.08957607  1
  O  O205  1  0.09590419  0.36036229  0.57176662  1
  O  O206  1  0.09747113  0.85112012  0.07535797  1
  O  O207  1  0.11260320  0.86514009  0.58262973  1
  O  O208  1  0.43507070  0.38371984  0.09085189  1
  O  O209  1  0.45918242  0.36712878  0.57801158  1
  O  O210  1  0.45130632  0.85448350  0.08881714  1
  O  O211  1  0.43514535  0.88546052  0.58259073  1
  O  O212  1  0.76975835  0.37279846  0.08875350  1
  O  O213  1  0.77734497  0.35570268  0.58519756  1
  O  O214  1  0.77104910  0.87356635  0.08604408  1
  O  O215  1  0.76017407  0.85586022  0.57514108  1
  O  O216  1  0.26976744  0.37588794  0.08999762  1
  O  O217  1  0.27343734  0.38286618  0.55990045  1
  O  O218  1  0.28637401  0.87786585  0.07454576  1
  O  O219  1  0.27382225  0.88883800  0.58178752  1
  O  O220  1  0.60454805  0.38796330  0.09059688  1
  O  O221  1  0.62004713  0.38769363  0.58710362  1
  O  O222  1  0.60843626  0.88509314  0.08724849  1
  O  O223  1  0.59884544  0.87410707  0.58290862  1
  O  O224  1  0.93808911  0.38998900  0.08953466  1
  O  O225  1  0.93531995  0.36837023  0.57828704  1
  O  O226  1  0.93367547  0.87114334  0.08314240  1
  O  O227  1  0.94901335  0.88374095  0.57091717  1
  O  O228  1  0.10468253  0.15851864  0.07921116  1
  O  O229  1  0.10259691  0.12583425  0.58333326  1
  O  O230  1  0.10117526  0.62375500  0.08785440  1
  O  O231  1  0.11722327  0.64761002  0.58399022  1
  O  O232  1  0.44779939  0.13261654  0.08782356  1
  O  O233  1  0.43620063  0.11363457  0.58124489  1
  O  O234  1  0.43390551  0.62774557  0.08612757  1
  O  O235  1  0.45663521  0.62973197  0.57740830  1
  O  O236  1  0.78401675  0.12607687  0.07566953  1
  O  O237  1  0.77207830  0.14021195  0.58646817  1
  O  O238  1  0.76881797  0.63272975  0.08853121  1
  O  O239  1  0.77151546  0.64412287  0.57627501  1
  O  O240  1  0.06305700  0.12745647  0.41332877  1
  O  O241  1  0.05281390  0.10456076  0.91003002  1
  O  O242  1  0.05898087  0.61785211  0.41366197  1
  O  O243  1  0.06320740  0.61650946  0.91317367  1
  O  O244  1  0.38710267  0.11756458  0.41527767  1
  O  O245  1  0.37979256  0.09405599  0.91033788  1
  O  O246  1  0.38707894  0.63552969  0.42432403  1
  O  O247  1  0.38485061  0.62523700  0.91533274  1
  O  O248  1  0.74083647  0.10830953  0.42674941  1
  O  O249  1  0.73373614  0.10699780  0.91910163  1
  O  O250  1  0.73537304  0.62852038  0.41360827  1
  O  O251  1  0.74221890  0.61345589  0.93042831  1
  O  O252  1  0.22583424  0.36957839  0.41199384  1
  O  O253  1  0.22422634  0.35836508  0.93425933  1
  O  O254  1  0.23051630  0.88366007  0.41160365  1
  O  O255  1  0.22622161  0.86848334  0.90904369  1
  O  O256  1  0.56183110  0.36838624  0.41709409  1
  O  O257  1  0.56632794  0.36417954  0.92176698  1
  O  O258  1  0.56296910  0.87506536  0.41457746  1
  O  O259  1  0.54925556  0.86091500  0.91244989  1
  O  O260  1  0.89488815  0.37473482  0.41528369  1
  O  O261  1  0.87811855  0.36184220  0.92619022  1
  O  O262  1  0.89528305  0.86516443  0.41296761  1
  O  O263  1  0.90213156  0.85468751  0.92169245  1
  O  O264  1  0.06005957  0.37796585  0.41310725  1
  O  O265  1  0.05317131  0.40079727  0.93143622  1
  O  O266  1  0.06304415  0.87778974  0.41321147  1
  O  O267  1  0.06489966  0.87434743  0.91280802  1
  O  O268  1  0.39518375  0.36749475  0.41570423  1
  O  O269  1  0.39768635  0.37345373  0.93783924  1
  O  O270  1  0.39636601  0.86873242  0.41331530  1
  O  O271  1  0.38913104  0.88734032  0.91257980  1
  O  O272  1  0.72748961  0.38853128  0.41661730  1
  O  O273  1  0.72016531  0.39923448  0.91844149  1
  O  O274  1  0.72924466  0.88751439  0.41510613  1
  O  O275  1  0.70933810  0.89867405  0.91988580  1
  O  O276  1  0.22563348  0.12479593  0.41267847  1
  O  O277  1  0.21995953  0.12112190  0.91404934  1
  O  O278  1  0.22075678  0.62962026  0.41353621  1
  O  O279  1  0.22007051  0.65060306  0.91089709  1
  O  O280  1  0.55222478  0.11855327  0.42580124  1
  O  O281  1  0.54387890  0.13162741  0.92215319  1
  O  O282  1  0.57616961  0.63886342  0.42874118  1
  O  O283  1  0.54878944  0.63955981  0.92447412  1
  O  O284  1  0.90101204  0.12687976  0.41618474  1
  O  O285  1  0.89233032  0.14274503  0.91163760  1
  O  O286  1  0.89801277  0.63297224  0.41696485  1
  O  O287  1  0.90196765  0.62996613  0.91613901  1
  O  O288  1  0.16230900  0.00297567  0.06505697  1
  O  O289  1  0.17051913  -0.00110938  0.58148602  1
  O  O290  1  0.17949188  0.49771049  0.08895927  1
  O  O291  1  0.15806415  0.51103776  0.57604386  1
  O  O292  1  0.49520924  -0.00687351  0.08716117  1
  O  O293  1  0.52945802  -0.00027405  0.58393926  1
  O  O294  1  0.51799024  0.50520972  0.08953802  1
  O  O295  1  0.51988117  0.49909854  0.58478794  1
  O  O296  1  0.85788372  -0.00269749  0.08650891  1
  O  O297  1  0.83092831  0.01045516  0.57516615  1
  O  O298  1  0.83667722  0.50174466  0.08840194  1
  O  O299  1  0.84178894  0.48589682  0.57609459  1
  O  O300  1  -0.00792151  0.25699655  0.08917036  1
  O  O301  1  0.00937041  0.24309351  0.58141912  1
  O  O302  1  0.00049232  0.74145518  0.08633132  1
  O  O303  1  0.01162551  0.75283915  0.57997747  1
  O  O304  1  0.36310870  0.25578218  0.08867388  1
  O  O305  1  0.34964278  0.23328235  0.57303760  1
  O  O306  1  0.34465891  0.74565823  0.08578706  1
  O  O307  1  0.34900083  0.76353692  0.57368616  1
  O  O308  1  0.66830828  0.25938512  0.08001623  1
  O  O309  1  0.67059474  0.25119163  0.58860738  1
  O  O310  1  0.67909862  0.75423871  0.08561312  1
  O  O311  1  0.65927004  0.74532012  0.58664785  1
  O  O312  1  0.14123861  0.00215202  0.41168546  1
  O  O313  1  0.15232738  -0.00608545  0.91055666  1
  O  O314  1  0.15018541  0.49825243  0.41268566  1
  O  O315  1  0.17861241  0.51510252  0.91905578  1
  O  O316  1  0.47052983  -0.00543809  0.41642884  1
  O  O317  1  0.49625261  -0.00417090  0.91327095  1
  O  O318  1  0.48051734  0.48977525  0.42670232  1
  O  O319  1  0.48213855  0.51172182  0.92722692  1
  O  O320  1  0.83734969  -0.00366015  0.41327054  1
  O  O321  1  0.85204053  0.00802601  0.91915763  1
  O  O322  1  0.82304193  0.50394557  0.41541615  1
  O  O323  1  0.83546848  0.49998375  0.91193892  1
  O  O324  1  0.30959079  0.24677267  0.41395522  1
  O  O325  1  0.32882139  0.22681394  0.92539780  1
  O  O326  1  0.29555080  0.75452312  0.41295622  1
  O  O327  1  0.32606588  0.75627508  0.91271748  1
  O  O328  1  0.66649334  0.25841240  0.42567001  1
  O  O329  1  0.67634929  0.25948181  0.92323895  1
  O  O330  1  0.66396098  0.75863336  0.41932272  1
  O  O331  1  0.66818133  0.76212736  0.92319651  1
  O  O332  1  0.98015888  0.25169299  0.41332999  1
  O  O333  1  1.01183247  0.24025293  0.92028870  1
  O  O334  1  0.99225888  0.74984443  0.41323064  1
  O  O335  1  1.00036552  0.74537535  0.91473589  1
  O  O336  1  0.21206580  0.08430549  0.19892403  1
  O  O337  1  0.20771901  0.08056553  0.69269925  1
  O  O338  1  0.20792613  0.58250596  0.19712008  1
  O  O339  1  0.21147887  0.58685092  0.69026106  1
  O  O340  1  0.54502260  0.07544492  0.19459396  1
  O  O341  1  0.54374105  0.07994441  0.69459654  1
  O  O342  1  0.53377229  0.58637135  0.19759682  1
  O  O343  1  0.54506629  0.58443558  0.69550968  1
  O  O344  1  0.88010927  0.08657302  0.19261877  1
  O  O345  1  0.87460393  0.08334170  0.69301043  1
  O  O346  1  0.87447323  0.58452711  0.19659958  1
  O  O347  1  0.88522360  0.59089968  0.69777444  1
  O  O348  1  0.04075191  0.33607887  0.19694626  1
  O  O349  1  0.04325783  0.32903236  0.68925829  1
  O  O350  1  0.04112175  0.83039036  0.19189135  1
  O  O351  1  0.03758160  0.83500692  0.68877308  1
  O  O352  1  0.37661941  0.33613531  0.19844278  1
  O  O353  1  0.36112048  0.32787871  0.69182528  1
  O  O354  1  0.37577858  0.83156529  0.19350483  1
  O  O355  1  0.37775925  0.83743997  0.69058001  1
  O  O356  1  0.70826367  0.33456631  0.19674233  1
  O  O357  1  0.71269693  0.33228221  0.69779568  1
  O  O358  1  0.70985642  0.83479238  0.19574950  1
  O  O359  1  0.70616150  0.83232111  0.69239369  1
  O  O360  1  0.20813216  0.41641065  0.19741888  1
  O  O361  1  0.21074569  0.41781585  0.69623474  1
  O  O362  1  0.20996628  0.91593598  0.19755641  1
  O  O363  1  0.21136513  0.91977634  0.69175104  1
  O  O364  1  0.54161559  0.42013544  0.20002778  1
  O  O365  1  0.55002533  0.42058767  0.69469797  1
  O  O366  1  0.54397930  0.91441829  0.19711180  1
  O  O367  1  0.54407340  0.91710821  0.69457805  1
  O  O368  1  0.87503638  0.41834138  0.19748725  1
  O  O369  1  0.88234756  0.40836633  0.69070978  1
  O  O370  1  0.87984652  0.91175187  0.19421436  1
  O  O371  1  0.87820903  0.91624458  0.69761995  1
  O  O372  1  0.04201168  0.17005878  0.19381706  1
  O  O373  1  0.04208687  0.16304526  0.69368094  1
  O  O374  1  0.04131415  0.66321895  0.19612844  1
  O  O375  1  0.04415238  0.66918119  0.69013632  1
  O  O376  1  0.37470867  0.16771450  0.19385480  1
  O  O377  1  0.37921287  0.15536967  0.69032745  1
  O  O378  1  0.37191742  0.66628693  0.19646241  1
  O  O379  1  0.38159364  0.67065356  0.70130849  1
  O  O380  1  0.71258115  0.16649691  0.20037243  1
  O  O381  1  0.71189058  0.16554249  0.69705917  1
  O  O382  1  0.71299289  0.67566722  0.19663660  1
  O  O383  1  0.71459491  0.66733420  0.69465477  1
  O  O384  1  0.11960708  0.08459991  0.30237101  1
  O  O385  1  0.12088700  0.07920661  0.80139007  1
  O  O386  1  0.12038693  0.58216033  0.30461006  1
  O  O387  1  0.12674981  0.58850936  0.80227634  1
  O  O388  1  0.45162594  0.07807326  0.30791507  1
  O  O389  1  0.45627305  0.07874858  0.80515072  1
  O  O390  1  0.45415944  0.58508740  0.30440544  1
  O  O391  1  0.45710285  0.58776607  0.80971008  1
  O  O392  1  0.79222293  0.08448120  0.30807412  1
  O  O393  1  0.79379408  0.08242672  0.80572020  1
  O  O394  1  0.80153436  0.58488615  0.30753076  1
  O  O395  1  0.78713015  0.59349572  0.81029587  1
  O  O396  1  0.28720059  0.33228169  0.30513023  1
  O  O397  1  0.28478702  0.32666097  0.80460361  1
  O  O398  1  0.28745045  0.83343825  0.30316554  1
  O  O399  1  0.29463785  0.83525047  0.80120953  1
  O  O400  1  0.62615421  0.33365424  0.30916738  1
  O  O401  1  0.63307979  0.33372730  0.81028234  1
  O  O402  1  0.62447728  0.83669020  0.30675397  1
  O  O403  1  0.62349745  0.83590727  0.80684078  1
  O  O404  1  0.95429183  0.33478941  0.30510464  1
  O  O405  1  0.95737469  0.33303052  0.79952073  1
  O  O406  1  0.95881256  0.83277159  0.30399696  1
  O  O407  1  0.95905933  0.83074450  0.80522381  1
  O  O408  1  0.12077892  0.41610566  0.30461622  1
  O  O409  1  0.12394245  0.41500028  0.79787029  1
  O  O410  1  0.12003745  0.91658578  0.30240778  1
  O  O411  1  0.11963284  0.91621053  0.80019124  1
  O  O412  1  0.45462773  0.41589818  0.30967731  1
  O  O413  1  0.44654106  0.42774489  0.80135893  1
  O  O414  1  0.45446990  0.91429398  0.30478345  1
  O  O415  1  0.45520873  0.91644921  0.80274804  1
  O  O416  1  0.79101059  0.41798043  0.30703149  1
  O  O417  1  0.78882107  0.40966741  0.80903556  1
  O  O418  1  0.79022645  0.91249433  0.30497106  1
  O  O419  1  0.78814248  0.91569650  0.79813047  1
  O  O420  1  0.28820353  0.16709637  0.30431421  1
  O  O421  1  0.28367822  0.15635075  0.80569354  1
  O  O422  1  0.28615338  0.66772975  0.30658402  1
  O  O423  1  0.28854864  0.67264881  0.80241295  1
  O  O424  1  0.62257849  0.16486631  0.30217767  1
  O  O425  1  0.62098706  0.16507908  0.80013076  1
  O  O426  1  0.62047162  0.67775952  0.31184898  1
  O  O427  1  0.62275596  0.66864903  0.79973165  1
  O  O428  1  0.95652875  0.16799969  0.30412383  1
  O  O429  1  0.95935095  0.16534608  0.80368426  1
  O  O430  1  0.95771865  0.66742530  0.30515403  1
  O  O431  1  0.96039168  0.66806744  0.80404999  1
  F  F432  1  0.04491963  -0.00011100  0.19898633  1
  F  F433  1  0.04378482  -0.00008947  0.69748709  1
  F  F434  1  0.04305345  0.50030567  0.20256061  1
  F  F435  1  0.04732397  0.50178545  0.69770461  1
  F  F436  1  0.37969985  -0.00138000  0.20226040  1
  F  F437  1  0.37881054  -0.00122797  0.70043710  1
  F  F438  1  0.37515300  0.49902098  0.20582231  1
  F  F439  1  0.38428765  0.51427194  0.69278731  1
  F  F440  1  0.70986588  -0.00029532  0.20380912  1
  F  F441  1  0.70970696  0.00233676  0.70083201  1
  F  F442  1  0.71437825  0.49279849  0.20196337  1
  F  F443  1  0.70392640  0.50045300  0.70388020  1
  F  F444  1  0.21193468  0.25224837  0.20251563  1
  F  F445  1  0.19974427  0.24419538  0.69449110  1
  F  F446  1  0.20959591  0.74731790  0.20141865  1
  F  F447  1  0.21499989  0.75054755  0.69551681  1
  F  F448  1  0.54549567  0.25892472  0.20249037  1
  F  F449  1  0.54923858  0.24150656  0.69693240  1
  F  F450  1  0.54479039  0.75037367  0.20507682  1
  F  F451  1  0.54526722  0.75404716  0.70153882  1
  F  F452  1  0.87787282  0.25237456  0.20298944  1
  F  F453  1  0.87812290  0.24588181  0.70111728  1
  F  F454  1  0.87841588  0.74931080  0.20268364  1
  F  F455  1  0.87928743  0.75190681  0.70156110  1
  F  F456  1  0.28831334  -0.00111618  0.29891762  1
  F  F457  1  0.28642085  -0.00214636  0.79505602  1
  F  F458  1  0.28435394  0.49957128  0.30046331  1
  F  F459  1  0.28591686  0.51184073  0.79903613  1
  F  F460  1  0.62081240  -0.00248850  0.30147705  1
  F  F461  1  0.62100422  -0.00117174  0.79701332  1
  F  F462  1  0.61755616  0.49144424  0.30617557  1
  F  F463  1  0.61949096  0.50223243  0.80123339  1
  F  F464  1  0.96157041  0.00016605  0.29767901  1
  F  F465  1  0.95696078  -0.00010317  0.79541318  1
  F  F466  1  0.95452132  0.50007043  0.29897542  1
  F  F467  1  0.97303195  0.50049004  0.80079344  1
  F  F468  1  0.11961853  0.25014483  0.29731094  1
  F  F469  1  0.12002512  0.24656796  0.79580226  1
  F  F470  1  0.11990626  0.75045400  0.29611076  1
  F  F471  1  0.12093266  0.74955425  0.79309900  1
  F  F472  1  0.45003842  0.25496488  0.30244764  1
  F  F473  1  0.45022387  0.23494972  0.80398306  1
  F  F474  1  0.45124486  0.75239630  0.29875531  1
  F  F475  1  0.45489444  0.75595713  0.79855326  1
  F  F476  1  0.79088587  0.25186100  0.30012049  1
  F  F477  1  0.78994583  0.24775743  0.79781769  1
  F  F478  1  0.79066899  0.75251024  0.29998613  1
  F  F479  1  0.78979599  0.75216086  0.79659679  1
