# generated using pymatgen
data_K24Na3Li5Mg64Fe17Si79(O5F)48
_symmetry_space_group_name_H-M   'P 1'
_cell_length_a   16.08675611
_cell_length_b   18.58049142
_cell_length_c   20.54690922
_cell_angle_alpha   89.97508778
_cell_angle_beta   100.02220883
_cell_angle_gamma   90.04835418
_symmetry_Int_Tables_number   1
_chemical_formula_structural   K24Na3Li5Mg64Fe17Si79(O5F)48
_chemical_formula_sum   'K24 Na3 Li5 Mg64 Fe17 Si79 O240 F48'
_cell_volume   6047.74881620
_cell_formula_units_Z   1
loop_
 _symmetry_equiv_pos_site_id
 _symmetry_equiv_pos_as_xyz
  1  'x, y, z'
loop_
 _atom_site_type_symbol
 _atom_site_label
 _atom_site_symmetry_multiplicity
 _atom_site_fract_x
 _atom_site_fract_y
 _atom_site_fract_z
 _atom_site_occupancy
  K  K0  1  -0.00505538  -0.00236580  0.00059110  1
  K  K1  1  -0.00045707  -0.00472224  0.49259025  1
  K  K2  1  -0.01076314  0.49820324  0.00416659  1
  K  K3  1  -0.00585893  0.49804599  0.49544133  1
  K  K4  1  0.33491977  0.00455011  0.00998759  1
  K  K5  1  0.31787693  -0.00589245  0.49364495  1
  K  K6  1  0.34456306  0.49623263  0.00521588  1
  K  K7  1  0.34477541  0.49897894  0.49151490  1
  K  K8  1  0.67409518  -0.00326345  0.00357259  1
  K  K9  1  0.67732090  0.00251814  0.50275483  1
  K  K10  1  0.67001302  0.49031642  0.00245411  1
  K  K11  1  0.65967611  0.50884393  0.50179628  1
  K  K12  1  0.16736086  0.25408335  0.00312132  1
  K  K13  1  0.16293058  0.24792388  0.49791277  1
  K  K14  1  0.15892631  0.75936831  0.01141214  1
  K  K15  1  0.15879070  0.75907757  0.48278265  1
  K  K16  1  0.49568435  0.25661412  0.00275603  1
  K  K17  1  0.50758274  0.25818499  0.50372548  1
  K  K18  1  0.50145385  0.74447127  0.00536930  1
  K  K19  1  0.50083720  0.74184442  0.48923620  1
  K  K20  1  0.83889976  0.25244354  -0.00191361  1
  K  K21  1  0.83252173  0.24560837  0.50508835  1
  K  K22  1  0.84463064  0.74865744  0.00774548  1
  K  K23  1  0.83082783  0.74936531  0.49466875  1
  Na  Na24  1  0.83462418  -0.00062140  0.25100618  1
  Na  Na25  1  0.16624716  0.33162486  0.24512266  1
  Na  Na26  1  0.66904273  0.41654936  0.74895795  1
  Li  Li27  1  0.33384160  0.74967076  0.24538560  1
  Li  Li28  1  0.84288443  0.00235717  0.75919131  1
  Li  Li29  1  -0.00698393  0.07985578  0.75658548  1
  Li  Li30  1  0.83342938  0.33233716  0.75458957  1
  Li  Li31  1  0.66624091  0.58326369  0.25001943  1
  Mg  Mg32  1  0.50003674  0.00296285  0.74907035  1
  Mg  Mg33  1  0.83161687  0.49767044  0.74884049  1
  Mg  Mg34  1  0.00170136  0.75070466  0.25309667  1
  Mg  Mg35  1  0.50127393  0.49792766  0.74851395  1
  Mg  Mg36  1  -0.00036590  0.24991223  0.24895943  1
  Mg  Mg37  1  0.33384699  0.75178311  0.74923753  1
  Mg  Mg38  1  0.16582272  -0.00023645  0.25207996  1
  Mg  Mg39  1  0.33052630  0.24903701  0.74820695  1
  Mg  Mg40  1  0.83180974  0.50013400  0.24663371  1
  Mg  Mg41  1  0.33519972  0.25149899  0.24810458  1
  Mg  Mg42  1  0.50057182  -0.00275864  0.24729370  1
  Mg  Mg43  1  0.16866752  0.50020847  0.24872134  1
  Mg  Mg44  1  -0.00439813  0.24805218  0.75018144  1
  Mg  Mg45  1  0.66813378  0.24942939  0.24679220  1
  Mg  Mg46  1  0.67103092  0.25209350  0.74941065  1
  Mg  Mg47  1  0.16717422  0.49889866  0.75057566  1
  Mg  Mg48  1  0.66714964  0.74696939  0.25237347  1
  Mg  Mg49  1  0.16144496  0.00132975  0.74632049  1
  Mg  Mg50  1  0.50483877  0.50399071  0.25178270  1
  Mg  Mg51  1  -0.00086679  0.74867666  0.75086428  1
  Mg  Mg52  1  0.66810592  0.75328039  0.74771970  1
  Mg  Mg53  1  0.33591525  0.58418585  0.75108263  1
  Mg  Mg54  1  0.83865001  0.16488891  0.75272972  1
  Mg  Mg55  1  -0.00041610  0.58230862  0.74790732  1
  Mg  Mg56  1  0.50162267  0.33532067  0.24985824  1
  Mg  Mg57  1  0.33421698  0.08456444  0.24968591  1
  Mg  Mg58  1  0.50121491  0.33517209  0.74961698  1
  Mg  Mg59  1  0.49470885  0.83026702  0.24834274  1
  Mg  Mg60  1  0.83577354  0.83293067  0.25368643  1
  Mg  Mg61  1  0.33495164  0.41831951  0.25167693  1
  Mg  Mg62  1  0.83348000  0.83760873  0.74943278  1
  Mg  Mg63  1  0.16409479  0.83425687  0.74803340  1
  Mg  Mg64  1  0.16920234  0.66773702  0.24933842  1
  Mg  Mg65  1  0.00039083  0.58489348  0.24960674  1
  Mg  Mg66  1  0.66571953  0.58617185  0.74467866  1
  Mg  Mg67  1  0.50131430  0.83694740  0.74988545  1
  Mg  Mg68  1  0.83060388  0.66607969  0.74710183  1
  Mg  Mg69  1  0.67128833  0.92014771  0.74949359  1
  Mg  Mg70  1  0.83097205  0.16596962  0.24720184  1
  Mg  Mg71  1  0.66569141  0.08187621  0.24672421  1
  Mg  Mg72  1  0.33504627  0.58689003  0.24985466  1
  Mg  Mg73  1  -0.00119587  0.41616582  0.24724645  1
  Mg  Mg74  1  0.83246344  0.66323675  0.25178076  1
  Mg  Mg75  1  -0.00080077  0.08363829  0.25178162  1
  Mg  Mg76  1  0.83162629  0.33537030  0.24862795  1
  Mg  Mg77  1  -0.00408500  0.41380455  0.75165296  1
  Mg  Mg78  1  0.50159871  0.66658227  0.74840333  1
  Mg  Mg79  1  0.16790380  0.83496627  0.25047682  1
  Mg  Mg80  1  0.67297605  0.08332760  0.75168289  1
  Mg  Mg81  1  0.33151115  0.91356731  0.24972863  1
  Mg  Mg82  1  0.50094115  0.16765787  0.74929032  1
  Mg  Mg83  1  0.33046883  0.91774088  0.74698655  1
  Mg  Mg84  1  0.16665142  0.16751999  0.25125247  1
  Mg  Mg85  1  0.33513195  0.41458503  0.74933803  1
  Mg  Mg86  1  0.50146180  0.16423154  0.24892847  1
  Mg  Mg87  1  0.16414790  0.33310433  0.75166252  1
  Mg  Mg88  1  -0.00013067  0.91582725  0.25227070  1
  Mg  Mg89  1  -0.00273258  0.91813793  0.75164961  1
  Mg  Mg90  1  0.49929824  0.66682156  0.25188685  1
  Mg  Mg91  1  0.16794136  0.66572903  0.74944154  1
  Mg  Mg92  1  0.32838593  0.08426750  0.74657048  1
  Mg  Mg93  1  0.66783679  0.41737371  0.24893917  1
  Mg  Mg94  1  0.66606869  0.91446907  0.24949614  1
  Mg  Mg95  1  0.16005275  0.16319184  0.74699326  1
  Fe  Fe96  1  0.02967616  0.67101365  0.11248659  1
  Fe  Fe97  1  0.81180886  0.91615938  0.88949612  1
  Fe  Fe98  1  0.35626771  0.66204379  0.10877678  1
  Fe  Fe99  1  0.97364909  0.33611073  0.89061931  1
  Fe  Fe100  1  0.35169811  0.83033799  0.10877238  1
  Fe  Fe101  1  0.47912669  0.58515948  0.39255777  1
  Fe  Fe102  1  0.69284961  0.67285650  0.60686972  1
  Fe  Fe103  1  0.18543961  0.08103417  0.60615476  1
  Fe  Fe104  1  0.52633851  0.07659246  0.10956504  1
  Fe  Fe105  1  0.85863024  0.08394570  0.11004774  1
  Fe  Fe106  1  0.13912054  0.92005512  0.39199535  1
  Fe  Fe107  1  0.96891230  0.82865590  0.39536692  1
  Fe  Fe108  1  0.68861644  0.32894400  0.10888227  1
  Fe  Fe109  1  0.19049336  0.41618448  0.11075327  1
  Fe  Fe110  1  0.47336985  0.41489768  0.89098731  1
  Fe  Fe111  1  0.52304278  0.41222409  0.60659364  1
  Fe  Fe112  1  0.85922410  0.41501132  0.10802266  1
  Si  Si113  1  0.13869586  0.07881824  0.88420519  1
  Si  Si114  1  0.64059103  0.32806490  0.88649116  1
  Si  Si115  1  0.14027429  0.91403751  0.88427399  1
  Si  Si116  1  0.64118906  0.16403882  0.38663450  1
  Si  Si117  1  0.35780825  0.16367726  0.61165941  1
  Si  Si118  1  0.97433458  0.65634172  0.39085856  1
  Si  Si119  1  0.36094376  0.16937533  0.11325339  1
  Si  Si120  1  0.97468861  0.33654277  0.38744455  1
  Si  Si121  1  0.81199300  0.08581104  0.88806200  1
  Si  Si122  1  0.64785518  0.67218283  0.38795480  1
  Si  Si123  1  0.97851033  0.82606235  0.88737757  1
  Si  Si124  1  0.14307324  0.41569580  0.38559195  1
  Si  Si125  1  0.14274483  0.57935209  0.38740112  1
  Si  Si126  1  0.02743140  0.66198410  0.61448955  1
  Si  Si127  1  0.80642673  0.58535750  0.88426767  1
  Si  Si128  1  0.97226847  0.17171920  0.38676527  1
  Si  Si129  1  0.52914802  0.58516123  0.11533947  1
  Si  Si130  1  0.19085808  0.57997972  0.11091500  1
  Si  Si131  1  0.97812913  0.66034697  0.88383765  1
  Si  Si132  1  0.36245826  0.33634557  0.11359931  1
  Si  Si133  1  0.85591768  0.58632653  0.11115790  1
  Si  Si134  1  0.47628883  0.58713909  0.88649110  1
  Si  Si135  1  0.52720927  0.42045253  0.11528840  1
  Si  Si136  1  0.35865645  0.67054917  0.61424976  1
  Si  Si137  1  0.69884952  0.32717225  0.61111123  1
  Si  Si138  1  0.02129736  0.17386423  0.61122298  1
  Si  Si139  1  0.19302089  0.09118649  0.11741036  1
  Si  Si140  1  0.30405890  0.66594006  0.38827317  1
  Si  Si141  1  0.47431387  0.08565686  0.88378429  1
  Si  Si142  1  0.47950375  0.41367142  0.38885330  1
  Si  Si143  1  0.31153869  0.16886663  0.38705077  1
  Si  Si144  1  0.69323479  0.66575369  0.11795821  1
  Si  Si145  1  0.18966772  0.92693892  0.11226968  1
  Si  Si146  1  0.02487918  0.32787278  0.11301981  1
  Si  Si147  1  0.31289427  0.33289270  0.38581718  1
  Si  Si148  1  0.69017694  0.84339559  0.60976532  1
  Si  Si149  1  0.14166803  0.09161971  0.38836631  1
  Si  Si150  1  0.85514916  0.91219098  0.11524763  1
  Si  Si151  1  0.64119959  0.67119358  0.88318104  1
  Si  Si152  1  0.35161309  0.32816243  0.61052642  1
  Si  Si153  1  0.52602040  0.90729288  0.11125831  1
  Si  Si154  1  0.80085412  0.91842576  0.38901415  1
  Si  Si155  1  0.19551721  0.58438573  0.61460740  1
  Si  Si156  1  0.02263581  0.82645714  0.61501336  1
  Si  Si157  1  0.63707663  0.83668345  0.88613993  1
  Si  Si158  1  0.02424823  0.33830410  0.61356965  1
  Si  Si159  1  0.14165144  0.42049551  0.88617907  1
  Si  Si160  1  0.85923208  0.41779956  0.61370493  1
  Si  Si161  1  0.80551077  0.41528894  0.38737115  1
  Si  Si162  1  0.47319685  0.91541144  0.38592846  1
  Si  Si163  1  0.30714145  0.83629739  0.88333682  1
  Si  Si164  1  0.35857930  0.83623441  0.61384685  1
  Si  Si165  1  0.47393541  0.08135208  0.38709432  1
  Si  Si166  1  0.86433790  0.91795787  0.61473524  1
  Si  Si167  1  0.30110744  0.32937802  0.88687921  1
  Si  Si168  1  0.80432307  0.41966905  0.88667390  1
  Si  Si169  1  0.18610090  0.91034996  0.61196363  1
  Si  Si170  1  0.97906830  0.16748478  0.88869699  1
  Si  Si171  1  0.68953759  0.16443321  0.10948003  1
  Si  Si172  1  0.52297704  0.92308188  0.61412690  1
  Si  Si173  1  0.86357623  0.08287123  0.61858368  1
  Si  Si174  1  0.86148934  0.58162954  0.61097051  1
  Si  Si175  1  0.30404527  0.16289049  0.88420867  1
  Si  Si176  1  0.69378758  0.82860524  0.11717531  1
  Si  Si177  1  0.80654486  0.08664461  0.38574772  1
  Si  Si178  1  0.47110695  0.91954685  0.88339338  1
  Si  Si179  1  0.64423129  0.16494700  0.88518980  1
  Si  Si180  1  0.14722927  0.58345162  0.88408783  1
  Si  Si181  1  0.02408272  0.84066218  0.11225353  1
  Si  Si182  1  0.52004481  0.58470229  0.60948654  1
  Si  Si183  1  0.30701957  0.83421027  0.38841256  1
  Si  Si184  1  0.52618195  0.08827870  0.61470969  1
  Si  Si185  1  0.69667441  0.16215492  0.61454440  1
  Si  Si186  1  0.64248476  0.32831929  0.38632666  1
  Si  Si187  1  0.02607520  0.16496278  0.11444693  1
  Si  Si188  1  0.19151365  0.41767273  0.61415782  1
  Si  Si189  1  0.30923800  0.67098438  0.88441351  1
  Si  Si190  1  0.80672986  0.57926044  0.38565900  1
  Si  Si191  1  0.63920201  0.83738095  0.38537087  1
  O  O192  1  0.27493330  0.12080641  0.08717218  1
  O  O193  1  0.28737860  0.10720729  0.57730850  1
  O  O194  1  0.27937461  0.58642568  0.08248724  1
  O  O195  1  0.27357141  0.62270897  0.58582396  1
  O  O196  1  0.62688399  0.09789531  0.08069080  1
  O  O197  1  0.60744928  0.11900886  0.58439131  1
  O  O198  1  0.61787416  0.60863346  0.08848790  1
  O  O199  1  0.59738022  0.61666421  0.57720873  1
  O  O200  1  0.96006849  0.10568245  0.07884521  1
  O  O201  1  0.93136594  0.13077235  0.58462943  1
  O  O202  1  0.93405002  0.61564510  0.07756105  1
  O  O203  1  0.95103174  0.60637712  0.58598943  1
  O  O204  1  0.11518021  0.33890923  0.08911591  1
  O  O205  1  0.10319366  0.37578726  0.58340360  1
  O  O206  1  0.10157978  0.88283236  0.08392213  1
  O  O207  1  0.10880797  0.85189853  0.58874736  1
  O  O208  1  0.44901906  0.36402350  0.08804572  1
  O  O209  1  0.42614852  0.35487207  0.57356636  1
  O  O210  1  0.45638592  0.84790630  0.08031661  1
  O  O211  1  0.43769503  0.87457398  0.58534009  1
  O  O212  1  0.77815887  0.35113872  0.06805188  1
  O  O213  1  0.78129642  0.36388887  0.58337559  1
  O  O214  1  0.77902299  0.85217703  0.08831523  1
  O  O215  1  0.77017016  0.88487429  0.58378652  1
  O  O216  1  0.28758340  0.38675441  0.07658512  1
  O  O217  1  0.26586656  0.37755292  0.58297253  1
  O  O218  1  0.26509297  0.89974822  0.07579152  1
  O  O219  1  0.27153853  0.87971234  0.58550338  1
  O  O220  1  0.60503561  0.39847682  0.08000300  1
  O  O221  1  0.61577377  0.36971951  0.57391379  1
  O  O222  1  0.61680409  0.88347815  0.08740428  1
  O  O223  1  0.60485570  0.89430227  0.58425418  1
  O  O224  1  0.95788479  0.38674586  0.07704816  1
  O  O225  1  0.94210674  0.38809550  0.58346571  1
  O  O226  1  0.93897868  0.88867167  0.08378753  1
  O  O227  1  0.93893063  0.87392734  0.58376709  1
  O  O228  1  0.11724148  0.14756068  0.08962914  1
  O  O229  1  0.09391144  0.14193525  0.57328945  1
  O  O230  1  0.12715794  0.64515594  0.08047094  1
  O  O231  1  0.11056727  0.63168608  0.58594817  1
  O  O232  1  0.43409208  0.13817837  0.07633073  1
  O  O233  1  0.44753495  0.14238713  0.58605385  1
  O  O234  1  0.45734295  0.63805073  0.07685029  1
  O  O235  1  0.43767881  0.63922270  0.58427506  1
  O  O236  1  0.77725265  0.15491959  0.08058013  1
  O  O237  1  0.76978963  0.11672079  0.58498518  1
  O  O238  1  0.77684156  0.64400817  0.08680168  1
  O  O239  1  0.78796852  0.63433982  0.57549344  1
  O  O240  1  0.06393644  0.13488444  0.41601423  1
  O  O241  1  0.06020994  0.11184916  0.91557189  1
  O  O242  1  0.06085404  0.60846574  0.41781421  1
  O  O243  1  0.06199335  0.61056441  0.91119275  1
  O  O244  1  0.39675944  0.12097311  0.41770225  1
  O  O245  1  0.39373604  0.12054113  0.91257853  1
  O  O246  1  0.38642373  0.62329890  0.42644400  1
  O  O247  1  0.39601706  0.62781203  0.91308116  1
  O  O248  1  0.72936504  0.12259883  0.41984020  1
  O  O249  1  0.72621972  0.11570445  0.91521996  1
  O  O250  1  0.73799621  0.62910559  0.41542773  1
  O  O251  1  0.73075937  0.63012722  0.91184539  1
  O  O252  1  0.23017400  0.36851222  0.41263301  1
  O  O253  1  0.21692515  0.36184715  0.91207531  1
  O  O254  1  0.24105532  0.87227431  0.42881261  1
  O  O255  1  0.22763343  0.86964474  0.91279169  1
  O  O256  1  0.56355745  0.36282710  0.41648666  1
  O  O257  1  0.56421157  0.35443779  0.92281060  1
  O  O258  1  0.55809729  0.86890734  0.41605632  1
  O  O259  1  0.55096072  0.86774682  0.91164327  1
  O  O260  1  0.89962007  0.38008509  0.41778750  1
  O  O261  1  0.88359932  0.37534204  0.92630821  1
  O  O262  1  0.87719003  0.87120920  0.42884413  1
  O  O263  1  0.90369606  0.85415710  0.92316033  1
  O  O264  1  0.06585672  0.37631372  0.41816222  1
  O  O265  1  0.06183763  0.40351157  0.92030709  1
  O  O266  1  0.06180860  0.87900910  0.43794530  1
  O  O267  1  0.06578286  0.87279446  0.91474232  1
  O  O268  1  0.39886249  0.37684609  0.41840436  1
  O  O269  1  0.38144552  0.37360443  0.92393096  1
  O  O270  1  0.39881714  0.87525390  0.41711188  1
  O  O271  1  0.38911925  0.88687814  0.91145366  1
  O  O272  1  0.73302917  0.36818481  0.41702262  1
  O  O273  1  0.71902048  0.38461853  0.90926493  1
  O  O274  1  0.71431342  0.89369397  0.41732953  1
  O  O275  1  0.71476757  0.88390934  0.92252718  1
  O  O276  1  0.22912510  0.13892205  0.41573090  1
  O  O277  1  0.22865040  0.12113911  0.91435491  1
  O  O278  1  0.22251708  0.63100405  0.41911255  1
  O  O279  1  0.22694527  0.63765618  0.91146944  1
  O  O280  1  0.56334637  0.12393160  0.41635271  1
  O  O281  1  0.56017359  0.13127388  0.91240695  1
  O  O282  1  0.57753503  0.63847804  0.42665024  1
  O  O283  1  0.56202672  0.63552107  0.91256688  1
  O  O284  1  0.89548390  0.12985654  0.41649225  1
  O  O285  1  0.89363157  0.13836707  0.91557759  1
  O  O286  1  0.90063030  0.60932014  0.41962992  1
  O  O287  1  0.89703473  0.62720299  0.91291016  1
  O  O288  1  0.16851512  0.01118692  0.08622318  1
  O  O289  1  0.15971254  -0.01415554  0.57678898  1
  O  O290  1  0.14455729  0.50516062  0.08111225  1
  O  O291  1  0.18263369  0.50157349  0.58612949  1
  O  O292  1  0.49675169  -0.01586948  0.07640169  1
  O  O293  1  0.50398495  0.00587240  0.58590505  1
  O  O294  1  0.50101035  0.50259838  0.08908332  1
  O  O295  1  0.49336887  0.50683040  0.57747495  1
  O  O296  1  0.82297180  -0.01088404  0.08400091  1
  O  O297  1  0.86453063  0.00080898  0.58630583  1
  O  O298  1  0.82548806  0.50904412  0.07904554  1
  O  O299  1  0.84208520  0.49920067  0.58148097  1
  O  O300  1  -0.00610915  0.24510117  0.08754055  1
  O  O301  1  0.00496545  0.25797374  0.58184723  1
  O  O302  1  0.00956812  0.76394134  0.07481194  1
  O  O303  1  0.00431143  0.74356244  0.58665043  1
  O  O304  1  0.34232686  0.25268232  0.08688796  1
  O  O305  1  0.32755367  0.24485307  0.58460677  1
  O  O306  1  0.31481907  0.74601051  0.06590161  1
  O  O307  1  0.34439916  0.75350169  0.58606717  1
  O  O308  1  0.64156852  0.23874057  0.08241494  1
  O  O309  1  0.69266104  0.24246829  0.58034715  1
  O  O310  1  0.66650214  0.74741966  0.08810671  1
  O  O311  1  0.67397068  0.76738838  0.57202443  1
  O  O312  1  0.15463508  0.01568313  0.42576450  1
  O  O313  1  0.15247619  -0.00412786  0.91391972  1
  O  O314  1  0.15997318  0.49679176  0.41915875  1
  O  O315  1  0.17614880  0.50280081  0.91012936  1
  O  O316  1  0.48369176  -0.00135947  0.41692821  1
  O  O317  1  0.48671425  0.00215014  0.91162725  1
  O  O318  1  0.49716905  0.49004350  0.42546403  1
  O  O319  1  0.48924015  0.51045675  0.92271858  1
  O  O320  1  0.81671899  0.00390273  0.41399952  1
  O  O321  1  0.83509361  0.00897358  0.92368738  1
  O  O322  1  0.80321438  0.49707901  0.41759905  1
  O  O323  1  0.80935525  0.50482427  0.91598769  1
  O  O324  1  0.32641664  0.25079139  0.41754436  1
  O  O325  1  0.31003432  0.24476966  0.91393081  1
  O  O326  1  0.31562721  0.75005919  0.41535268  1
  O  O327  1  0.32409082  0.75409505  0.91091136  1
  O  O328  1  0.65109180  0.24593179  0.41750444  1
  O  O329  1  0.66509306  0.24551339  0.91550468  1
  O  O330  1  0.66442260  0.75683179  0.41551698  1
  O  O331  1  0.64894852  0.75305346  0.91318190  1
  O  O332  1  0.97718094  0.25419039  0.41858110  1
  O  O333  1  1.00548991  0.24346821  0.92496268  1
  O  O334  1  0.98303359  0.73248902  0.42905781  1
  O  O335  1  1.00040270  0.74172846  0.91218121  1
  O  O336  1  0.21186232  0.08524385  0.19794002  1
  O  O337  1  0.20875422  0.08247515  0.69808026  1
  O  O338  1  0.20884020  0.58400872  0.19343920  1
  O  O339  1  0.21201601  0.58419155  0.69516178  1
  O  O340  1  0.54278605  0.08177776  0.20165054  1
  O  O341  1  0.54259664  0.08546791  0.69501232  1
  O  O342  1  0.54404251  0.58550479  0.19541675  1
  O  O343  1  0.53885452  0.58662262  0.69121833  1
  O  O344  1  0.88358342  0.09113117  0.20025133  1
  O  O345  1  0.87772103  0.08315453  0.69727897  1
  O  O346  1  0.87648071  0.58487466  0.19301112  1
  O  O347  1  0.87865739  0.58444584  0.69194636  1
  O  O348  1  0.03096368  0.33109029  0.19330321  1
  O  O349  1  0.04568938  0.33722390  0.69343979  1
  O  O350  1  0.04390407  0.83487785  0.19278876  1
  O  O351  1  0.04167076  0.82865684  0.69555433  1
  O  O352  1  0.37938214  0.33457980  0.19489759  1
  O  O353  1  0.36973412  0.33041043  0.69150092  1
  O  O354  1  0.37625815  0.83609025  0.20000261  1
  O  O355  1  0.37714600  0.83551474  0.69465001  1
  O  O356  1  0.71100325  0.33312870  0.20162757  1
  O  O357  1  0.71256995  0.32427764  0.68992083  1
  O  O358  1  0.71121240  0.83026084  0.19778517  1
  O  O359  1  0.70681331  0.83686782  0.69050703  1
  O  O360  1  0.21940137  0.42434250  0.20054970  1
  O  O361  1  0.20963812  0.41714090  0.69473275  1
  O  O362  1  0.21026913  0.92205503  0.19299568  1
  O  O363  1  0.20855741  0.91357726  0.69314654  1
  O  O364  1  0.54451464  0.41711588  0.19645840  1
  O  O365  1  0.53479888  0.41580829  0.69624119  1
  O  O366  1  0.54224256  0.91267552  0.19301412  1
  O  O367  1  0.54026181  0.91958393  0.69456943  1
  O  O368  1  0.87673623  0.41669451  0.20083677  1
  O  O369  1  0.87971094  0.42256703  0.69274701  1
  O  O370  1  0.87942747  0.90795586  0.19490587  1
  O  O371  1  0.88249631  0.91088211  0.69371615  1
  O  O372  1  0.04489359  0.16537338  0.19582016  1
  O  O373  1  0.04502595  0.17396748  0.69080511  1
  O  O374  1  0.04553970  0.66827780  0.20451278  1
  O  O375  1  0.04603635  0.66452979  0.69515358  1
  O  O376  1  0.37979243  0.16633413  0.19451060  1
  O  O377  1  0.37537378  0.16458565  0.69295529  1
  O  O378  1  0.37917743  0.66724842  0.19946497  1
  O  O379  1  0.37527929  0.66941102  0.69506287  1
  O  O380  1  0.70751402  0.16513297  0.19243329  1
  O  O381  1  0.71044062  0.16392969  0.69432776  1
  O  O382  1  0.71286248  0.66856879  0.19763762  1
  O  O383  1  0.71105893  0.67159908  0.69876425  1
  O  O384  1  0.12538347  0.08676662  0.30778876  1
  O  O385  1  0.12455308  0.08069238  0.80460355  1
  O  O386  1  0.12509887  0.58048841  0.30751860  1
  O  O387  1  0.12638496  0.58454410  0.80312346  1
  O  O388  1  0.45539964  0.08314531  0.30719674  1
  O  O389  1  0.45451108  0.08451037  0.80307285  1
  O  O390  1  0.45797007  0.58312576  0.30216797  1
  O  O391  1  0.45582612  0.58700211  0.80510863  1
  O  O392  1  0.78288320  0.09233231  0.30710793  1
  O  O393  1  0.79045494  0.08532727  0.80765988  1
  O  O394  1  0.79464326  0.57981157  0.30641175  1
  O  O395  1  0.79145071  0.58564143  0.80398640  1
  O  O396  1  0.30212774  0.33139061  0.30694205  1
  O  O397  1  0.28780568  0.33154556  0.80546328  1
  O  O398  1  0.28593833  0.84060094  0.30899226  1
  O  O399  1  0.28925218  0.83488022  0.80248621  1
  O  O400  1  0.62392262  0.32998149  0.30656084  1
  O  O401  1  0.61738839  0.32291127  0.80674426  1
  O  O402  1  0.62136265  0.83516020  0.30532533  1
  O  O403  1  0.62152836  0.83679035  0.80460147  1
  O  O404  1  0.95722283  0.33417865  0.30797468  1
  O  O405  1  0.95950361  0.33223242  0.79976632  1
  O  O406  1  0.95671717  0.83227240  0.30352983  1
  O  O407  1  0.95947940  0.82949357  0.80642350  1
  O  O408  1  0.11796327  0.42143777  0.30717624  1
  O  O409  1  0.12405611  0.41865958  0.80459321  1
  O  O410  1  0.12289435  0.91744000  0.30018380  1
  O  O411  1  0.12381760  0.91381789  0.80379037  1
  O  O412  1  0.46054002  0.41439794  0.30830886  1
  O  O413  1  0.45169505  0.41653572  0.79922419  1
  O  O414  1  0.45688040  0.91882063  0.30607134  1
  O  O415  1  0.45377957  0.91903135  0.80261701  1
  O  O416  1  0.79004624  0.41566355  0.30801366  1
  O  O417  1  0.79968760  0.42216259  0.80807595  1
  O  O418  1  0.78446884  0.90959628  0.30967641  1
  O  O419  1  0.78792055  0.91528661  0.79866881  1
  O  O420  1  0.29523547  0.16695093  0.30701032  1
  O  O421  1  0.28823736  0.16494162  0.80382297  1
  O  O422  1  0.28551116  0.66146921  0.30869737  1
  O  O423  1  0.29058173  0.66887963  0.80341207  1
  O  O424  1  0.62353534  0.16584075  0.30682278  1
  O  O425  1  0.62308221  0.16380805  0.80446803  1
  O  O426  1  0.62470945  0.67018452  0.30849643  1
  O  O427  1  0.62192808  0.67149336  0.80268333  1
  O  O428  1  0.95505255  0.17053579  0.30724266  1
  O  O429  1  0.95988653  0.16821125  0.80849679  1
  O  O430  1  0.95559926  0.66227126  0.31050096  1
  O  O431  1  0.95808894  0.66327373  0.80304538  1
  F  F432  1  0.04578572  0.00259970  0.20276656  1
  F  F433  1  0.04666060  -0.00990510  0.69768525  1
  F  F434  1  0.04493453  0.50119318  0.20324133  1
  F  F435  1  0.04803928  0.50068889  0.70087468  1
  F  F436  1  0.37799371  0.00124751  0.20311606  1
  F  F437  1  0.37820071  0.00017382  0.70020994  1
  F  F438  1  0.38322427  0.49846712  0.20541513  1
  F  F439  1  0.37366801  0.50344678  0.70029622  1
  F  F440  1  0.69999777  -0.00294820  0.20099151  1
  F  F441  1  0.69811396  0.00258267  0.69601998  1
  F  F442  1  0.71291890  0.49760701  0.20254388  1
  F  F443  1  0.71703261  0.51152763  0.69579425  1
  F  F444  1  0.22028952  0.23835447  0.20054586  1
  F  F445  1  0.21017542  0.25071688  0.70156069  1
  F  F446  1  0.20778960  0.75281543  0.20364513  1
  F  F447  1  0.21229634  0.74979267  0.70085201  1
  F  F448  1  0.54492465  0.24970013  0.20390699  1
  F  F449  1  0.54457617  0.24789364  0.70051585  1
  F  F450  1  0.54790241  0.74972540  0.20365177  1
  F  F451  1  0.54305817  0.75389290  0.70099004  1
  F  F452  1  0.87756960  0.25142649  0.20501078  1
  F  F453  1  0.88054504  0.24138729  0.69769954  1
  F  F454  1  0.87918804  0.74650084  0.20592372  1
  F  F455  1  0.87989191  0.74965495  0.70205520  1
  F  F456  1  0.28958866  0.00231179  0.29918309  1
  F  F457  1  0.28754548  -0.00222327  0.79692213  1
  F  F458  1  0.29124620  0.50201817  0.30261537  1
  F  F459  1  0.28790504  0.50090901  0.79727766  1
  F  F460  1  0.61996653  -0.00263897  0.30099662  1
  F  F461  1  0.61830786  0.00096705  0.79843036  1
  F  F462  1  0.62203001  0.49335684  0.30249407  1
  F  F463  1  0.61693093  0.51493203  0.79898936  1
  F  F464  1  0.96952850  0.00052154  0.30624400  1
  F  F465  1  0.96159695  -0.00609071  0.80452006  1
  F  F466  1  0.95459587  0.50156156  0.29867629  1
  F  F467  1  0.95670849  0.50294741  0.79643629  1
  F  F468  1  0.11722161  0.24244948  0.30247968  1
  F  F469  1  0.12231398  0.24871354  0.79695461  1
  F  F470  1  0.12319880  0.75267265  0.30263086  1
  F  F471  1  0.12327446  0.74882088  0.79727516  1
  F  F472  1  0.45702955  0.24854489  0.29809683  1
  F  F473  1  0.45048068  0.24817868  0.79531919  1
  F  F474  1  0.46514532  0.75098013  0.30490464  1
  F  F475  1  0.45423544  0.75241789  0.79691826  1
  F  F476  1  0.78830841  0.24885411  0.30023728  1
  F  F477  1  0.78699276  0.24413138  0.79935794  1
  F  F478  1  0.78945629  0.74766272  0.30169987  1
  F  F479  1  0.78970821  0.75280361  0.79739544  1
