# generated using pymatgen
data_K24Na3Li5Mg64Fe17Si79(O5F)48
_symmetry_space_group_name_H-M   'P 1'
_cell_length_a   16.09379275
_cell_length_b   18.59442200
_cell_length_c   20.56188863
_cell_angle_alpha   90.00794759
_cell_angle_beta   100.01047200
_cell_angle_gamma   90.01340087
_symmetry_Int_Tables_number   1
_chemical_formula_structural   K24Na3Li5Mg64Fe17Si79(O5F)48
_chemical_formula_sum   'K24 Na3 Li5 Mg64 Fe17 Si79 O240 F48'
_cell_volume   6059.56608456
_cell_formula_units_Z   1
loop_
 _symmetry_equiv_pos_site_id
 _symmetry_equiv_pos_as_xyz
  1  'x, y, z'
loop_
 _atom_site_type_symbol
 _atom_site_label
 _atom_site_symmetry_multiplicity
 _atom_site_fract_x
 _atom_site_fract_y
 _atom_site_fract_z
 _atom_site_occupancy
  K  K0  1  -0.00342801  0.00319817  -0.00469003  1
  K  K1  1  -0.00593241  -0.00054789  0.50343821  1
  K  K2  1  -0.00323393  0.49749032  -0.00846351  1
  K  K3  1  0.00430003  0.50305158  0.50859826  1
  K  K4  1  0.34281865  0.00715934  -0.00287509  1
  K  K5  1  0.33974670  -0.00504648  0.50756049  1
  K  K6  1  0.34794396  0.49472120  -0.00373353  1
  K  K7  1  0.33072303  0.51021704  0.49875414  1
  K  K8  1  0.66234049  0.00210480  -0.00996610  1
  K  K9  1  0.67566812  -0.00622241  0.51313937  1
  K  K10  1  0.66105533  0.50527673  -0.01318133  1
  K  K11  1  0.66627815  0.49975424  0.50342413  1
  K  K12  1  0.16705792  0.25621389  -0.00115229  1
  K  K13  1  0.16919495  0.25599271  0.50078353  1
  K  K14  1  0.16829015  0.74674760  -0.00529638  1
  K  K15  1  0.16977791  0.74552300  0.50583057  1
  K  K16  1  0.49637972  0.25194224  0.00480699  1
  K  K17  1  0.51319675  0.25993913  0.49765319  1
  K  K18  1  0.50452111  0.73976279  -0.01147046  1
  K  K19  1  0.51092949  0.74992307  0.50848928  1
  K  K20  1  0.83450769  0.25421436  -0.00460954  1
  K  K21  1  0.81308726  0.23928578  0.50304741  1
  K  K22  1  0.82123211  0.74474556  -0.02019023  1
  K  K23  1  0.83060778  0.74665887  0.51472718  1
  Na  Na24  1  0.50394839  0.49949189  0.75261436  1
  Na  Na25  1  0.33402503  0.42070538  0.24027310  1
  Na  Na26  1  0.49650366  0.67083291  0.25421105  1
  Li  Li27  1  0.50510503  -0.00287595  0.75064360  1
  Li  Li28  1  0.66838986  0.74587060  0.74537614  1
  Li  Li29  1  0.82445433  0.67224521  0.75205810  1
  Li  Li30  1  0.34296369  0.91822844  0.74996007  1
  Li  Li31  1  0.65872508  0.07597583  0.74780352  1
  Mg  Mg32  1  0.66731808  0.25088434  0.24835748  1
  Mg  Mg33  1  -0.00095539  0.74817426  0.74695216  1
  Mg  Mg34  1  0.33397545  0.24695588  0.74927118  1
  Mg  Mg35  1  0.83031284  -0.00291104  0.74847440  1
  Mg  Mg36  1  -0.00106634  0.24990225  0.75276622  1
  Mg  Mg37  1  0.33830401  0.75403837  0.75364879  1
  Mg  Mg38  1  0.17010208  0.50203575  0.75034325  1
  Mg  Mg39  1  0.49870927  0.50318472  0.24786852  1
  Mg  Mg40  1  0.83384701  0.50149168  0.74986406  1
  Mg  Mg41  1  0.33628183  0.25143531  0.24358012  1
  Mg  Mg42  1  -0.00293370  0.75054444  0.25501856  1
  Mg  Mg43  1  0.83103475  -0.00145772  0.25594257  1
  Mg  Mg44  1  0.16749880  0.50101038  0.24676698  1
  Mg  Mg45  1  0.16368472  0.00118023  0.24990786  1
  Mg  Mg46  1  0.83376231  0.50029747  0.24763296  1
  Mg  Mg47  1  0.16940856  -0.00228669  0.75299565  1
  Mg  Mg48  1  0.00104959  0.25183114  0.24495976  1
  Mg  Mg49  1  0.32907117  0.75144694  0.25446448  1
  Mg  Mg50  1  0.66642646  0.24660858  0.74849971  1
  Mg  Mg51  1  0.66334724  0.75143050  0.25251207  1
  Mg  Mg52  1  0.49795602  0.00257215  0.24948305  1
  Mg  Mg53  1  0.16302003  0.83545996  0.25556414  1
  Mg  Mg54  1  0.83248715  0.33529602  0.24534856  1
  Mg  Mg55  1  0.66688347  0.91614677  0.25475843  1
  Mg  Mg56  1  0.33044271  0.91693235  0.25160457  1
  Mg  Mg57  1  0.66410628  0.91686934  0.75032413  1
  Mg  Mg58  1  0.50000483  0.33606680  0.24474861  1
  Mg  Mg59  1  0.17029894  0.83442090  0.75035679  1
  Mg  Mg60  1  -0.00245935  0.08230364  0.75025329  1
  Mg  Mg61  1  -0.00010162  0.58412539  0.25170253  1
  Mg  Mg62  1  0.83000445  0.82994513  0.74990992  1
  Mg  Mg63  1  0.16634137  0.16435331  0.75162978  1
  Mg  Mg64  1  0.00134471  0.41543502  0.24368675  1
  Mg  Mg65  1  0.49726648  0.83507903  0.25207670  1
  Mg  Mg66  1  0.16837917  0.33551299  0.24203571  1
  Mg  Mg67  1  0.33588538  0.07728505  0.75202145  1
  Mg  Mg68  1  0.50324955  0.83800430  0.75334277  1
  Mg  Mg69  1  -0.00175559  0.91364983  0.74827530  1
  Mg  Mg70  1  -0.00297107  0.91539236  0.25558180  1
  Mg  Mg71  1  0.33262654  0.08603500  0.24624176  1
  Mg  Mg72  1  0.33399339  0.58751229  0.25294527  1
  Mg  Mg73  1  0.66950186  0.58624618  0.75056713  1
  Mg  Mg74  1  0.66641936  0.41513858  0.74906922  1
  Mg  Mg75  1  0.83189280  0.16622454  0.24932591  1
  Mg  Mg76  1  0.49943852  0.16813592  0.24660402  1
  Mg  Mg77  1  0.66610713  0.08545325  0.24989398  1
  Mg  Mg78  1  -0.00212891  0.08510874  0.24813728  1
  Mg  Mg79  1  0.50222107  0.15992303  0.75054047  1
  Mg  Mg80  1  0.83183181  0.66688311  0.25235249  1
  Mg  Mg81  1  0.83373770  0.83460878  0.25595343  1
  Mg  Mg82  1  0.16712612  0.66655294  0.25320800  1
  Mg  Mg83  1  0.33777695  0.41540383  0.75067248  1
  Mg  Mg84  1  0.16813484  0.33437870  0.75252524  1
  Mg  Mg85  1  0.82794769  0.16277399  0.74875779  1
  Mg  Mg86  1  0.50611506  0.66922791  0.75188258  1
  Mg  Mg87  1  0.33873744  0.58602764  0.74983692  1
  Mg  Mg88  1  0.16778411  0.66770382  0.74985420  1
  Mg  Mg89  1  0.16599957  0.16707845  0.24414044  1
  Mg  Mg90  1  0.66479990  0.58545112  0.25089941  1
  Mg  Mg91  1  0.00024609  0.41596124  0.75095951  1
  Mg  Mg92  1  0.66618634  0.41645113  0.24526766  1
  Mg  Mg93  1  0.83324537  0.33249365  0.75060869  1
  Mg  Mg94  1  0.50161970  0.33084294  0.74833777  1
  Mg  Mg95  1  -0.00178841  0.58572990  0.74740512  1
  Fe  Fe96  1  0.69058903  0.33217273  0.61001589  1
  Fe  Fe97  1  0.51998455  0.58613390  0.60917659  1
  Fe  Fe98  1  0.51827217  0.41465650  0.60649791  1
  Fe  Fe99  1  0.97818952  0.82663829  0.39630094  1
  Fe  Fe100  1  0.86381510  0.91868722  0.61085288  1
  Fe  Fe101  1  0.64354746  0.67086048  0.89216716  1
  Fe  Fe102  1  0.02657642  0.66428853  0.60870478  1
  Fe  Fe103  1  0.30767729  0.66837208  0.39435470  1
  Fe  Fe104  1  0.36130370  0.33823430  0.10303630  1
  Fe  Fe105  1  0.64076447  0.16547704  0.38824318  1
  Fe  Fe106  1  0.47313699  0.57903649  0.89360014  1
  Fe  Fe107  1  0.97734744  0.33444417  0.89066459  1
  Fe  Fe108  1  0.80629695  0.91174097  0.39516330  1
  Fe  Fe109  1  0.69546854  0.33371535  0.10682176  1
  Fe  Fe110  1  0.35555205  0.16568150  0.10436532  1
  Fe  Fe111  1  0.69014849  0.82863973  0.61143429  1
  Fe  Fe112  1  0.03045475  0.33505074  0.10545429  1
  Si  Si113  1  0.52202277  0.58821222  0.11640896  1
  Si  Si114  1  0.64317155  0.66646012  0.38695808  1
  Si  Si115  1  0.64071796  0.84307072  0.89168668  1
  Si  Si116  1  0.03320505  0.33640108  0.61597012  1
  Si  Si117  1  0.02624181  0.17082877  0.61597478  1
  Si  Si118  1  0.14144985  0.91226814  0.88702781  1
  Si  Si119  1  0.13871159  0.92571577  0.38950613  1
  Si  Si120  1  0.97347250  0.17181233  0.38282373  1
  Si  Si121  1  0.30432173  0.16371842  0.88517354  1
  Si  Si122  1  0.35768499  0.83755964  0.61937381  1
  Si  Si123  1  0.30701583  0.67101648  0.88888245  1
  Si  Si124  1  0.85784239  0.07966240  0.11490818  1
  Si  Si125  1  0.69527808  0.65641357  0.61118994  1
  Si  Si126  1  0.81083674  0.91726716  0.88759053  1
  Si  Si127  1  0.19982174  0.41565346  0.61636384  1
  Si  Si128  1  0.97876561  0.65870242  0.38749030  1
  Si  Si129  1  0.81435755  0.08276747  0.38860986  1
  Si  Si130  1  0.53230909  0.42500197  0.10784870  1
  Si  Si131  1  0.14626690  0.41253663  0.38200921  1
  Si  Si132  1  0.35231189  0.66987113  0.11565162  1
  Si  Si133  1  0.30349324  0.84087411  0.38955465  1
  Si  Si134  1  0.47330549  0.40271094  0.88809645  1
  Si  Si135  1  0.47694755  0.57902400  0.38912210  1
  Si  Si136  1  0.31086475  0.33002692  0.37990744  1
  Si  Si137  1  0.02004215  0.66839494  0.11636045  1
  Si  Si138  1  0.85736705  0.08931136  0.61280364  1
  Si  Si139  1  0.47874489  0.41585409  0.38185825  1
  Si  Si140  1  0.30500906  0.32859276  0.88525280  1
  Si  Si141  1  0.80866869  0.58625803  0.38636434  1
  Si  Si142  1  0.35628580  0.32281293  0.61197143  1
  Si  Si143  1  0.13817280  0.57650109  0.38649643  1
  Si  Si144  1  0.31089889  0.83635983  0.88684979  1
  Si  Si145  1  0.81096843  0.08126209  0.88489631  1
  Si  Si146  1  0.14363562  0.58798896  0.88510545  1
  Si  Si147  1  0.69005682  0.83306284  0.11701042  1
  Si  Si148  1  0.18556114  0.91232647  0.11601139  1
  Si  Si149  1  0.52224966  0.91502248  0.61330673  1
  Si  Si150  1  0.18671632  0.07654560  0.11032172  1
  Si  Si151  1  0.68372818  0.16212803  0.61460914  1
  Si  Si152  1  0.03352845  0.83548808  0.61274066  1
  Si  Si153  1  0.64144869  0.32745932  0.88604390  1
  Si  Si154  1  0.63085626  0.83352792  0.38874332  1
  Si  Si155  1  0.52306266  0.91372311  0.11626983  1
  Si  Si156  1  0.35364773  0.15923644  0.61533215  1
  Si  Si157  1  0.14772391  0.42339896  0.88735385  1
  Si  Si158  1  0.47447909  0.92245986  0.88704888  1
  Si  Si159  1  0.35905840  0.67655114  0.61569945  1
  Si  Si160  1  0.64587860  0.33720643  0.38435287  1
  Si  Si161  1  0.18727021  0.08001346  0.61621854  1
  Si  Si162  1  0.35421645  0.83417425  0.11555175  1
  Si  Si163  1  0.97579344  0.33673231  0.38241524  1
  Si  Si164  1  0.81154059  0.58158288  0.88682535  1
  Si  Si165  1  0.20121717  0.58247890  0.61391157  1
  Si  Si166  1  0.97520298  0.83013134  0.88639953  1
  Si  Si167  1  0.19539351  0.91736081  0.61892380  1
  Si  Si168  1  0.18568832  0.58922570  0.11244850  1
  Si  Si169  1  0.68918025  0.66899580  0.11601287  1
  Si  Si170  1  0.46931784  0.08352339  0.38615109  1
  Si  Si171  1  0.86278078  0.41054534  0.61262094  1
  Si  Si172  1  0.13945935  0.09052701  0.38303202  1
  Si  Si173  1  0.86086665  0.57427379  0.61135342  1
  Si  Si174  1  0.64395188  0.16376800  0.88507519  1
  Si  Si175  1  0.14082220  0.07732169  0.88603338  1
  Si  Si176  1  0.52901496  0.07855222  0.11095438  1
  Si  Si177  1  0.30541186  0.16702619  0.38194468  1
  Si  Si178  1  0.47392826  0.08750819  0.88711879  1
  Si  Si179  1  0.85553732  0.91572824  0.11651020  1
  Si  Si180  1  0.97763770  0.16258286  0.88818185  1
  Si  Si181  1  0.81133770  0.42106705  0.38363518  1
  Si  Si182  1  0.02020721  0.83242725  0.11707770  1
  Si  Si183  1  0.69272205  0.16175465  0.11122688  1
  Si  Si184  1  0.02157138  0.16229481  0.10997702  1
  Si  Si185  1  0.46878520  0.91912123  0.38448701  1
  Si  Si186  1  0.97616707  0.66438216  0.88452557  1
  Si  Si187  1  0.86400689  0.42150866  0.10949796  1
  Si  Si188  1  0.51964416  0.07894295  0.61642568  1
  Si  Si189  1  0.19286547  0.42594393  0.10679490  1
  Si  Si190  1  0.85398192  0.58570550  0.11525318  1
  Si  Si191  1  0.80476988  0.41569108  0.88767390  1
  O  O192  1  0.26448272  0.09926556  0.07560475  1
  O  O193  1  0.26866846  0.11047367  0.58571609  1
  O  O194  1  0.26507208  0.62620318  0.08251715  1
  O  O195  1  0.28224762  0.61883606  0.58745436  1
  O  O196  1  0.61821717  0.10140699  0.08668065  1
  O  O197  1  0.60280302  0.10789944  0.58698044  1
  O  O198  1  0.60075117  0.62751019  0.08712252  1
  O  O199  1  0.61922333  0.60335858  0.57607301  1
  O  O200  1  0.94061694  0.10725029  0.08546492  1
  O  O201  1  0.93416087  0.13648584  0.58612038  1
  O  O202  1  0.93557241  0.62060823  0.08702953  1
  O  O203  1  0.93721808  0.60251358  0.57526174  1
  O  O204  1  0.12360407  0.36812555  0.07067812  1
  O  O205  1  0.11116764  0.37339719  0.58557398  1
  O  O206  1  0.10258675  0.86203615  0.08695532  1
  O  O207  1  0.12351929  0.85901834  0.58810415  1
  O  O208  1  0.45854069  0.37213202  0.07188958  1
  O  O209  1  0.43186751  0.34435329  0.57491334  1
  O  O210  1  0.43426462  0.87068393  0.08735617  1
  O  O211  1  0.43580550  0.86683101  0.58491813  1
  O  O212  1  0.79415673  0.36339531  0.07676130  1
  O  O213  1  0.79332797  0.35343072  0.57919851  1
  O  O214  1  0.76914330  0.87038050  0.08758033  1
  O  O215  1  0.77582594  0.86392514  0.57002258  1
  O  O216  1  0.28186970  0.41392916  0.08216574  1
  O  O217  1  0.27117474  0.37208898  0.58436658  1
  O  O218  1  0.26697915  0.87981547  0.08647038  1
  O  O219  1  0.28067964  0.89452319  0.59068679  1
  O  O220  1  0.61876966  0.40804008  0.07957232  1
  O  O221  1  0.60937235  0.39226600  0.56527808  1
  O  O222  1  0.60187085  0.87574970  0.08756567  1
  O  O223  1  0.59405290  0.88534672  0.57427587  1
  O  O224  1  0.95104719  0.40859095  0.08176401  1
  O  O225  1  0.95156943  0.38523751  0.58630293  1
  O  O226  1  0.93641375  0.88111110  0.08705196  1
  O  O227  1  0.96702500  0.89734160  0.58415220  1
  O  O228  1  0.10084924  0.12347495  0.08207674  1
  O  O229  1  0.10255713  0.12867684  0.58641809  1
  O  O230  1  0.10132157  0.63983973  0.08498400  1
  O  O231  1  0.11795858  0.62218041  0.57539090  1
  O  O232  1  0.45211442  0.12613016  0.07324029  1
  O  O233  1  0.43373102  0.12747064  0.58445476  1
  O  O234  1  0.43574280  0.63628826  0.09026011  1
  O  O235  1  0.43841106  0.65934229  0.58071685  1
  O  O236  1  0.77660859  0.12884666  0.08358894  1
  O  O237  1  0.76847733  0.13214491  0.58657602  1
  O  O238  1  0.76989830  0.63445132  0.08739512  1
  O  O239  1  0.77900701  0.62387854  0.58228124  1
  O  O240  1  0.05927134  0.12530883  0.41231405  1
  O  O241  1  0.06160838  0.11130965  0.91615606  1
  O  O242  1  0.04617228  0.59226225  0.40920481  1
  O  O243  1  0.06396082  0.62066849  0.91647952  1
  O  O244  1  0.38022821  0.10954162  0.41068960  1
  O  O245  1  0.39712033  0.12984721  0.91711775  1
  O  O246  1  0.40523511  0.61455016  0.42534657  1
  O  O247  1  0.38208762  0.62290906  0.92840391  1
  O  O248  1  0.73577909  0.10901822  0.42237866  1
  O  O249  1  0.73018488  0.11657519  0.91410685  1
  O  O250  1  0.73092199  0.62220714  0.41733141  1
  O  O251  1  0.74704193  0.62351505  0.92559682  1
  O  O252  1  0.23052855  0.36409327  0.41156913  1
  O  O253  1  0.23486239  0.37712958  0.91448930  1
  O  O254  1  0.22509565  0.88056122  0.41750568  1
  O  O255  1  0.23099719  0.87249749  0.91792709  1
  O  O256  1  0.56422488  0.37037273  0.41297468  1
  O  O257  1  0.55955277  0.35547702  0.91649977  1
  O  O258  1  0.54187833  0.86025206  0.41179574  1
  O  O259  1  0.56587299  0.88809337  0.92325614  1
  O  O260  1  0.89897719  0.37576096  0.41288593  1
  O  O261  1  0.88408557  0.36851118  0.92469069  1
  O  O262  1  0.88116039  0.84080138  0.42987784  1
  O  O263  1  0.89914807  0.87144732  0.91733317  1
  O  O264  1  0.06550163  0.37779320  0.41168088  1
  O  O265  1  0.07195807  0.39319657  0.92129474  1
  O  O266  1  0.06194601  0.89881841  0.42349088  1
  O  O267  1  0.06536334  0.87185159  0.91827316  1
  O  O268  1  0.39645399  0.37696051  0.40677528  1
  O  O269  1  0.39814510  0.35786591  0.91764813  1
  O  O270  1  0.38370468  0.89593285  0.41271019  1
  O  O271  1  0.39675141  0.88206371  0.91824991  1
  O  O272  1  0.73005268  0.38850842  0.41147931  1
  O  O273  1  0.72080211  0.38110579  0.91386590  1
  O  O274  1  0.70190622  0.88946593  0.42119959  1
  O  O275  1  0.73254620  0.88582711  0.92087995  1
  O  O276  1  0.22057284  0.14209773  0.41167518  1
  O  O277  1  0.23091964  0.11786266  0.91468581  1
  O  O278  1  0.21142911  0.62835880  0.42381402  1
  O  O279  1  0.21965094  0.64374578  0.91452824  1
  O  O280  1  0.54322054  0.13589206  0.42104620  1
  O  O281  1  0.56532405  0.12695714  0.91716364  1
  O  O282  1  0.56686524  0.62351989  0.41340408  1
  O  O283  1  0.56821539  0.62546080  0.93765817  1
  O  O284  1  0.89388603  0.14096190  0.41300177  1
  O  O285  1  0.89756431  0.12576418  0.91754303  1
  O  O286  1  0.89251803  0.63388172  0.41501204  1
  O  O287  1  0.90441514  0.62102266  0.91616184  1
  O  O288  1  0.16115407  -0.00762902  0.08595271  1
  O  O289  1  0.16836299  -0.00164870  0.58739566  1
  O  O290  1  0.16246518  0.50974471  0.08111901  1
  O  O291  1  0.19540169  0.49743853  0.58708081  1
  O  O292  1  0.51219557  -0.00576614  0.08416619  1
  O  O293  1  0.49771863  -0.00170263  0.58532821  1
  O  O294  1  0.50488291  0.50895159  0.08300382  1
  O  O295  1  0.47067649  0.50081360  0.57554296  1
  O  O296  1  0.84033923  -0.00280759  0.08577267  1
  O  O297  1  0.85088117  0.01362353  0.57553976  1
  O  O298  1  0.83354544  0.50515873  0.08604037  1
  O  O299  1  0.84023735  0.49114468  0.58180447  1
  O  O300  1  -0.00012418  0.23951146  0.07624249  1
  O  O301  1  0.02594439  0.25343208  0.58652500  1
  O  O302  1  0.00091739  0.75081950  0.08788443  1
  O  O303  1  0.00708135  0.75857344  0.57799166  1
  O  O304  1  0.32658315  0.25111160  0.06118377  1
  O  O305  1  0.32675917  0.23994637  0.58652136  1
  O  O306  1  0.33999486  0.75282344  0.08444734  1
  O  O307  1  0.32495240  0.75803151  0.58963517  1
  O  O308  1  0.66712148  0.23798519  0.07619494  1
  O  O309  1  0.66048730  0.23809243  0.57795665  1
  O  O310  1  0.67934532  0.75145703  0.08687965  1
  O  O311  1  0.67519625  0.73513509  0.57649064  1
  O  O312  1  0.16016169  0.01027627  0.41357443  1
  O  O313  1  0.14955273  -0.00494035  0.91626571  1
  O  O314  1  0.16180245  0.49327602  0.41306438  1
  O  O315  1  0.16791547  0.50687643  0.91428163  1
  O  O316  1  0.49028907  0.00043700  0.41372509  1
  O  O317  1  0.47692208  0.00574577  0.91851677  1
  O  O318  1  0.49194865  0.49535275  0.41663419  1
  O  O319  1  0.48128770  0.48084556  0.92188263  1
  O  O320  1  0.84966747  0.00534792  0.41619019  1
  O  O321  1  0.82659739  -0.00005992  0.91816875  1
  O  O322  1  0.82600478  0.50319009  0.41369428  1
  O  O323  1  0.81910531  0.49820833  0.91707549  1
  O  O324  1  0.32772534  0.24821454  0.41216238  1
  O  O325  1  0.29777803  0.24591866  0.91221713  1
  O  O326  1  0.32140573  0.76430699  0.42518734  1
  O  O327  1  0.32095572  0.75472325  0.91831067  1
  O  O328  1  0.66709062  0.25986517  0.41862638  1
  O  O329  1  0.66216052  0.24537321  0.91667940  1
  O  O330  1  0.64755357  0.74955549  0.41559520  1
  O  O331  1  0.65066089  0.76616087  0.92878536  1
  O  O332  1  0.98989546  0.25431493  0.41170537  1
  O  O333  1  0.99848695  0.23966111  0.92252089  1
  O  O334  1  1.01850968  0.73207161  0.42007070  1
  O  O335  1  0.98404014  0.74744198  0.91695644  1
  O  O336  1  0.20558233  0.08052334  0.19161362  1
  O  O337  1  0.20583912  0.08327759  0.69629439  1
  O  O338  1  0.20394282  0.58817622  0.19262255  1
  O  O339  1  0.21241981  0.58380292  0.69490780  1
  O  O340  1  0.54163457  0.08048098  0.19180137  1
  O  O341  1  0.53618444  0.08260280  0.69513355  1
  O  O342  1  0.54776704  0.58278617  0.19538308  1
  O  O343  1  0.54942311  0.59059443  0.69837907  1
  O  O344  1  0.87531737  0.08142480  0.19548028  1
  O  O345  1  0.87843466  0.08494038  0.69377549  1
  O  O346  1  0.87532819  0.58605617  0.19595893  1
  O  O347  1  0.88361616  0.57303572  0.69120733  1
  O  O348  1  0.04564763  0.33231999  0.19771480  1
  O  O349  1  0.04952392  0.33328953  0.69613013  1
  O  O350  1  0.04094084  0.83452680  0.19715486  1
  O  O351  1  0.04845487  0.83323839  0.69459474  1
  O  O352  1  0.38449316  0.32578967  0.19322023  1
  O  O353  1  0.37380529  0.32775354  0.69290099  1
  O  O354  1  0.37114232  0.83580985  0.19576473  1
  O  O355  1  0.37896088  0.83439314  0.69863130  1
  O  O356  1  0.71330501  0.33347860  0.19911090  1
  O  O357  1  0.71392688  0.33035639  0.70229747  1
  O  O358  1  0.70861603  0.83363651  0.19706961  1
  O  O359  1  0.71117042  0.83478524  0.70189556  1
  O  O360  1  0.19691466  0.42193603  0.18693551  1
  O  O361  1  0.21267031  0.41413643  0.69660969  1
  O  O362  1  0.20525547  0.91494445  0.19645657  1
  O  O363  1  0.20685800  0.91907854  0.69834989  1
  O  O364  1  0.54557134  0.42081261  0.18959786  1
  O  O365  1  0.54852074  0.40519755  0.69702285  1
  O  O366  1  0.54095129  0.91665551  0.19660864  1
  O  O367  1  0.54404461  0.91403138  0.69296880  1
  O  O368  1  0.87775175  0.41913238  0.19153917  1
  O  O369  1  0.87978152  0.41331574  0.69348441  1
  O  O370  1  0.87586086  0.91732087  0.19639287  1
  O  O371  1  0.87965184  0.91611163  0.70288331  1
  O  O372  1  0.04123227  0.16411448  0.19130486  1
  O  O373  1  0.04458634  0.16784044  0.69648152  1
  O  O374  1  0.04013517  0.66804926  0.19682832  1
  O  O375  1  0.04831134  0.66597922  0.70028992  1
  O  O376  1  0.37769378  0.16436115  0.19731990  1
  O  O377  1  0.37191828  0.16195363  0.69546554  1
  O  O378  1  0.36278555  0.67316136  0.19446586  1
  O  O379  1  0.37502772  0.67245276  0.69624367  1
  O  O380  1  0.71320263  0.16457437  0.19223636  1
  O  O381  1  0.70797128  0.16558771  0.69458122  1
  O  O382  1  0.70925850  0.66859530  0.19633152  1
  O  O383  1  0.71391556  0.65934064  0.69092857  1
  O  O384  1  0.12100123  0.08684773  0.30239336  1
  O  O385  1  0.12211962  0.08186190  0.80589118  1
  O  O386  1  0.12215063  0.58212058  0.30540271  1
  O  O387  1  0.12609647  0.58399675  0.80505511  1
  O  O388  1  0.45444972  0.08261774  0.30502277  1
  O  O389  1  0.45308405  0.08840812  0.80825683  1
  O  O390  1  0.45308805  0.57783781  0.30940120  1
  O  O391  1  0.45147759  0.59314491  0.80434592  1
  O  O392  1  0.79215132  0.08535340  0.30647245  1
  O  O393  1  0.79843724  0.08090696  0.80587597  1
  O  O394  1  0.79066368  0.58438800  0.30565482  1
  O  O395  1  0.79417505  0.58052606  0.80720204  1
  O  O396  1  0.28481662  0.32587927  0.30098191  1
  O  O397  1  0.28873305  0.32989203  0.80465842  1
  O  O398  1  0.28438724  0.83818828  0.30798701  1
  O  O399  1  0.28924741  0.83405419  0.80773433  1
  O  O400  1  0.62610626  0.33586331  0.30348752  1
  O  O401  1  0.62287083  0.32666372  0.80631146  1
  O  O402  1  0.61856729  0.83389255  0.30736445  1
  O  O403  1  0.62039448  0.84369818  0.81268729  1
  O  O404  1  0.95605480  0.33531411  0.30227344  1
  O  O405  1  0.95756238  0.33271770  0.79902349  1
  O  O406  1  0.95519963  0.83281830  0.30262482  1
  O  O407  1  0.96233577  0.83218558  0.80710730  1
  O  O408  1  0.12552730  0.41546095  0.30207985  1
  O  O409  1  0.12777186  0.41863218  0.80635459  1
  O  O410  1  0.12110095  0.92117172  0.30782498  1
  O  O411  1  0.12291401  0.91454434  0.80713570  1
  O  O412  1  0.46777253  0.41831331  0.30259798  1
  O  O413  1  0.45163557  0.40195189  0.80820908  1
  O  O414  1  0.45249735  0.92028889  0.30356763  1
  O  O415  1  0.45816329  0.91875871  0.80869627  1
  O  O416  1  0.79486387  0.41957345  0.30333079  1
  O  O417  1  0.79446929  0.41481333  0.80733680  1
  O  O418  1  0.78657677  0.91558310  0.30159327  1
  O  O419  1  0.79332240  0.91732692  0.80852260  1
  O  O420  1  0.28599318  0.16563520  0.30163526  1
  O  O421  1  0.28788986  0.16416302  0.80493294  1
  O  O422  1  0.28552924  0.66965844  0.30234193  1
  O  O423  1  0.29016223  0.66934832  0.80815130  1
  O  O424  1  0.62138015  0.16666227  0.29617369  1
  O  O425  1  0.62206742  0.16662558  0.80612638  1
  O  O426  1  0.63349584  0.66799716  0.30750464  1
  O  O427  1  0.62622450  0.66785286  0.80290026  1
  O  O428  1  0.95754556  0.16906662  0.30226031  1
  O  O429  1  0.95950862  0.16373107  0.80733078  1
  O  O430  1  0.95550714  0.66395072  0.30602154  1
  O  O431  1  0.96369616  0.66642861  0.80569830  1
  F  F432  1  0.04238177  -0.00158211  0.20257715  1
  F  F433  1  0.04735919  0.00091578  0.70458253  1
  F  F434  1  0.04370381  0.50411017  0.20187143  1
  F  F435  1  0.05015297  0.49761642  0.70277820  1
  F  F436  1  0.37515204  -0.00150812  0.20058756  1
  F  F437  1  0.36921399  0.00170470  0.70001316  1
  F  F438  1  0.38300928  0.51780301  0.19668752  1
  F  F439  1  0.36530448  0.49800762  0.70031260  1
  F  F440  1  0.71057601  0.00044405  0.20289135  1
  F  F441  1  0.71431389  -0.00372799  0.70014384  1
  F  F442  1  0.71437015  0.50400963  0.20207574  1
  F  F443  1  0.71629798  0.49637674  0.70227063  1
  F  F444  1  0.21008746  0.24777184  0.19634163  1
  F  F445  1  0.21009500  0.24816751  0.70290213  1
  F  F446  1  0.20549898  0.75552542  0.20323703  1
  F  F447  1  0.21525879  0.75085246  0.70459591  1
  F  F448  1  0.54734431  0.25167819  0.19869401  1
  F  F449  1  0.54298828  0.24440417  0.70238015  1
  F  F450  1  0.54706883  0.76117692  0.19975312  1
  F  F451  1  0.53979243  0.75522118  0.70483909  1
  F  F452  1  0.87882480  0.24867145  0.20037012  1
  F  F453  1  0.88024035  0.24466304  0.70270804  1
  F  F454  1  0.87615307  0.74928967  0.20273249  1
  F  F455  1  0.88289414  0.75437023  0.70020121  1
  F  F456  1  0.28446713  0.00226650  0.29565478  1
  F  F457  1  0.28242094  0.00786577  0.80708595  1
  F  F458  1  0.28143334  0.50872115  0.29801407  1
  F  F459  1  0.28840720  0.49864630  0.80004971  1
  F  F460  1  0.61863129  0.00141082  0.29698719  1
  F  F461  1  0.62614060  -0.00117532  0.80125553  1
  F  F462  1  0.62424510  0.50013432  0.29661011  1
  F  F463  1  0.63884511  0.49754228  0.80355581  1
  F  F464  1  0.95531156  0.00339259  0.29836652  1
  F  F465  1  0.95820824  0.00060488  0.80043199  1
  F  F466  1  0.95483450  0.49796327  0.29586988  1
  F  F467  1  0.95851408  0.49948441  0.79833550  1
  F  F468  1  0.12147238  0.24706722  0.29530305  1
  F  F469  1  0.12274317  0.24883508  0.79980208  1
  F  F470  1  0.11896874  0.75054387  0.29954747  1
  F  F471  1  0.12395152  0.75249345  0.79998572  1
  F  F472  1  0.45779103  0.25014928  0.29812852  1
  F  F473  1  0.45262353  0.24533486  0.79666370  1
  F  F474  1  0.44569862  0.76336160  0.30289444  1
  F  F475  1  0.45562719  0.75477609  0.80427177  1
  F  F476  1  0.79229708  0.24997724  0.29756174  1
  F  F477  1  0.79074792  0.24492584  0.80041071  1
  F  F478  1  0.78621223  0.74944584  0.29858016  1
  F  F479  1  0.80256777  0.75313259  0.80827204  1
