# generated using pymatgen
data_K24Na3Li5Mg64Fe17Si79(O5F)48
_symmetry_space_group_name_H-M   'P 1'
_cell_length_a   16.09527860
_cell_length_b   18.58860439
_cell_length_c   20.55445439
_cell_angle_alpha   89.99920604
_cell_angle_beta   100.00216983
_cell_angle_gamma   89.99453664
_symmetry_Int_Tables_number   1
_chemical_formula_structural   K24Na3Li5Mg64Fe17Si79(O5F)48
_chemical_formula_sum   'K24 Na3 Li5 Mg64 Fe17 Si79 O240 F48'
_cell_volume   6056.19419510
_cell_formula_units_Z   1
loop_
 _symmetry_equiv_pos_site_id
 _symmetry_equiv_pos_as_xyz
  1  'x, y, z'
loop_
 _atom_site_type_symbol
 _atom_site_label
 _atom_site_symmetry_multiplicity
 _atom_site_fract_x
 _atom_site_fract_y
 _atom_site_fract_z
 _atom_site_occupancy
  K  K0  1  -0.00508769  0.00675541  -0.00499366  1
  K  K1  1  -0.00269369  0.00076462  0.49796097  1
  K  K2  1  -0.00624800  0.49918889  -0.01148930  1
  K  K3  1  0.00096274  0.50142846  0.50644543  1
  K  K4  1  0.32550363  -0.00410426  0.00723622  1
  K  K5  1  0.33706495  0.00452186  0.49235256  1
  K  K6  1  0.33655683  0.49909526  0.00164447  1
  K  K7  1  0.33143020  0.50291709  0.50002703  1
  K  K8  1  0.67747373  0.00470958  0.00242344  1
  K  K9  1  0.67058711  0.00078696  0.49871598  1
  K  K10  1  0.67385538  0.49375929  -0.00803691  1
  K  K11  1  0.67944746  0.49463143  0.50992279  1
  K  K12  1  0.14601415  0.25165051  -0.00398232  1
  K  K13  1  0.16046254  0.24701438  0.49259788  1
  K  K14  1  0.15343203  0.74762559  -0.00107558  1
  K  K15  1  0.16898087  0.74073949  0.49878976  1
  K  K16  1  0.50258973  0.25366586  0.00022305  1
  K  K17  1  0.50578912  0.25450435  0.49961218  1
  K  K18  1  0.50020534  0.74825938  -0.00068980  1
  K  K19  1  0.49689125  0.74510780  0.50241020  1
  K  K20  1  0.85292267  0.25077923  -0.00456580  1
  K  K21  1  0.83544080  0.25986975  0.50733833  1
  K  K22  1  0.84922034  0.75047831  -0.00615111  1
  K  K23  1  0.83574128  0.75164227  0.50420864  1
  Na  Na24  1  -0.00418395  0.24723465  0.24117158  1
  Na  Na25  1  0.83091894  0.83239942  0.25309402  1
  Na  Na26  1  -0.00089512  0.91917798  0.75367764  1
  Li  Li27  1  0.84271705  0.49662700  0.74507910  1
  Li  Li28  1  0.16632792  -0.00151798  0.24514108  1
  Li  Li29  1  0.83329052  0.34435616  0.74383769  1
  Li  Li30  1  -0.00377326  0.57805031  0.75668549  1
  Li  Li31  1  0.83813176  0.16670008  0.24691099  1
  Mg  Mg32  1  0.33400598  0.24850655  0.25254914  1
  Mg  Mg33  1  -0.00112522  0.74736876  0.75324732  1
  Mg  Mg34  1  0.49976956  0.00037445  0.74848547  1
  Mg  Mg35  1  0.33095024  0.25118377  0.74943864  1
  Mg  Mg36  1  0.49910480  0.49946439  0.74656371  1
  Mg  Mg37  1  0.67201756  0.24866465  0.25129644  1
  Mg  Mg38  1  0.33299192  0.75390550  0.25137165  1
  Mg  Mg39  1  -0.00168384  0.75093707  0.25033025  1
  Mg  Mg40  1  0.16450277  0.00093125  0.75024799  1
  Mg  Mg41  1  0.83378401  0.00156660  0.25131331  1
  Mg  Mg42  1  0.49799813  0.00062343  0.25196224  1
  Mg  Mg43  1  0.66627386  0.75204907  0.25352852  1
  Mg  Mg44  1  0.67061565  0.25189986  0.75069381  1
  Mg  Mg45  1  0.83432743  0.49826213  0.24708843  1
  Mg  Mg46  1  0.16647850  0.50024461  0.25152895  1
  Mg  Mg47  1  0.16072320  0.49946937  0.74937189  1
  Mg  Mg48  1  0.50098109  0.49919859  0.25446824  1
  Mg  Mg49  1  0.33355976  0.74842453  0.74917207  1
  Mg  Mg50  1  -0.00873919  0.25491476  0.75132196  1
  Mg  Mg51  1  0.66722469  0.74617088  0.74825511  1
  Mg  Mg52  1  0.83186307  0.00086947  0.75432450  1
  Mg  Mg53  1  0.16255216  0.66426696  0.75099240  1
  Mg  Mg54  1  0.16582203  0.16267976  0.24715197  1
  Mg  Mg55  1  0.50277237  0.33440182  0.25417848  1
  Mg  Mg56  1  0.16736891  0.66637348  0.25362949  1
  Mg  Mg57  1  0.83377664  0.66624255  0.25096294  1
  Mg  Mg58  1  -0.00343372  0.08523085  0.75145917  1
  Mg  Mg59  1  0.33582315  0.41585201  0.25292301  1
  Mg  Mg60  1  0.66722793  0.91489306  0.75084191  1
  Mg  Mg61  1  0.66929947  0.41503346  0.25060819  1
  Mg  Mg62  1  0.16505270  0.83353296  0.75001271  1
  Mg  Mg63  1  0.49976709  0.33424620  0.74772576  1
  Mg  Mg64  1  0.50259034  0.16553523  0.25204819  1
  Mg  Mg65  1  0.32883312  0.58461072  0.74804821  1
  Mg  Mg66  1  0.00014970  0.08171335  0.24638082  1
  Mg  Mg67  1  0.49952393  0.16706451  0.75008218  1
  Mg  Mg68  1  0.66963235  0.58138011  0.74752048  1
  Mg  Mg69  1  0.16598969  0.33225226  0.24907977  1
  Mg  Mg70  1  0.83526704  0.32989379  0.24464993  1
  Mg  Mg71  1  0.66686159  0.91641995  0.25331117  1
  Mg  Mg72  1  0.49888657  0.83266819  0.74704339  1
  Mg  Mg73  1  0.49746960  0.66351695  0.74630866  1
  Mg  Mg74  1  0.16540978  0.83765736  0.24910804  1
  Mg  Mg75  1  0.16079433  0.16698976  0.74977336  1
  Mg  Mg76  1  0.67080796  0.41688521  0.74616031  1
  Mg  Mg77  1  0.83436245  0.83188797  0.75355200  1
  Mg  Mg78  1  0.83551936  0.65990706  0.75077254  1
  Mg  Mg79  1  -0.00074665  0.91671813  0.24759351  1
  Mg  Mg80  1  0.33199331  0.91602684  0.74711550  1
  Mg  Mg81  1  0.00129226  0.41493788  0.24752303  1
  Mg  Mg82  1  0.33388130  0.08248699  0.24959088  1
  Mg  Mg83  1  0.33530532  0.58557653  0.25462305  1
  Mg  Mg84  1  0.50209380  0.66677256  0.25401149  1
  Mg  Mg85  1  0.32907936  0.41595698  0.75037003  1
  Mg  Mg86  1  0.16124777  0.33568049  0.75021690  1
  Mg  Mg87  1  0.67057323  0.08522219  0.25140411  1
  Mg  Mg88  1  -0.00322306  0.41919780  0.74930385  1
  Mg  Mg89  1  0.33129677  0.08454169  0.74797135  1
  Mg  Mg90  1  0.66848019  0.58415955  0.25095700  1
  Mg  Mg91  1  0.00221634  0.58445099  0.25269380  1
  Mg  Mg92  1  0.66747973  0.08558757  0.75126431  1
  Mg  Mg93  1  0.33176771  0.91915066  0.25049724  1
  Mg  Mg94  1  0.50135483  0.83638415  0.25218450  1
  Mg  Mg95  1  0.83224283  0.16800588  0.75264381  1
  Fe  Fe96  1  0.48255462  0.08799465  0.39155027  1
  Fe  Fe97  1  0.02561761  0.32745319  0.60822374  1
  Fe  Fe98  1  0.14912368  0.58445355  0.89410168  1
  Fe  Fe99  1  0.14142470  0.58297888  0.39290910  1
  Fe  Fe100  1  0.02621955  0.33640071  0.10629360  1
  Fe  Fe101  1  0.35743149  0.66601534  0.60891916  1
  Fe  Fe102  1  0.19246160  0.41443148  0.60887057  1
  Fe  Fe103  1  0.47711665  0.91466620  0.39252342  1
  Fe  Fe104  1  0.19077991  0.91465350  0.10836243  1
  Fe  Fe105  1  0.47611771  0.41487096  0.39364041  1
  Fe  Fe106  1  0.79925215  0.08342598  0.89267354  1
  Fe  Fe107  1  0.97360369  0.66490108  0.89362777  1
  Fe  Fe108  1  0.64703341  0.82884563  0.39413547  1
  Fe  Fe109  1  0.14946422  0.41413085  0.89374857  1
  Fe  Fe110  1  0.69801005  0.33499185  0.61004204  1
  Fe  Fe111  1  0.69283797  0.66255154  0.60924113  1
  Fe  Fe112  1  0.97458509  0.16733895  0.89105749  1
  Si  Si113  1  0.52535515  0.41456394  0.61407511  1
  Si  Si114  1  0.18947453  0.08451814  0.61395909  1
  Si  Si115  1  0.46818676  0.58142589  0.88466779  1
  Si  Si116  1  0.31210656  0.67293227  0.38817053  1
  Si  Si117  1  0.85542932  0.58553403  0.11481698  1
  Si  Si118  1  0.63263719  0.66207476  0.88502166  1
  Si  Si119  1  0.19959983  0.42088650  0.11382178  1
  Si  Si120  1  0.97369667  0.16481958  0.38120461  1
  Si  Si121  1  0.85574011  0.07597284  0.61509425  1
  Si  Si122  1  0.85335416  0.91286725  0.61764394  1
  Si  Si123  1  0.79989039  0.58326889  0.88933958  1
  Si  Si124  1  0.30995631  0.16114691  0.88439486  1
  Si  Si125  1  0.18656835  0.58373776  0.61130965  1
  Si  Si126  1  0.36310455  0.83009765  0.11162457  1
  Si  Si127  1  0.63945565  0.82691754  0.88450062  1
  Si  Si128  1  0.02967744  0.67340619  0.61478194  1
  Si  Si129  1  0.47912661  0.91845099  0.88371110  1
  Si  Si130  1  0.31450962  0.83697000  0.88460243  1
  Si  Si131  1  0.64891423  0.66130058  0.38683874  1
  Si  Si132  1  0.80514594  0.91168946  0.88940293  1
  Si  Si133  1  0.96791515  0.66914397  0.38873923  1
  Si  Si134  1  0.80161110  0.41798713  0.88285736  1
  Si  Si135  1  0.97277697  0.83540122  0.38540384  1
  Si  Si136  1  0.52860127  0.58142537  0.11619600  1
  Si  Si137  1  0.68620717  0.83400321  0.61371671  1
  Si  Si138  1  0.01860264  0.15989229  0.61184035  1
  Si  Si139  1  0.52528733  0.91997794  0.11310592  1
  Si  Si140  1  0.13623838  0.08093914  0.38229486  1
  Si  Si141  1  0.81177194  0.08600937  0.38532013  1
  Si  Si142  1  0.30307103  0.83843068  0.38730668  1
  Si  Si143  1  0.69426839  0.16573515  0.11442687  1
  Si  Si144  1  0.97098186  0.34092334  0.88785707  1
  Si  Si145  1  0.85396633  0.42023221  0.10940022  1
  Si  Si146  1  0.63045864  0.17063952  0.88811247  1
  Si  Si147  1  0.30367960  0.16244649  0.38631491  1
  Si  Si148  1  0.31083691  0.67406646  0.88811695  1
  Si  Si149  1  0.02471901  0.83464773  0.61573067  1
  Si  Si150  1  0.36413774  0.66563254  0.11679704  1
  Si  Si151  1  0.47149671  0.08158641  0.88342118  1
  Si  Si152  1  0.69061986  0.67014440  0.11454476  1
  Si  Si153  1  0.02392986  0.66445520  0.11656755  1
  Si  Si154  1  0.52366888  0.91967877  0.61483637  1
  Si  Si155  1  0.01803142  0.83095822  0.11133779  1
  Si  Si156  1  0.85440576  0.91619674  0.11458099  1
  Si  Si157  1  0.31371904  0.32366130  0.88908131  1
  Si  Si158  1  0.36476854  0.33634753  0.11586216  1
  Si  Si159  1  0.63734741  0.33591388  0.88486936  1
  Si  Si160  1  0.14901337  0.91626409  0.88522248  1
  Si  Si161  1  0.52737380  0.08575576  0.11328877  1
  Si  Si162  1  0.19572574  0.58758368  0.11727849  1
  Si  Si163  1  0.69319376  0.33131434  0.11318064  1
  Si  Si164  1  0.81256601  0.41599401  0.38212210  1
  Si  Si165  1  0.30218951  0.32898666  0.38697066  1
  Si  Si166  1  0.86560667  0.58892538  0.61150635  1
  Si  Si167  1  0.68646711  0.83523648  0.11398741  1
  Si  Si168  1  0.13875919  0.41275539  0.38679588  1
  Si  Si169  1  0.97798996  0.83567634  0.88941477  1
  Si  Si170  1  0.18954472  0.91950587  0.61359358  1
  Si  Si171  1  0.14575616  0.08133266  0.88813145  1
  Si  Si172  1  0.65104833  0.17199278  0.38743186  1
  Si  Si173  1  0.86609672  0.42308079  0.60734336  1
  Si  Si174  1  0.69084607  0.16358429  0.61175818  1
  Si  Si175  1  0.80797036  0.57880171  0.38288987  1
  Si  Si176  1  0.85922477  0.07957016  0.11407514  1
  Si  Si177  1  0.02652753  0.16004244  0.11012063  1
  Si  Si178  1  0.47925297  0.58799847  0.38961852  1
  Si  Si179  1  0.19743737  0.08736271  0.10974668  1
  Si  Si180  1  0.53115927  0.41630474  0.11525728  1
  Si  Si181  1  0.52503641  0.57690959  0.61112537  1
  Si  Si182  1  0.65021012  0.33374680  0.38602831  1
  Si  Si183  1  0.47134707  0.41635850  0.88490135  1
  Si  Si184  1  0.35633605  0.16734165  0.61427310  1
  Si  Si185  1  0.36296749  0.33275456  0.61320321  1
  Si  Si186  1  0.35547637  0.83737762  0.61090402  1
  Si  Si187  1  0.80881001  0.92399097  0.38926590  1
  Si  Si188  1  0.52328567  0.08460466  0.61526795  1
  Si  Si189  1  0.13493526  0.91480242  0.38447029  1
  Si  Si190  1  0.97158365  0.33147145  0.38093552  1
  Si  Si191  1  0.36201940  0.17165544  0.11330835  1
  O  O192  1  0.27246722  0.13474364  0.08070011  1
  O  O193  1  0.27074501  0.11988450  0.58560696  1
  O  O194  1  0.27051154  0.63204929  0.08807826  1
  O  O195  1  0.26632508  0.60677926  0.57650268  1
  O  O196  1  0.60460998  0.12380065  0.08173762  1
  O  O197  1  0.60416190  0.11423843  0.58546912  1
  O  O198  1  0.60242346  0.62541659  0.08548994  1
  O  O199  1  0.60984744  0.59218498  0.58077030  1
  O  O200  1  0.93894592  0.11263194  0.08387278  1
  O  O201  1  0.93963078  0.10282282  0.58601787  1
  O  O202  1  0.93774049  0.61805477  0.08720662  1
  O  O203  1  0.94996709  0.62226287  0.58398669  1
  O  O204  1  0.11897765  0.37862869  0.07529796  1
  O  O205  1  0.12122689  0.34266575  0.57147930  1
  O  O206  1  0.08651932  0.86879730  0.07421811  1
  O  O207  1  0.10180376  0.87580363  0.58468124  1
  O  O208  1  0.44231052  0.37583024  0.08579660  1
  O  O209  1  0.45310106  0.35219491  0.58988956  1
  O  O210  1  0.43889832  0.87560697  0.08317622  1
  O  O211  1  0.43813154  0.87416514  0.58537075  1
  O  O212  1  0.76475480  0.37580788  0.08216720  1
  O  O213  1  0.78196773  0.37859861  0.57143045  1
  O  O214  1  0.76425254  0.87442278  0.08564550  1
  O  O215  1  0.77008266  0.86518072  0.58557162  1
  O  O216  1  0.28295255  0.38564137  0.08749767  1
  O  O217  1  0.29411347  0.38880121  0.57799349  1
  O  O218  1  0.27479442  0.86093353  0.07337998  1
  O  O219  1  0.27169053  0.88893727  0.58484617  1
  O  O220  1  0.60328600  0.37289315  0.08316242  1
  O  O221  1  0.60348679  0.39439641  0.57848452  1
  O  O222  1  0.60051851  0.87996326  0.08064447  1
  O  O223  1  0.60747192  0.89163795  0.58782492  1
  O  O224  1  0.92642444  0.38972993  0.07258651  1
  O  O225  1  0.94273982  0.39327433  0.57150187  1
  O  O226  1  0.92510344  0.86907544  0.08391559  1
  O  O227  1  0.93673041  0.88030281  0.58999513  1
  O  O228  1  0.10585105  0.12496776  0.07888246  1
  O  O229  1  0.10270071  0.12680076  0.58321913  1
  O  O230  1  0.10519134  0.62794924  0.08999584  1
  O  O231  1  0.11241541  0.64504233  0.58549779  1
  O  O232  1  0.43964514  0.13025541  0.08389048  1
  O  O233  1  0.43739713  0.13150306  0.58669637  1
  O  O234  1  0.43580812  0.61674408  0.08722303  1
  O  O235  1  0.45270456  0.63309666  0.57744492  1
  O  O236  1  0.77090262  0.12478613  0.08545128  1
  O  O237  1  0.76988636  0.12140645  0.58493735  1
  O  O238  1  0.77070260  0.63447521  0.08579256  1
  O  O239  1  0.78804647  0.63832761  0.57280545  1
  O  O240  1  0.05819606  0.11707011  0.41474116  1
  O  O241  1  0.07125606  0.10952428  0.92363641  1
  O  O242  1  0.04780708  0.62342599  0.42494846  1
  O  O243  1  0.06278457  0.61234723  0.93832010  1
  O  O244  1  0.38400599  0.11787067  0.42351779  1
  O  O245  1  0.38565763  0.10265015  0.91170846  1
  O  O246  1  0.40028624  0.62909129  0.41509612  1
  O  O247  1  0.39424155  0.62231328  0.91609139  1
  O  O248  1  0.73058627  0.11751113  0.41563961  1
  O  O249  1  0.70592523  0.12310254  0.92694584  1
  O  O250  1  0.71971579  0.59657914  0.40882979  1
  O  O251  1  0.71594759  0.61702256  0.91832206  1
  O  O252  1  0.21503109  0.35506741  0.41151990  1
  O  O253  1  0.23746778  0.34471422  0.92585732  1
  O  O254  1  0.21532913  0.86281486  0.41410464  1
  O  O255  1  0.23322486  0.86659104  0.91555548  1
  O  O256  1  0.57121913  0.35499910  0.42074552  1
  O  O257  1  0.56274895  0.37938839  0.91579441  1
  O  O258  1  0.55099832  0.84293740  0.42922715  1
  O  O259  1  0.56346192  0.87080750  0.91359731  1
  O  O260  1  0.89057240  0.36250883  0.41246315  1
  O  O261  1  0.88667205  0.37439247  0.91526661  1
  O  O262  1  0.89484512  0.87462521  0.41343340  1
  O  O263  1  0.89925497  0.87767541  0.91714227  1
  O  O264  1  0.05434709  0.37952980  0.41187687  1
  O  O265  1  0.04871660  0.39151457  0.92276354  1
  O  O266  1  0.05717398  0.88169997  0.41884184  1
  O  O267  1  0.06487592  0.88647033  0.91161765  1
  O  O268  1  0.38115179  0.37632042  0.42358667  1
  O  O269  1  0.39988961  0.37261941  0.91731050  1
  O  O270  1  0.37336488  0.89407885  0.42162141  1
  O  O271  1  0.39679541  0.88920592  0.91361144  1
  O  O272  1  0.72855748  0.39063467  0.41089397  1
  O  O273  1  0.72487982  0.37719728  0.91556010  1
  O  O274  1  0.73569515  0.89450402  0.42693616  1
  O  O275  1  0.73282373  0.85850260  0.91513166  1
  O  O276  1  0.22060648  0.12777820  0.41345210  1
  O  O277  1  0.22970621  0.13227690  0.91550565  1
  O  O278  1  0.23726292  0.64005185  0.42200031  1
  O  O279  1  0.23579517  0.65494549  0.92655396  1
  O  O280  1  0.57117874  0.15495202  0.42221222  1
  O  O281  1  0.54279102  0.14071010  0.91299722  1
  O  O282  1  0.56277287  0.63861292  0.41464130  1
  O  O283  1  0.55556252  0.62404625  0.91639677  1
  O  O284  1  0.89446322  0.13559038  0.41561550  1
  O  O285  1  0.89446206  0.12810871  0.93564233  1
  O  O286  1  0.88141338  0.63690159  0.41250288  1
  O  O287  1  0.87907704  0.62780576  0.92856142  1
  O  O288  1  0.19772641  0.00901158  0.07526694  1
  O  O289  1  0.17683624  0.00210695  0.58466078  1
  O  O290  1  0.19582155  0.50590259  0.08847254  1
  O  O291  1  0.15154702  0.50668339  0.58180832  1
  O  O292  1  0.51586226  0.00298724  0.08281049  1
  O  O293  1  0.50333456  0.00231886  0.58831560  1
  O  O294  1  0.52717436  0.49920648  0.08570119  1
  O  O295  1  0.48837499  0.49470035  0.58979618  1
  O  O296  1  0.84385286  -0.00244173  0.08162849  1
  O  O297  1  0.83850194  -0.00610892  0.58510481  1
  O  O298  1  0.83274714  0.50492560  0.08455240  1
  O  O299  1  0.85225573  0.50756749  0.57946895  1
  O  O300  1  0.01000371  0.23961630  0.07857349  1
  O  O301  1  -0.00852765  0.23382762  0.57421715  1
  O  O302  1  0.00757451  0.74552703  0.08595365  1
  O  O303  1  0.01111848  0.75514548  0.58055103  1
  O  O304  1  0.36016013  0.25483440  0.08406612  1
  O  O305  1  0.34122431  0.24882926  0.58565797  1
  O  O306  1  0.37345980  0.74573612  0.08583734  1
  O  O307  1  0.33566286  0.76100637  0.57559533  1
  O  O308  1  0.68423876  0.24872980  0.08380235  1
  O  O309  1  0.67722095  0.23983002  0.57463718  1
  O  O310  1  0.67593941  0.75191295  0.08374419  1
  O  O311  1  0.65909218  0.75755648  0.58022089  1
  O  O312  1  0.14976738  -0.00186288  0.41330776  1
  O  O313  1  0.17204092  -0.00199314  0.91396236  1
  O  O314  1  0.16212778  0.48855200  0.42387974  1
  O  O315  1  0.19425094  0.49909593  0.93098802  1
  O  O316  1  0.51711465  0.00151326  0.43073826  1
  O  O317  1  0.49975046  0.00066418  0.91196737  1
  O  O318  1  0.49463836  0.51013209  0.42398408  1
  O  O319  1  0.47517887  0.49891906  0.91517954  1
  O  O320  1  0.83473923  0.00602243  0.41850662  1
  O  O321  1  0.79796800  -0.01261259  0.92543400  1
  O  O322  1  0.83768722  0.49783481  0.40978482  1
  O  O323  1  0.80510847  0.49902768  0.91735942  1
  O  O324  1  0.31377389  0.24568036  0.41409129  1
  O  O325  1  0.34359806  0.23995922  0.91340488  1
  O  O326  1  0.32720978  0.75619471  0.41483006  1
  O  O327  1  0.34381854  0.75697617  0.91271711  1
  O  O328  1  0.68683239  0.25352159  0.40955939  1
  O  O329  1  0.63745044  0.25441529  0.91592035  1
  O  O330  1  0.68810123  0.73478705  0.41927876  1
  O  O331  1  0.63663187  0.74517370  0.91453962  1
  O  O332  1  0.99030002  0.24863961  0.40771788  1
  O  O333  1  0.98759997  0.26185821  0.92289590  1
  O  O334  1  0.97815619  0.75308047  0.41601479  1
  O  O335  1  0.99260632  0.76106506  0.92983226  1
  O  O336  1  0.21706918  0.08920215  0.18980450  1
  O  O337  1  0.20982091  0.08411272  0.69440981  1
  O  O338  1  0.21448304  0.58653522  0.19770325  1
  O  O339  1  0.20985827  0.58594215  0.69272777  1
  O  O340  1  0.54610037  0.08553421  0.19314529  1
  O  O341  1  0.54104507  0.08463569  0.69603269  1
  O  O342  1  0.54564333  0.58206965  0.19634786  1
  O  O343  1  0.54119235  0.58212274  0.69305292  1
  O  O344  1  0.87674338  0.07853209  0.19332928  1
  O  O345  1  0.87359880  0.07885327  0.69481440  1
  O  O346  1  0.87473357  0.58383451  0.19518247  1
  O  O347  1  0.87454887  0.58861024  0.69040874  1
  O  O348  1  0.05102172  0.34281635  0.19617761  1
  O  O349  1  0.04261817  0.32947813  0.70000491  1
  O  O350  1  0.03958916  0.83187680  0.19212849  1
  O  O351  1  0.04790193  0.83043628  0.69462165  1
  O  O352  1  0.38111783  0.33333646  0.19599069  1
  O  O353  1  0.37646506  0.33126171  0.69465631  1
  O  O354  1  0.37794352  0.83102514  0.19225221  1
  O  O355  1  0.37521457  0.83585210  0.69236958  1
  O  O356  1  0.70787135  0.33426963  0.19316718  1
  O  O357  1  0.70815755  0.33142214  0.70006178  1
  O  O358  1  0.69864308  0.83313620  0.19285602  1
  O  O359  1  0.70545800  0.83372807  0.69494367  1
  O  O360  1  0.21518669  0.41899800  0.19510323  1
  O  O361  1  0.21337764  0.41413917  0.70123899  1
  O  O362  1  0.21334560  0.91304534  0.19866493  1
  O  O363  1  0.20942511  0.91826915  0.69396910  1
  O  O364  1  0.54787354  0.41715547  0.19519661  1
  O  O365  1  0.54265232  0.41500923  0.69547053  1
  O  O366  1  0.54402537  0.91998347  0.19278105  1
  O  O367  1  0.54115064  0.91710525  0.69571969  1
  O  O368  1  0.87376621  0.41835882  0.19019531  1
  O  O369  1  0.88121249  0.41774486  0.68689291  1
  O  O370  1  0.87649638  0.92109428  0.19358801  1
  O  O371  1  0.86415562  0.91606152  0.69688029  1
  O  O372  1  0.04930443  0.15584872  0.18958641  1
  O  O373  1  0.04231921  0.16307749  0.69222336  1
  O  O374  1  0.04197149  0.66626406  0.19677671  1
  O  O375  1  0.04792508  0.67775916  0.69374809  1
  O  O376  1  0.37988800  0.17071673  0.19340541  1
  O  O377  1  0.37515577  0.16579323  0.69495439  1
  O  O378  1  0.38049697  0.66555595  0.19714503  1
  O  O379  1  0.37730788  0.66733539  0.70116863  1
  O  O380  1  0.70469760  0.16650137  0.19358808  1
  O  O381  1  0.70533607  0.16532280  0.69257563  1
  O  O382  1  0.70801041  0.66688722  0.19451505  1
  O  O383  1  0.71124314  0.66633511  0.70112294  1
  O  O384  1  0.12028273  0.08281776  0.30299653  1
  O  O385  1  0.12674213  0.08298052  0.80706718  1
  O  O386  1  0.12259856  0.58371486  0.30080549  1
  O  O387  1  0.12860100  0.58421354  0.80291369  1
  O  O388  1  0.45686099  0.08523036  0.29858849  1
  O  O389  1  0.45437961  0.08185118  0.80285876  1
  O  O390  1  0.45989189  0.58446956  0.30779918  1
  O  O391  1  0.45493468  0.58135024  0.80489729  1
  O  O392  1  0.78970812  0.08267385  0.30571199  1
  O  O393  1  0.78399812  0.08264627  0.80049237  1
  O  O394  1  0.79114251  0.58021417  0.30200785  1
  O  O395  1  0.78340924  0.58825386  0.81009633  1
  O  O396  1  0.29161220  0.33286134  0.30568348  1
  O  O397  1  0.29491594  0.32883872  0.80852617  1
  O  O398  1  0.28861285  0.83454041  0.30631064  1
  O  O399  1  0.29476101  0.83659018  0.80418588  1
  O  O400  1  0.62688664  0.33486197  0.30469536  1
  O  O401  1  0.61787571  0.33356136  0.80517591  1
  O  O402  1  0.62203680  0.83376523  0.30094719  1
  O  O403  1  0.62029653  0.83131638  0.80430020  1
  O  O404  1  0.95051809  0.33962539  0.30189564  1
  O  O405  1  0.95596747  0.33635453  0.80782469  1
  O  O406  1  0.96467592  0.83286589  0.30627255  1
  O  O407  1  0.95406061  0.82778689  0.81006611  1
  O  O408  1  0.12404224  0.41832795  0.30590713  1
  O  O409  1  0.12418488  0.41612534  0.80276232  1
  O  O410  1  0.11682598  0.91262651  0.30516106  1
  O  O411  1  0.13728732  0.91704528  0.80588514  1
  O  O412  1  0.45745450  0.41669979  0.30096250  1
  O  O413  1  0.45472021  0.41551701  0.80479450  1
  O  O414  1  0.45443547  0.91692435  0.29865865  1
  O  O415  1  0.45767250  0.91720230  0.80333466  1
  O  O416  1  0.79168428  0.41680267  0.30140058  1
  O  O417  1  0.78267827  0.41918169  0.80452019  1
  O  O418  1  0.78498275  0.92580826  0.30940440  1
  O  O419  1  0.78634259  0.91430039  0.80838330  1
  O  O420  1  0.29082921  0.16402047  0.30530837  1
  O  O421  1  0.29033827  0.16349136  0.80391615  1
  O  O422  1  0.29274524  0.66938719  0.30677790  1
  O  O423  1  0.29098285  0.67012374  0.80754162  1
  O  O424  1  0.62774672  0.16773919  0.30611855  1
  O  O425  1  0.61751072  0.16658354  0.80730463  1
  O  O426  1  0.62498424  0.66354582  0.30525587  1
  O  O427  1  0.61616219  0.66475896  0.80510566  1
  O  O428  1  0.95524759  0.15744176  0.30298260  1
  O  O429  1  0.95464147  0.16708174  0.79910255  1
  O  O430  1  0.95542483  0.66668969  0.30764704  1
  O  O431  1  0.95318321  0.66839997  0.80327641  1
  F  F432  1  0.04009267  -0.00312415  0.19864258  1
  F  F433  1  0.04958877  0.00901231  0.70039699  1
  F  F434  1  0.04462993  0.50234896  0.20059970  1
  F  F435  1  0.04557125  0.49752202  0.69925948  1
  F  F436  1  0.37873126  0.00137127  0.19643295  1
  F  F437  1  0.37799037  0.00047011  0.69976710  1
  F  F438  1  0.38070614  0.50332535  0.20313426  1
  F  F439  1  0.37792119  0.49900227  0.70290750  1
  F  F440  1  0.71099314  0.00031635  0.20123409  1
  F  F441  1  0.70634751  -0.00186354  0.70262494  1
  F  F442  1  0.71040148  0.50028524  0.19965565  1
  F  F443  1  0.70376911  0.50053870  0.69811832  1
  F  F444  1  0.21751932  0.25087773  0.20028679  1
  F  F445  1  0.21238116  0.24670880  0.70347068  1
  F  F446  1  0.21215768  0.74877312  0.20319253  1
  F  F447  1  0.21414742  0.75298210  0.70370337  1
  F  F448  1  0.54749711  0.25146029  0.20368586  1
  F  F449  1  0.54413398  0.24787748  0.70284598  1
  F  F450  1  0.54433900  0.74638515  0.20167802  1
  F  F451  1  0.54354096  0.75015556  0.70137095  1
  F  F452  1  0.86134012  0.25307375  0.18825427  1
  F  F453  1  0.87291431  0.24665290  0.70058007  1
  F  F454  1  0.88154080  0.74001526  0.19873575  1
  F  F455  1  0.87707487  0.75359814  0.70273849  1
  F  F456  1  0.29256980  0.00249371  0.29805965  1
  F  F457  1  0.29033014  0.00033071  0.79562035  1
  F  F458  1  0.28989028  0.50084523  0.29911696  1
  F  F459  1  0.29244551  0.50204093  0.79925056  1
  F  F460  1  0.62063511  0.00276398  0.29631087  1
  F  F461  1  0.61788786  -0.00099083  0.79845126  1
  F  F462  1  0.62412030  0.49940031  0.29739441  1
  F  F463  1  0.61729531  0.49989044  0.79779029  1
  F  F464  1  0.95486707  -0.00250953  0.29883977  1
  F  F465  1  0.94942783  0.00898240  0.80420879  1
  F  F466  1  0.95390668  0.50002522  0.29535896  1
  F  F467  1  0.95333358  0.49722623  0.79951230  1
  F  F468  1  0.13405661  0.24698808  0.29792913  1
  F  F469  1  0.12190297  0.24658393  0.79930494  1
  F  F470  1  0.12062783  0.75076408  0.29687085  1
  F  F471  1  0.12430356  0.75301129  0.80071793  1
  F  F472  1  0.45637419  0.25017248  0.29881103  1
  F  F473  1  0.45321606  0.24929810  0.79728792  1
  F  F474  1  0.45421114  0.75018122  0.29729671  1
  F  F475  1  0.45623136  0.75336368  0.79858570  1
  F  F476  1  0.78820103  0.25566444  0.29775554  1
  F  F477  1  0.78000040  0.23798711  0.80681975  1
  F  F478  1  0.78350619  0.73918008  0.30082964  1
  F  F479  1  0.78346943  0.75360326  0.80139164  1
