# generated using pymatgen
data_K24Na3Li5Mg64Fe17Si79(O5F)48
_symmetry_space_group_name_H-M   'P 1'
_cell_length_a   16.12411271
_cell_length_b   18.60470957
_cell_length_c   20.57174476
_cell_angle_alpha   90.01217418
_cell_angle_beta   100.00911568
_cell_angle_gamma   89.98789633
_symmetry_Int_Tables_number   1
_chemical_formula_structural   K24Na3Li5Mg64Fe17Si79(O5F)48
_chemical_formula_sum   'K24 Na3 Li5 Mg64 Fe17 Si79 O240 F48'
_cell_volume   6077.27796322
_cell_formula_units_Z   1
loop_
 _symmetry_equiv_pos_site_id
 _symmetry_equiv_pos_as_xyz
  1  'x, y, z'
loop_
 _atom_site_type_symbol
 _atom_site_label
 _atom_site_symmetry_multiplicity
 _atom_site_fract_x
 _atom_site_fract_y
 _atom_site_fract_z
 _atom_site_occupancy
  K  K0  1  -0.00711640  0.00549302  0.00207381  1
  K  K1  1  -0.00313412  0.01685581  0.50383553  1
  K  K2  1  -0.00906337  0.50157581  -0.02359176  1
  K  K3  1  -0.00846828  0.49129938  0.51186819  1
  K  K4  1  0.33353915  0.00081001  -0.01849711  1
  K  K5  1  0.32571638  -0.00109961  0.51410068  1
  K  K6  1  0.33765558  0.49980140  -0.01387717  1
  K  K7  1  0.34588799  0.49294020  0.50902114  1
  K  K8  1  0.67115538  0.00349599  -0.00758916  1
  K  K9  1  0.68670970  0.00381432  0.50979556  1
  K  K10  1  0.66452322  0.49704154  -0.01644487  1
  K  K11  1  0.66562555  0.50528739  0.51509100  1
  K  K12  1  0.15999842  0.24754372  -0.01365792  1
  K  K13  1  0.16698481  0.25005606  0.51433455  1
  K  K14  1  0.16640403  0.75331839  -0.01180196  1
  K  K15  1  0.16899903  0.75686039  0.51431462  1
  K  K16  1  0.49711738  0.24983277  -0.01423297  1
  K  K17  1  0.51134582  0.25203735  0.51364119  1
  K  K18  1  0.50103266  0.75026271  -0.00821823  1
  K  K19  1  0.49845882  0.74682822  0.51236661  1
  K  K20  1  0.82721816  0.24574061  -0.00773797  1
  K  K21  1  0.83665530  0.24220492  0.51030380  1
  K  K22  1  0.82227618  0.75231392  -0.01305694  1
  K  K23  1  0.82586679  0.75286259  0.51296097  1
  Na  Na24  1  0.33282257  0.24918890  0.75313682  1
  Na  Na25  1  -0.00305747  0.08209758  0.24769262  1
  Na  Na26  1  0.16870942  0.83344923  0.74311836  1
  Li  Li27  1  -0.00174156  0.25528510  0.74982241  1
  Li  Li28  1  0.84157661  0.50016439  0.75126923  1
  Li  Li29  1  0.67501531  0.08402490  0.24915462  1
  Li  Li30  1  0.32823935  0.91645205  0.74452193  1
  Li  Li31  1  -0.00722553  0.41604890  0.75025269  1
  Mg  Mg32  1  0.33302113  0.24786203  0.25178910  1
  Mg  Mg33  1  0.16439962  0.49638517  0.75007332  1
  Mg  Mg34  1  0.49889825  0.50162029  0.25132652  1
  Mg  Mg35  1  0.66643744  0.74869626  0.24898838  1
  Mg  Mg36  1  0.50509657  0.00146707  0.25134163  1
  Mg  Mg37  1  0.66860724  0.24999721  0.75061831  1
  Mg  Mg38  1  0.16846967  0.50028359  0.25087310  1
  Mg  Mg39  1  0.00039999  0.74924747  0.24617039  1
  Mg  Mg40  1  0.50163507  0.49742870  0.75248456  1
  Mg  Mg41  1  0.00114310  0.74724294  0.74908213  1
  Mg  Mg42  1  0.33194174  0.75266919  0.74822290  1
  Mg  Mg43  1  0.16491994  -0.00066068  0.24915188  1
  Mg  Mg44  1  0.83203906  0.00021107  0.74753962  1
  Mg  Mg45  1  0.66710519  0.24665126  0.25110754  1
  Mg  Mg46  1  0.16952116  -0.00007400  0.74842025  1
  Mg  Mg47  1  0.33512011  0.75093859  0.25040959  1
  Mg  Mg48  1  -0.00234841  0.24974129  0.25222003  1
  Mg  Mg49  1  0.83320753  0.00084030  0.24662065  1
  Mg  Mg50  1  0.49450210  -0.00019712  0.74937391  1
  Mg  Mg51  1  0.83265919  0.49869713  0.25229982  1
  Mg  Mg52  1  0.66687944  0.75154096  0.74975469  1
  Mg  Mg53  1  0.16368546  0.16589081  0.24965599  1
  Mg  Mg54  1  0.33548412  0.91741614  0.25064331  1
  Mg  Mg55  1  -0.00252750  0.57796570  0.74944414  1
  Mg  Mg56  1  0.50403889  0.16378792  0.25193052  1
  Mg  Mg57  1  0.16920177  0.66634007  0.24967804  1
  Mg  Mg58  1  0.66988637  0.91751640  0.25084356  1
  Mg  Mg59  1  0.49990698  0.33259781  0.25203401  1
  Mg  Mg60  1  0.67120908  0.41712928  0.75041489  1
  Mg  Mg61  1  0.33462325  0.41409093  0.75268900  1
  Mg  Mg62  1  0.50049344  0.66389577  0.25123975  1
  Mg  Mg63  1  0.83781971  0.33585066  0.74766013  1
  Mg  Mg64  1  0.83232111  0.83407254  0.74847993  1
  Mg  Mg65  1  0.66885935  0.58272059  0.74771274  1
  Mg  Mg66  1  0.16649506  0.83446446  0.24780749  1
  Mg  Mg67  1  -0.00008668  0.08681974  0.74935542  1
  Mg  Mg68  1  0.00043809  0.41577152  0.25210434  1
  Mg  Mg69  1  0.83425666  0.16792111  0.74962906  1
  Mg  Mg70  1  0.33625480  0.58526482  0.25094090  1
  Mg  Mg71  1  0.33354140  0.58349756  0.75135534  1
  Mg  Mg72  1  0.83226874  0.16307244  0.24971188  1
  Mg  Mg73  1  0.83226234  0.66469063  0.24781987  1
  Mg  Mg74  1  0.33144947  0.08115450  0.75141507  1
  Mg  Mg75  1  0.49577587  0.83655946  0.75017517  1
  Mg  Mg76  1  0.66523142  0.41515315  0.25180092  1
  Mg  Mg77  1  0.16592384  0.66467151  0.74763964  1
  Mg  Mg78  1  0.50243180  0.83517976  0.25065259  1
  Mg  Mg79  1  0.50140095  0.33459173  0.75272359  1
  Mg  Mg80  1  0.66341575  0.58339425  0.24998762  1
  Mg  Mg81  1  0.16529401  0.16850626  0.75173101  1
  Mg  Mg82  1  0.00087045  0.58345886  0.24895931  1
  Mg  Mg83  1  0.83277777  0.83450749  0.24627652  1
  Mg  Mg84  1  0.83270959  0.66327878  0.74801917  1
  Mg  Mg85  1  -0.00397831  0.91556227  0.24482475  1
  Mg  Mg86  1  0.66665125  0.91674390  0.74875844  1
  Mg  Mg87  1  0.00133761  0.91562126  0.74792986  1
  Mg  Mg88  1  0.66745119  0.08467915  0.75057424  1
  Mg  Mg89  1  0.16218741  0.33197313  0.75420106  1
  Mg  Mg90  1  0.49865754  0.16591014  0.75190710  1
  Mg  Mg91  1  0.83504507  0.33323639  0.25317510  1
  Mg  Mg92  1  0.49976999  0.66647690  0.75080169  1
  Mg  Mg93  1  0.33461421  0.41491277  0.25268830  1
  Mg  Mg94  1  0.33346237  0.08350499  0.25141181  1
  Mg  Mg95  1  0.16572403  0.33430697  0.25120014  1
  Fe  Fe96  1  0.51978006  0.58173807  0.10868426  1
  Fe  Fe97  1  0.85551483  0.91224166  0.10433147  1
  Fe  Fe98  1  0.69080656  0.16101260  0.61023793  1
  Fe  Fe99  1  0.18993121  0.08444049  0.61041808  1
  Fe  Fe100  1  0.97905261  0.33739163  0.39289480  1
  Fe  Fe101  1  0.81031870  0.58320352  0.88850889  1
  Fe  Fe102  1  0.85317492  0.08955264  0.10421285  1
  Fe  Fe103  1  0.47026919  0.08319248  0.89194025  1
  Fe  Fe104  1  0.52713025  0.41515885  0.61242219  1
  Fe  Fe105  1  0.68662297  0.84231321  0.60904321  1
  Fe  Fe106  1  0.81162171  0.08219736  0.39009300  1
  Fe  Fe107  1  0.47409482  0.58159857  0.39295580  1
  Fe  Fe108  1  0.85656256  0.58195873  0.60827141  1
  Fe  Fe109  1  0.47565862  0.41534708  0.89407452  1
  Fe  Fe110  1  0.81341132  0.91262540  0.88890817  1
  Fe  Fe111  1  0.35345473  0.83373457  0.60983835  1
  Fe  Fe112  1  0.81420145  0.08529945  0.88875934  1
  Si  Si113  1  0.35930552  0.16140432  0.11618096  1
  Si  Si114  1  0.97603339  0.17173873  0.88573588  1
  Si  Si115  1  0.69627435  0.33217042  0.61120049  1
  Si  Si116  1  0.52766242  0.91724911  0.11493673  1
  Si  Si117  1  0.14005476  0.41807255  0.88649643  1
  Si  Si118  1  0.03297628  0.82899955  0.11021340  1
  Si  Si119  1  0.14383010  0.58152723  0.88444721  1
  Si  Si120  1  0.30987325  0.83632411  0.38424766  1
  Si  Si121  1  0.19262693  0.08391822  0.11502160  1
  Si  Si122  1  0.02928182  0.66238801  0.11332323  1
  Si  Si123  1  0.14024965  0.91370566  0.38316490  1
  Si  Si124  1  0.52224289  0.58521944  0.61588973  1
  Si  Si125  1  0.13512034  0.08281296  0.88699232  1
  Si  Si126  1  0.35715795  0.33331274  0.61336069  1
  Si  Si127  1  0.51811989  0.41354975  0.11560370  1
  Si  Si128  1  0.97634352  0.66259974  0.38331463  1
  Si  Si129  1  0.81338187  0.91128339  0.38625388  1
  Si  Si130  1  0.35492753  0.67541384  0.11193038  1
  Si  Si131  1  0.30065977  0.33390054  0.89122847  1
  Si  Si132  1  0.03027748  0.66241608  0.61120646  1
  Si  Si133  1  0.97725663  0.33420463  0.88236147  1
  Si  Si134  1  0.52722912  0.08381666  0.11666204  1
  Si  Si135  1  0.69154501  0.66062791  0.11299421  1
  Si  Si136  1  0.86682470  0.08238335  0.61256496  1
  Si  Si137  1  0.68804597  0.33909627  0.11628899  1
  Si  Si138  1  0.85706940  0.41824845  0.11513405  1
  Si  Si139  1  0.64884215  0.33063146  0.88857275  1
  Si  Si140  1  0.19099532  0.41405125  0.61654392  1
  Si  Si141  1  0.13998312  0.91973669  0.88411196  1
  Si  Si142  1  0.14732548  0.42429023  0.38786170  1
  Si  Si143  1  0.63921586  0.16623432  0.38715206  1
  Si  Si144  1  0.51907943  0.92267008  0.61114036  1
  Si  Si145  1  0.81320152  0.41135377  0.88712958  1
  Si  Si146  1  0.14363704  0.58720096  0.38370411  1
  Si  Si147  1  0.30394699  0.16391658  0.38621904  1
  Si  Si148  1  0.35892375  0.84022270  0.11504152  1
  Si  Si149  1  0.47662162  0.91972403  0.38541946  1
  Si  Si150  1  0.29861127  0.16541622  0.89074154  1
  Si  Si151  1  0.02493255  0.82831087  0.61317964  1
  Si  Si152  1  0.86048499  0.58448591  0.11462536  1
  Si  Si153  1  0.85867480  0.41398840  0.61402248  1
  Si  Si154  1  0.64281287  0.83593770  0.38474338  1
  Si  Si155  1  0.47266889  0.58901784  0.88771005  1
  Si  Si156  1  0.30468970  0.67093489  0.38718145  1
  Si  Si157  1  0.63971620  0.33074528  0.38546095  1
  Si  Si158  1  0.35794407  0.32620008  0.11695566  1
  Si  Si159  1  0.68674769  0.17546910  0.11233126  1
  Si  Si160  1  0.19555344  0.57841759  0.61628526  1
  Si  Si161  1  0.98222070  0.66685896  0.88586815  1
  Si  Si162  1  0.86590215  0.91553215  0.61014439  1
  Si  Si163  1  0.30509628  0.83333051  0.88411332  1
  Si  Si164  1  0.35549804  0.66418364  0.61491424  1
  Si  Si165  1  0.68695191  0.82540006  0.11248477  1
  Si  Si166  1  0.03217093  0.17514718  0.11182638  1
  Si  Si167  1  0.19704194  0.41758387  0.11552566  1
  Si  Si168  1  0.63687676  0.83422617  0.88660804  1
  Si  Si169  1  0.80751482  0.58533334  0.38462891  1
  Si  Si170  1  0.19403493  0.91914606  0.11506418  1
  Si  Si171  1  0.02705335  0.17291954  0.61568660  1
  Si  Si172  1  0.52059104  0.08424005  0.61339496  1
  Si  Si173  1  0.97699601  0.82718528  0.38273786  1
  Si  Si174  1  0.68544679  0.67103722  0.61015149  1
  Si  Si175  1  0.14147987  0.07932328  0.38340861  1
  Si  Si176  1  0.63951658  0.66816774  0.88591703  1
  Si  Si177  1  0.02777335  0.33985173  0.11394358  1
  Si  Si178  1  0.02565455  0.33642366  0.62001323  1
  Si  Si179  1  0.30476325  0.66943273  0.88529322  1
  Si  Si180  1  0.98080743  0.17045358  0.38988320  1
  Si  Si181  1  0.19674105  0.58309218  0.11484149  1
  Si  Si182  1  0.18406854  0.92034915  0.60670094  1
  Si  Si183  1  0.64389340  0.67057825  0.38800034  1
  Si  Si184  1  0.98167083  0.82909427  0.88543459  1
  Si  Si185  1  0.47381217  0.40943946  0.38812924  1
  Si  Si186  1  0.36059241  0.16651060  0.61406770  1
  Si  Si187  1  0.30504524  0.33018288  0.38622119  1
  Si  Si188  1  0.47284508  0.91245825  0.88874360  1
  Si  Si189  1  0.47275698  0.08588248  0.38646267  1
  Si  Si190  1  0.64009646  0.16566386  0.88865577  1
  Si  Si191  1  0.80210359  0.41820041  0.38871231  1
  O  O192  1  0.27700880  0.11135716  0.08721126  1
  O  O193  1  0.28470678  0.11688050  0.57576991  1
  O  O194  1  0.26658438  0.63034875  0.08476230  1
  O  O195  1  0.28018566  0.60427458  0.58823205  1
  O  O196  1  0.60080259  0.12596277  0.08691559  1
  O  O197  1  0.59832008  0.10198940  0.57557528  1
  O  O198  1  0.62163294  0.60367636  0.07949575  1
  O  O199  1  0.60195635  0.61884759  0.58615096  1
  O  O200  1  0.95173611  0.13050755  0.07784854  1
  O  O201  1  0.94326428  0.12448880  0.58484049  1
  O  O202  1  0.94171639  0.61856637  0.08652154  1
  O  O203  1  0.95211487  0.61609692  0.57312572  1
  O  O204  1  0.10398900  0.38382501  0.08576395  1
  O  O205  1  0.10555923  0.36878043  0.58648110  1
  O  O206  1  0.11920029  0.86245805  0.08631995  1
  O  O207  1  0.10435896  0.86247991  0.58442429  1
  O  O208  1  0.44255178  0.35340852  0.09047728  1
  O  O209  1  0.42904505  0.36290714  0.57370533  1
  O  O210  1  0.43936470  0.87325731  0.08603358  1
  O  O211  1  0.44757369  0.86651027  0.57547382  1
  O  O212  1  0.76984353  0.37355946  0.08743259  1
  O  O213  1  0.78445897  0.35496507  0.58524990  1
  O  O214  1  0.76434432  0.84748425  0.07756019  1
  O  O215  1  0.77968581  0.87788604  0.57392134  1
  O  O216  1  0.27253200  0.37347782  0.08787628  1
  O  O217  1  0.26828306  0.37875497  0.58449509  1
  O  O218  1  0.27907421  0.89350646  0.08697381  1
  O  O219  1  0.25886973  0.88719916  0.57084376  1
  O  O220  1  0.60570100  0.39019765  0.08951150  1
  O  O221  1  0.62225693  0.38758205  0.57730744  1
  O  O222  1  0.60198477  0.87519790  0.08552058  1
  O  O223  1  0.60286222  0.91011230  0.57818053  1
  O  O224  1  0.93732044  0.38129015  0.08709429  1
  O  O225  1  0.94451902  0.38536946  0.58685778  1
  O  O226  1  0.95316071  0.87308481  0.07515660  1
  O  O227  1  0.94073075  0.87308101  0.57919964  1
  O  O228  1  0.11645107  0.13887988  0.08593633  1
  O  O229  1  0.10119399  0.14708467  0.57686194  1
  O  O230  1  0.10390126  0.61736093  0.08578310  1
  O  O231  1  0.11692476  0.63163572  0.58560519  1
  O  O232  1  0.43832944  0.12675461  0.08714605  1
  O  O233  1  0.44660666  0.14379998  0.58455506  1
  O  O234  1  0.43035353  0.64683874  0.07707530  1
  O  O235  1  0.44104861  0.63786808  0.58814277  1
  O  O236  1  0.76036301  0.15113297  0.07377253  1
  O  O237  1  0.78045091  0.11892091  0.57585577  1
  O  O238  1  0.78099650  0.63754496  0.08805598  1
  O  O239  1  0.76158556  0.63965040  0.57566455  1
  O  O240  1  0.06096010  0.11212199  0.41031639  1
  O  O241  1  0.05676123  0.11846690  0.91747543  1
  O  O242  1  0.05787432  0.61111684  0.41111291  1
  O  O243  1  0.06673809  0.61730284  0.91555036  1
  O  O244  1  0.39076212  0.11932730  0.41413832  1
  O  O245  1  0.38156946  0.12470067  0.92975131  1
  O  O246  1  0.37799362  0.61916659  0.42331631  1
  O  O247  1  0.39333527  0.62901010  0.91580506  1
  O  O248  1  0.71380582  0.11472661  0.42133141  1
  O  O249  1  0.71597786  0.11201350  0.91970262  1
  O  O250  1  0.73492639  0.62984271  0.41370742  1
  O  O251  1  0.71708385  0.62033030  0.92354141  1
  O  O252  1  0.22983066  0.37243205  0.41479640  1
  O  O253  1  0.22171068  0.37097464  0.92285413  1
  O  O254  1  0.22867406  0.87054218  0.41163973  1
  O  O255  1  0.22811472  0.87528079  0.91359941  1
  O  O256  1  0.55454109  0.35614366  0.41256524  1
  O  O257  1  0.57590300  0.36454905  0.92525923  1
  O  O258  1  0.56279847  0.87401821  0.41239777  1
  O  O259  1  0.55266159  0.85823137  0.91725811  1
  O  O260  1  0.88231549  0.37277598  0.42395849  1
  O  O261  1  0.89817890  0.36237581  0.91734385  1
  O  O262  1  0.89425887  0.85553075  0.41104451  1
  O  O263  1  0.90236052  0.84747167  0.92021265  1
  O  O264  1  0.06857563  0.40371895  0.42201862  1
  O  O265  1  0.05810320  0.38648047  0.91518283  1
  O  O266  1  0.06291933  0.87373845  0.41183211  1
  O  O267  1  0.06457861  0.87999179  0.91553334  1
  O  O268  1  0.39377038  0.37020088  0.41457196  1
  O  O269  1  0.38618000  0.37245781  0.92949029  1
  O  O270  1  0.39535039  0.88309097  0.41204339  1
  O  O271  1  0.39267858  0.87369685  0.91801341  1
  O  O272  1  0.71618650  0.38695427  0.41286694  1
  O  O273  1  0.73632959  0.37407160  0.91936623  1
  O  O274  1  0.73006811  0.87798827  0.41385217  1
  O  O275  1  0.71466682  0.88349523  0.92071495  1
  O  O276  1  0.22772000  0.12425554  0.41539121  1
  O  O277  1  0.21810320  0.12952296  0.92083126  1
  O  O278  1  0.21458264  0.64813177  0.41019602  1
  O  O279  1  0.23008593  0.62672330  0.91578640  1
  O  O280  1  0.55165683  0.13875869  0.41363589  1
  O  O281  1  0.55994887  0.14467694  0.92345257  1
  O  O282  1  0.57218689  0.63506641  0.42314121  1
  O  O283  1  0.55344815  0.64192408  0.91329192  1
  O  O284  1  0.90472601  0.14089340  0.42499187  1
  O  O285  1  0.89843717  0.15278149  0.92266423  1
  O  O286  1  0.89658938  0.62771736  0.41150331  1
  O  O287  1  0.90779923  0.63953864  0.92343575  1
  O  O288  1  0.17139476  0.00122527  0.08737546  1
  O  O289  1  0.15493694  -0.00384820  0.56931046  1
  O  O290  1  0.19877642  0.50026660  0.08743889  1
  O  O291  1  0.17511087  0.49671281  0.58650973  1
  O  O292  1  0.51820292  0.00042462  0.08766784  1
  O  O293  1  0.48196838  0.00440166  0.58923333  1
  O  O294  1  0.48318612  0.48824782  0.08209692  1
  O  O295  1  0.49986339  0.50866792  0.58058408  1
  O  O296  1  0.82839283  -0.00004171  0.06644736  1
  O  O297  1  0.86960629  -0.00081946  0.58425912  1
  O  O298  1  0.84561099  0.50156132  0.08636735  1
  O  O299  1  0.83396654  0.48875649  0.57391252  1
  O  O300  1  0.02667054  0.25932430  0.08225539  1
  O  O301  1  0.00463761  0.25577754  0.58883844  1
  O  O302  1  0.02851265  0.74384104  0.08381460  1
  O  O303  1  0.01749365  0.74586621  0.58260204  1
  O  O304  1  0.33934336  0.24392312  0.08868039  1
  O  O305  1  0.33672710  0.24984378  0.58826897  1
  O  O306  1  0.33375893  0.75949665  0.08631880  1
  O  O307  1  0.32699004  0.73858714  0.57758596  1
  O  O308  1  0.66246597  0.25952388  0.08609565  1
  O  O309  1  0.67083964  0.25417793  0.57696921  1
  O  O310  1  0.66092317  0.74196806  0.08767875  1
  O  O311  1  0.65927714  0.74918856  0.57646917  1
  O  O312  1  0.15327065  -0.00411574  0.41126120  1
  O  O313  1  0.15114455  0.00061487  0.91824323  1
  O  O314  1  0.17660669  0.50778632  0.41104715  1
  O  O315  1  0.15654726  0.50059590  0.91734451  1
  O  O316  1  0.48721763  0.00252002  0.41378176  1
  O  O317  1  0.48731967  -0.01124890  0.92754874  1
  O  O318  1  0.49017305  0.48632144  0.42336798  1
  O  O319  1  0.48726845  0.51236817  0.92507663  1
  O  O320  1  0.83630503  -0.01308440  0.42214958  1
  O  O321  1  0.85364964  -0.00146969  0.92423949  1
  O  O322  1  0.81305397  0.50334019  0.41338595  1
  O  O323  1  0.82967266  0.48930274  0.92319627  1
  O  O324  1  0.31099461  0.24707169  0.41397174  1
  O  O325  1  0.30201776  0.24980224  0.91770914  1
  O  O326  1  0.32402876  0.75451685  0.41277555  1
  O  O327  1  0.30782027  0.75084536  0.91752945  1
  O  O328  1  0.65990606  0.24979820  0.41472192  1
  O  O329  1  0.66783099  0.24806696  0.91534051  1
  O  O330  1  0.65570508  0.75434505  0.41421822  1
  O  O331  1  0.65538618  0.75098842  0.91403574  1
  O  O332  1  1.01641457  0.24664045  0.42371226  1
  O  O333  1  1.00664554  0.25385562  0.91190837  1
  O  O334  1  0.99584975  0.74441814  0.41173823  1
  O  O335  1  1.01425474  0.74793374  0.91143514  1
  O  O336  1  0.21164165  0.08309747  0.19554181  1
  O  O337  1  0.20990198  0.08585861  0.70158013  1
  O  O338  1  0.21271930  0.58382172  0.19562111  1
  O  O339  1  0.21164078  0.57949590  0.69645680  1
  O  O340  1  0.53959129  0.08269977  0.19639701  1
  O  O341  1  0.54392631  0.08538837  0.69395537  1
  O  O342  1  0.54408552  0.58336198  0.20078190  1
  O  O343  1  0.54089415  0.58408446  0.69679867  1
  O  O344  1  0.86756474  0.08423088  0.19427178  1
  O  O345  1  0.87970667  0.08301521  0.69275832  1
  O  O346  1  0.87857750  0.58226718  0.19538670  1
  O  O347  1  0.88129000  0.58665938  0.69781208  1
  O  O348  1  0.04702693  0.33922409  0.19440477  1
  O  O349  1  0.04690287  0.33768632  0.69835658  1
  O  O350  1  0.04733485  0.82868544  0.19150621  1
  O  O351  1  0.03330703  0.82959453  0.69222720  1
  O  O352  1  0.37425259  0.33032149  0.19756784  1
  O  O353  1  0.37994786  0.34085540  0.69260494  1
  O  O354  1  0.37772583  0.83673471  0.19569482  1
  O  O355  1  0.37819474  0.83120741  0.69973707  1
  O  O356  1  0.70975077  0.33717184  0.19686613  1
  O  O357  1  0.71006109  0.33301765  0.69244136  1
  O  O358  1  0.70665198  0.82932738  0.19376425  1
  O  O359  1  0.70957396  0.83322420  0.69987525  1
  O  O360  1  0.21225969  0.41678315  0.19618845  1
  O  O361  1  0.21153486  0.41569232  0.69650457  1
  O  O362  1  0.21354202  0.91700608  0.19564715  1
  O  O363  1  0.20675421  0.92682843  0.68572404  1
  O  O364  1  0.53886438  0.41492462  0.19695092  1
  O  O365  1  0.54766443  0.41600977  0.70345992  1
  O  O366  1  0.54275353  0.91584819  0.19538085  1
  O  O367  1  0.53971454  0.91700934  0.69254527  1
  O  O368  1  0.87588664  0.41951909  0.19557266  1
  O  O369  1  0.87329668  0.41762372  0.69306607  1
  O  O370  1  0.87718727  0.91268942  0.19715754  1
  O  O371  1  0.87960221  0.91440864  0.69073027  1
  O  O372  1  0.05018310  0.17841265  0.19197294  1
  O  O373  1  0.04558438  0.16542817  0.69517397  1
  O  O374  1  0.04632293  0.66407930  0.19413675  1
  O  O375  1  0.04458621  0.66338211  0.69177689  1
  O  O376  1  0.37616777  0.16418212  0.19682309  1
  O  O377  1  0.37923753  0.16046524  0.69339922  1
  O  O378  1  0.37340892  0.67093941  0.19298875  1
  O  O379  1  0.37526456  0.66475069  0.69581102  1
  O  O380  1  0.70825777  0.17434573  0.19237483  1
  O  O381  1  0.70993918  0.16738179  0.70085999  1
  O  O382  1  0.70989779  0.66261311  0.19452390  1
  O  O383  1  0.70619268  0.67009318  0.69128933  1
  O  O384  1  0.13351968  0.08131870  0.30399165  1
  O  O385  1  0.11923993  0.08291876  0.80742361  1
  O  O386  1  0.12445515  0.58505806  0.30268563  1
  O  O387  1  0.12699385  0.58175384  0.80479384  1
  O  O388  1  0.45470506  0.08341343  0.30569531  1
  O  O389  1  0.45410363  0.08285735  0.80104472  1
  O  O390  1  0.45264975  0.58391591  0.30059237  1
  O  O391  1  0.45479631  0.58461980  0.80709064  1
  O  O392  1  0.79062649  0.08168343  0.29987185  1
  O  O393  1  0.79060015  0.08228815  0.79753385  1
  O  O394  1  0.79004697  0.58399909  0.30377374  1
  O  O395  1  0.78595289  0.58658617  0.79904761  1
  O  O396  1  0.28829901  0.33183885  0.30534029  1
  O  O397  1  0.28489508  0.34162239  0.81196049  1
  O  O398  1  0.29119943  0.83498122  0.30335527  1
  O  O399  1  0.29372991  0.82819798  0.80639030  1
  O  O400  1  0.62200025  0.33215740  0.30447921  1
  O  O401  1  0.62830881  0.33358649  0.80815695  1
  O  O402  1  0.62333168  0.83314945  0.30401823  1
  O  O403  1  0.61991016  0.83437138  0.80590363  1
  O  O404  1  0.95694813  0.33687490  0.30026074  1
  O  O405  1  0.95461789  0.33543828  0.80423977  1
  O  O406  1  0.96035069  0.82723075  0.30234596  1
  O  O407  1  0.96059033  0.83256197  0.80478818  1
  O  O408  1  0.12738165  0.41977221  0.30634928  1
  O  O409  1  0.12932457  0.41841197  0.80788741  1
  O  O410  1  0.12369038  0.91305182  0.30266754  1
  O  O411  1  0.11947914  0.92292910  0.80523583  1
  O  O412  1  0.45463956  0.41360815  0.30666203  1
  O  O413  1  0.45394644  0.41705524  0.80350203  1
  O  O414  1  0.45707671  0.91786202  0.30466588  1
  O  O415  1  0.46199625  0.91696054  0.80943590  1
  O  O416  1  0.78875508  0.41750644  0.30724838  1
  O  O417  1  0.79034141  0.41213932  0.80750862  1
  O  O418  1  0.79059723  0.91079026  0.30549959  1
  O  O419  1  0.79056002  0.91690543  0.79742443  1
  O  O420  1  0.28890387  0.16554889  0.30536898  1
  O  O421  1  0.28436464  0.15959953  0.81178419  1
  O  O422  1  0.29009697  0.66882301  0.30555563  1
  O  O423  1  0.28854892  0.66649907  0.80549580  1
  O  O424  1  0.61997965  0.16944609  0.30683588  1
  O  O425  1  0.62198045  0.16569725  0.80755794  1
  O  O426  1  0.62495108  0.66832266  0.30672035  1
  O  O427  1  0.62318259  0.66673398  0.80516598  1
  O  O428  1  0.95530966  0.17606940  0.30964507  1
  O  O429  1  0.95572958  0.16393942  0.80631555  1
  O  O430  1  0.95825687  0.66439940  0.30252196  1
  O  O431  1  0.96045105  0.66540756  0.80567171  1
  F  F432  1  0.05320721  -0.01165138  0.19590270  1
  F  F433  1  0.04467559  0.00086209  0.70133253  1
  F  F434  1  0.04720877  0.50010232  0.20204923  1
  F  F435  1  0.05045481  0.50444891  0.69876470  1
  F  F436  1  0.37984492  0.00047087  0.20291904  1
  F  F437  1  0.37693336  0.00001975  0.70165934  1
  F  F438  1  0.37496798  0.49721970  0.20219974  1
  F  F439  1  0.37773993  0.50173889  0.70380807  1
  F  F440  1  0.71014588  -0.00757178  0.19968657  1
  F  F441  1  0.70959507  -0.00003543  0.69783774  1
  F  F442  1  0.71223409  0.49899797  0.20433817  1
  F  F443  1  0.70089881  0.49958716  0.69815227  1
  F  F444  1  0.21387030  0.25080933  0.20273910  1
  F  F445  1  0.20040728  0.25242426  0.70108224  1
  F  F446  1  0.21384958  0.75015505  0.20147872  1
  F  F447  1  0.21586359  0.73689005  0.69549787  1
  F  F448  1  0.54211178  0.24969506  0.20325275  1
  F  F449  1  0.54638519  0.25104506  0.70373682  1
  F  F450  1  0.54356926  0.74991363  0.20333535  1
  F  F451  1  0.54402986  0.74994289  0.70422699  1
  F  F452  1  0.87802905  0.25256989  0.20146335  1
  F  F453  1  0.87451007  0.24931804  0.70050504  1
  F  F454  1  0.87992607  0.74575088  0.20005753  1
  F  F455  1  0.87891407  0.74913617  0.70282273  1
  F  F456  1  0.28892783  -0.00102026  0.29828927  1
  F  F457  1  0.28532383  -0.00031027  0.80279372  1
  F  F458  1  0.28819715  0.50018166  0.29827381  1
  F  F459  1  0.28813716  0.50132791  0.79987043  1
  F  F460  1  0.61795511  -0.00840688  0.30188730  1
  F  F461  1  0.61961637  -0.00032403  0.79466591  1
  F  F462  1  0.62147969  0.49813335  0.29981082  1
  F  F463  1  0.62270504  0.50315121  0.80180171  1
  F  F464  1  0.95437453  -0.01253267  0.30097751  1
  F  F465  1  0.95425272  -0.00116690  0.79421934  1
  F  F466  1  0.95582465  0.50204686  0.29785040  1
  F  F467  1  0.96377853  0.50276934  0.80554873  1
  F  F468  1  0.12416808  0.25183978  0.29847443  1
  F  F469  1  0.12741295  0.24937795  0.80537786  1
  F  F470  1  0.12254739  0.74931478  0.29573365  1
  F  F471  1  0.11872532  0.73958938  0.79873862  1
  F  F472  1  0.45258694  0.24813079  0.29893572  1
  F  F473  1  0.46674741  0.25144737  0.80302579  1
  F  F474  1  0.45454086  0.75204928  0.29784972  1
  F  F475  1  0.45434985  0.74681356  0.79972157  1
  F  F476  1  0.78645042  0.25205216  0.29793333  1
  F  F477  1  0.78948160  0.25258144  0.79868497  1
  F  F478  1  0.78914090  0.74778461  0.29512257  1
  F  F479  1  0.78942229  0.74830868  0.79791559  1
