# generated using pymatgen
data_K24Na3Li5Mg64Fe17Si79(O5F)48
_symmetry_space_group_name_H-M   'P 1'
_cell_length_a   16.10951918
_cell_length_b   18.60048216
_cell_length_c   20.56609044
_cell_angle_alpha   90.01602900
_cell_angle_beta   99.99107841
_cell_angle_gamma   89.97546610
_symmetry_Int_Tables_number   1
_chemical_formula_structural   K24Na3Li5Mg64Fe17Si79(O5F)48
_chemical_formula_sum   'K24 Na3 Li5 Mg64 Fe17 Si79 O240 F48'
_cell_volume   6069.06585486
_cell_formula_units_Z   1
loop_
 _symmetry_equiv_pos_site_id
 _symmetry_equiv_pos_as_xyz
  1  'x, y, z'
loop_
 _atom_site_type_symbol
 _atom_site_label
 _atom_site_symmetry_multiplicity
 _atom_site_fract_x
 _atom_site_fract_y
 _atom_site_fract_z
 _atom_site_occupancy
  K  K0  1  0.00002988  0.00302927  -0.00296717  1
  K  K1  1  0.00836495  0.00506050  0.50761429  1
  K  K2  1  0.00008303  0.49225473  -0.00114689  1
  K  K3  1  0.00063398  0.49796730  0.49930438  1
  K  K4  1  0.32302916  0.00328388  -0.01008178  1
  K  K5  1  0.33169289  -0.00027298  0.50560877  1
  K  K6  1  0.33926043  0.50354586  0.00814558  1
  K  K7  1  0.33228422  0.50126646  0.49940468  1
  K  K8  1  0.66647189  -0.00095991  -0.00444727  1
  K  K9  1  0.65836989  0.00626678  0.50679563  1
  K  K10  1  0.67056165  0.49659166  -0.00107234  1
  K  K11  1  0.66173762  0.51519937  0.49854228  1
  K  K12  1  0.17485415  0.24790762  -0.00435355  1
  K  K13  1  0.15987011  0.23020576  0.50464591  1
  K  K14  1  0.17861123  0.74717164  0.00619683  1
  K  K15  1  0.17684368  0.75227018  0.49441808  1
  K  K16  1  0.48476466  0.24424003  -0.01489813  1
  K  K17  1  0.48926221  0.25527571  0.50773692  1
  K  K18  1  0.48394003  0.74828532  0.00428793  1
  K  K19  1  0.50436910  0.74666218  0.49921500  1
  K  K20  1  0.83057123  0.24919993  -0.00746610  1
  K  K21  1  0.84885946  0.24190170  0.51083177  1
  K  K22  1  0.84145474  0.75413130  0.00419305  1
  K  K23  1  0.81739931  0.74800454  0.49629761  1
  Na  Na24  1  0.49661616  0.50324989  0.25004858  1
  Na  Na25  1  0.33073472  0.07977754  0.75012972  1
  Na  Na26  1  0.49711651  0.32804498  0.75585148  1
  Li  Li27  1  0.00447679  0.75149317  0.24869450  1
  Li  Li28  1  0.16572212  0.00421220  0.74926833  1
  Li  Li29  1  0.33959456  0.58792002  0.24984352  1
  Li  Li30  1  0.00880672  0.08069994  0.74485896  1
  Li  Li31  1  0.66416602  0.08292423  0.74697842  1
  Mg  Mg32  1  0.00029332  0.24919358  0.25032202  1
  Mg  Mg33  1  0.66889280  0.25169584  0.24981323  1
  Mg  Mg34  1  0.82952530  0.49864236  0.75205598  1
  Mg  Mg35  1  0.33230854  0.74929483  0.75183278  1
  Mg  Mg36  1  0.83635571  -0.00114429  0.24858521  1
  Mg  Mg37  1  0.16322320  0.50052126  0.75356318  1
  Mg  Mg38  1  0.33323188  0.25207586  0.24718749  1
  Mg  Mg39  1  0.83431816  0.00186962  0.74715106  1
  Mg  Mg40  1  0.50268535  0.00130399  0.74547430  1
  Mg  Mg41  1  -0.00069420  0.75129427  0.75091847  1
  Mg  Mg42  1  0.83597909  0.50303679  0.25361428  1
  Mg  Mg43  1  0.66688896  0.74994806  0.25101319  1
  Mg  Mg44  1  0.17222933  0.50271112  0.24893270  1
  Mg  Mg45  1  -0.00078693  0.24555967  0.75073578  1
  Mg  Mg46  1  0.33650911  0.74819120  0.24786952  1
  Mg  Mg47  1  0.49887939  0.49799228  0.75303927  1
  Mg  Mg48  1  0.66656069  0.24535951  0.75259393  1
  Mg  Mg49  1  0.16617769  0.00142430  0.24791084  1
  Mg  Mg50  1  0.50041874  0.00061079  0.24614062  1
  Mg  Mg51  1  0.66659965  0.75129467  0.74639617  1
  Mg  Mg52  1  0.33167427  0.24843223  0.75263376  1
  Mg  Mg53  1  0.50039538  0.66443907  0.25259162  1
  Mg  Mg54  1  0.83237620  0.83514680  0.74659333  1
  Mg  Mg55  1  0.00093025  0.91334065  0.24978173  1
  Mg  Mg56  1  0.49986049  0.16682204  0.24640034  1
  Mg  Mg57  1  -0.00353399  0.41379884  0.75177643  1
  Mg  Mg58  1  0.16547103  0.33198579  0.75276976  1
  Mg  Mg59  1  0.83725384  0.33540827  0.25303211  1
  Mg  Mg60  1  0.16566446  0.16485057  0.24958687  1
  Mg  Mg61  1  0.49905833  0.83564942  0.74567439  1
  Mg  Mg62  1  0.16778849  0.66639447  0.75534890  1
  Mg  Mg63  1  0.16942210  0.66754185  0.24768253  1
  Mg  Mg64  1  0.66907613  0.08452393  0.24930701  1
  Mg  Mg65  1  0.66543907  0.91955919  0.74437178  1
  Mg  Mg66  1  0.00164069  0.08456941  0.24990324  1
  Mg  Mg67  1  0.50014155  0.33521120  0.24762141  1
  Mg  Mg68  1  0.33136301  0.91709323  0.74873616  1
  Mg  Mg69  1  0.33226597  0.41618454  0.75370375  1
  Mg  Mg70  1  0.66504593  0.41274266  0.75497834  1
  Mg  Mg71  1  0.83066336  0.33258788  0.75291502  1
  Mg  Mg72  1  0.50004685  0.66554947  0.75106024  1
  Mg  Mg73  1  0.49917015  0.83478776  0.24786071  1
  Mg  Mg74  1  0.66889687  0.91556324  0.24785917  1
  Mg  Mg75  1  0.33053140  0.08556736  0.24682049  1
  Mg  Mg76  1  0.66514895  0.58438046  0.75014185  1
  Mg  Mg77  1  0.00333640  0.41793709  0.25189744  1
  Mg  Mg78  1  0.33517213  0.58411649  0.75710779  1
  Mg  Mg79  1  0.33205281  0.91565980  0.24578258  1
  Mg  Mg80  1  0.83788630  0.83296127  0.24803906  1
  Mg  Mg81  1  0.00389624  0.58819119  0.25239535  1
  Mg  Mg82  1  0.82980003  0.66606256  0.74993418  1
  Mg  Mg83  1  0.49932292  0.16437903  0.75005349  1
  Mg  Mg84  1  0.00207536  0.92097020  0.74917712  1
  Mg  Mg85  1  0.33240727  0.42095959  0.24788906  1
  Mg  Mg86  1  0.66636554  0.58523639  0.25286005  1
  Mg  Mg87  1  0.16734605  0.33569668  0.24897302  1
  Mg  Mg88  1  0.16410145  0.15877605  0.74790254  1
  Mg  Mg89  1  0.16691557  0.83250175  0.24819253  1
  Mg  Mg90  1  0.83653141  0.16584768  0.25047094  1
  Mg  Mg91  1  0.83432132  0.16255928  0.74738208  1
  Mg  Mg92  1  0.16761987  0.83569378  0.75211907  1
  Mg  Mg93  1  -0.00293529  0.58415688  0.75164988  1
  Mg  Mg94  1  0.66837315  0.41857122  0.25213894  1
  Mg  Mg95  1  0.83665017  0.66870612  0.25228728  1
  Fe  Fe96  1  0.30713129  0.16639347  0.89062593  1
  Fe  Fe97  1  0.80508101  0.41586108  0.89289877  1
  Fe  Fe98  1  0.30715211  0.66512896  0.89326249  1
  Fe  Fe99  1  0.35845989  0.66216361  0.10939605  1
  Fe  Fe100  1  0.35238608  0.17093336  0.60885263  1
  Fe  Fe101  1  0.47713215  0.41806541  0.89249082  1
  Fe  Fe102  1  0.35826624  0.83940540  0.10694904  1
  Fe  Fe103  1  0.97042822  0.16687591  0.38995058  1
  Fe  Fe104  1  0.18499832  0.08782939  0.10699725  1
  Fe  Fe105  1  0.52214464  0.92086859  0.60617673  1
  Fe  Fe106  1  0.69068977  0.66630509  0.61059890  1
  Fe  Fe107  1  0.18910783  0.41255330  0.10832744  1
  Fe  Fe108  1  0.02614116  0.16258458  0.61075783  1
  Fe  Fe109  1  0.14281804  0.07691559  0.39073792  1
  Fe  Fe110  1  0.63771589  0.66908300  0.39097343  1
  Fe  Fe111  1  0.31423076  0.66367989  0.38778992  1
  Fe  Fe112  1  0.86141977  0.91568370  0.10824138  1
  Si  Si113  1  0.64160283  0.84169377  0.38643026  1
  Si  Si114  1  0.64598942  0.16052628  0.88539352  1
  Si  Si115  1  0.86088444  0.42181662  0.11804845  1
  Si  Si116  1  0.97436932  0.83096638  0.38530899  1
  Si  Si117  1  0.30377473  0.34016275  0.89163440  1
  Si  Si118  1  0.80479405  0.58690357  0.88893909  1
  Si  Si119  1  0.85385581  0.08003475  0.61069081  1
  Si  Si120  1  0.36447019  0.16577772  0.11096150  1
  Si  Si121  1  0.01765493  0.17196506  0.11138629  1
  Si  Si122  1  0.47744296  0.91607258  0.88358276  1
  Si  Si123  1  0.69398898  0.83686041  0.60902219  1
  Si  Si124  1  0.81074362  0.08090814  0.88289562  1
  Si  Si125  1  0.19026654  0.07310991  0.60972976  1
  Si  Si126  1  0.64492392  0.33014521  0.38603202  1
  Si  Si127  1  0.18676183  0.42313299  0.61703980  1
  Si  Si128  1  0.48319296  0.58481079  0.89087391  1
  Si  Si129  1  0.96738156  0.66862499  0.88518555  1
  Si  Si130  1  0.97292443  0.16339274  0.88392961  1
  Si  Si131  1  0.69460644  0.82847950  0.11330481  1
  Si  Si132  1  0.97309030  0.32738432  0.88806141  1
  Si  Si133  1  0.80966585  0.58230897  0.38942931  1
  Si  Si134  1  0.47629545  0.57793907  0.39270317  1
  Si  Si135  1  0.69469094  0.66454658  0.11614808  1
  Si  Si136  1  0.13348164  0.41630651  0.88595426  1
  Si  Si137  1  0.52217480  0.41366285  0.61810211  1
  Si  Si138  1  0.68932631  0.33300692  0.61538218  1
  Si  Si139  1  0.02608861  0.66717035  0.61729361  1
  Si  Si140  1  0.69762078  0.33671002  0.11642716  1
  Si  Si141  1  0.86104451  0.91495623  0.61342794  1
  Si  Si142  1  0.52128013  0.57741233  0.61452272  1
  Si  Si143  1  0.02404118  0.83128135  0.61504111  1
  Si  Si144  1  0.86107031  0.58684885  0.11697841  1
  Si  Si145  1  0.97287644  0.66486758  0.38688393  1
  Si  Si146  1  0.81082875  0.91876855  0.38494843  1
  Si  Si147  1  0.02567758  0.66782474  0.11558283  1
  Si  Si148  1  0.47192471  0.08909191  0.38207603  1
  Si  Si149  1  0.19143947  0.90712201  0.61406428  1
  Si  Si150  1  0.64356154  0.83524417  0.88274692  1
  Si  Si151  1  0.47402625  0.92447044  0.38256832  1
  Si  Si152  1  0.18214705  0.58081417  0.10981764  1
  Si  Si153  1  0.31039136  0.33696396  0.38505390  1
  Si  Si154  1  0.86310240  0.58216923  0.61434661  1
  Si  Si155  1  0.85583932  0.41668947  0.61570278  1
  Si  Si156  1  0.53359388  0.58174817  0.11298267  1
  Si  Si157  1  0.02316755  0.33555679  0.61399027  1
  Si  Si158  1  0.80162194  0.08358669  0.38556260  1
  Si  Si159  1  0.36579241  0.33300189  0.11116684  1
  Si  Si160  1  0.14567644  0.90779304  0.38669027  1
  Si  Si161  1  0.35635031  0.82668826  0.61141320  1
  Si  Si162  1  0.47803100  0.41139980  0.38496175  1
  Si  Si163  1  0.80987478  0.41588434  0.38722036  1
  Si  Si164  1  0.97993445  0.33739272  0.38891788  1
  Si  Si165  1  0.18919854  0.58609831  0.61838513  1
  Si  Si166  1  0.13707340  0.08018097  0.88582244  1
  Si  Si167  1  0.13063192  0.58282221  0.88889174  1
  Si  Si168  1  0.13895996  0.91499721  0.88456007  1
  Si  Si169  1  0.35739577  0.66161848  0.61707421  1
  Si  Si170  1  0.14417641  0.42068022  0.38598993  1
  Si  Si171  1  0.03077013  0.83257899  0.11258500  1
  Si  Si172  1  0.34667715  0.33824901  0.61438217  1
  Si  Si173  1  0.80909460  0.91655676  0.88218197  1
  Si  Si174  1  0.14133787  0.58674681  0.38844949  1
  Si  Si175  1  0.01868821  0.33209282  0.11423295  1
  Si  Si176  1  0.30807183  0.17220171  0.38568461  1
  Si  Si177  1  0.18715064  0.91918926  0.11109557  1
  Si  Si178  1  0.52256580  0.09151549  0.60849568  1
  Si  Si179  1  0.31016402  0.83760840  0.88666705  1
  Si  Si180  1  0.48284832  0.07969889  0.88649055  1
  Si  Si181  1  0.64288426  0.32445491  0.89264600  1
  Si  Si182  1  0.53381061  0.08611245  0.11342291  1
  Si  Si183  1  0.53399843  0.91957933  0.11059835  1
  Si  Si184  1  0.53320148  0.41458595  0.11584076  1
  Si  Si185  1  0.64034629  0.67238771  0.88550809  1
  Si  Si186  1  0.69703268  0.17216665  0.11521413  1
  Si  Si187  1  0.69396130  0.16802109  0.61430583  1
  Si  Si188  1  0.85597344  0.08467271  0.11136087  1
  Si  Si189  1  0.31519469  0.83283979  0.38427494  1
  Si  Si190  1  0.97479839  0.83320400  0.88443008  1
  Si  Si191  1  0.63891321  0.16553801  0.38314038  1
  O  O192  1  0.28467997  0.11888373  0.07731597  1
  O  O193  1  0.27143155  0.10029841  0.57856975  1
  O  O194  1  0.26308627  0.60516272  0.07813841  1
  O  O195  1  0.27159698  0.61466216  0.58942637  1
  O  O196  1  0.61251112  0.12557301  0.08580916  1
  O  O197  1  0.60873894  0.12421078  0.58329682  1
  O  O198  1  0.62018529  0.60852208  0.08477167  1
  O  O199  1  0.59650042  0.60859653  0.58048176  1
  O  O200  1  0.93873530  0.11658901  0.08410507  1
  O  O201  1  0.92635908  0.11270362  0.57449787  1
  O  O202  1  0.94044336  0.61887620  0.08600143  1
  O  O203  1  0.95030667  0.61048883  0.58893318  1
  O  O204  1  0.09714711  0.34930651  0.07804123  1
  O  O205  1  0.10000349  0.37964133  0.58636382  1
  O  O206  1  0.11871706  0.85336910  0.08598126  1
  O  O207  1  0.10565662  0.85891172  0.58446148  1
  O  O208  1  0.45118159  0.36529545  0.08620396  1
  O  O209  1  0.43465171  0.36932368  0.59080646  1
  O  O210  1  0.45263066  0.87794572  0.07362737  1
  O  O211  1  0.43025726  0.85814603  0.57566441  1
  O  O212  1  0.77803663  0.37248902  0.08887796  1
  O  O213  1  0.76644212  0.37522781  0.58648598  1
  O  O214  1  0.77321084  0.84998484  0.07798166  1
  O  O215  1  0.78394377  0.86030545  0.58448690  1
  O  O216  1  0.28540621  0.37848789  0.07599002  1
  O  O217  1  0.26906646  0.39702714  0.58624850  1
  O  O218  1  0.27012260  0.90512877  0.07822810  1
  O  O219  1  0.26679969  0.86815942  0.58140375  1
  O  O220  1  0.61445849  0.38312560  0.08501896  1
  O  O221  1  0.59906628  0.37395277  0.58608351  1
  O  O222  1  0.61720495  0.88442408  0.08531213  1
  O  O223  1  0.62294717  0.89414792  0.57727405  1
  O  O224  1  0.94130812  0.39054671  0.08850066  1
  O  O225  1  0.93410797  0.38067139  0.58551818  1
  O  O226  1  0.95591883  0.88367665  0.07397957  1
  O  O227  1  0.94368181  0.88288129  0.58460620  1
  O  O228  1  0.09634876  0.15360303  0.07526867  1
  O  O229  1  0.10814988  0.11714802  0.57143345  1
  O  O230  1  0.10273052  0.63774731  0.08106641  1
  O  O231  1  0.10988802  0.63962292  0.58849953  1
  O  O232  1  0.44917982  0.13220040  0.08528007  1
  O  O233  1  0.44948893  0.14686848  0.57460971  1
  O  O234  1  0.45391086  0.62596851  0.07539552  1
  O  O235  1  0.43349479  0.62267775  0.58692813  1
  O  O236  1  0.77737932  0.14169468  0.08523833  1
  O  O237  1  0.76753575  0.12730468  0.58101919  1
  O  O238  1  0.77920155  0.63713905  0.08695445  1
  O  O239  1  0.78653491  0.63110662  0.57853889  1
  O  O240  1  0.04985998  0.10224557  0.42678725  1
  O  O241  1  0.05290590  0.11228091  0.91362364  1
  O  O242  1  0.05703772  0.61741535  0.41687759  1
  O  O243  1  0.04470502  0.61421491  0.91411041  1
  O  O244  1  0.39492554  0.12529694  0.41218650  1
  O  O245  1  0.40802306  0.11287638  0.92050363  1
  O  O246  1  0.39443434  0.59561804  0.42666168  1
  O  O247  1  0.40111237  0.60702605  0.92239611  1
  O  O248  1  0.71141624  0.10587219  0.40989295  1
  O  O249  1  0.73087402  0.11192419  0.91439070  1
  O  O250  1  0.73723441  0.61666377  0.42419416  1
  O  O251  1  0.72209674  0.62197545  0.91526884  1
  O  O252  1  0.23098879  0.37467805  0.41421105  1
  O  O253  1  0.21713093  0.37145437  0.91648801  1
  O  O254  1  0.22816494  0.85541635  0.41222428  1
  O  O255  1  0.22925439  0.87526458  0.91392102  1
  O  O256  1  0.56255672  0.36090049  0.41473645  1
  O  O257  1  0.55631035  0.34423054  0.91908487  1
  O  O258  1  0.56219812  0.88272417  0.41292713  1
  O  O259  1  0.56243267  0.86686645  0.91255727  1
  O  O260  1  0.89772183  0.37353253  0.41655751  1
  O  O261  1  0.89888046  0.35723643  0.92464612  1
  O  O262  1  0.89588329  0.87114196  0.41486709  1
  O  O263  1  0.89347413  0.86832813  0.91250245  1
  O  O264  1  0.06256076  0.38936760  0.41576949  1
  O  O265  1  0.05625020  0.37781217  0.91496508  1
  O  O266  1  0.06465764  0.86996980  0.41525795  1
  O  O267  1  0.06165904  0.87524989  0.91595947  1
  O  O268  1  0.39712993  0.38111679  0.41722646  1
  O  O269  1  0.37737449  0.39571388  0.92412074  1
  O  O270  1  0.39170560  0.89284691  0.41012713  1
  O  O271  1  0.39553354  0.88649433  0.91337579  1
  O  O272  1  0.73030407  0.37738488  0.41526090  1
  O  O273  1  0.71858195  0.37569478  0.93150090  1
  O  O274  1  0.72871719  0.88860721  0.41416824  1
  O  O275  1  0.72808549  0.88364277  0.91218147  1
  O  O276  1  0.23344599  0.14118377  0.41978031  1
  O  O277  1  0.21836009  0.12226709  0.92586121  1
  O  O278  1  0.21808282  0.63522705  0.42487597  1
  O  O279  1  0.20942421  0.63028131  0.92276318  1
  O  O280  1  0.55475697  0.13907838  0.41099205  1
  O  O281  1  0.57096188  0.12335106  0.91907984  1
  O  O282  1  0.55644434  0.62436024  0.43155251  1
  O  O283  1  0.55773665  0.64703032  0.91527731  1
  O  O284  1  0.86837777  0.14211788  0.41896928  1
  O  O285  1  0.89313460  0.12954377  0.91592598  1
  O  O286  1  0.89797473  0.62543190  0.41934938  1
  O  O287  1  0.88337078  0.64377534  0.91417887  1
  O  O288  1  0.14500507  -0.00485931  0.08218451  1
  O  O289  1  0.17537505  -0.01261849  0.58337741  1
  O  O290  1  0.14952572  0.50308002  0.07767400  1
  O  O291  1  0.16617072  0.50571196  0.58781899  1
  O  O292  1  0.53030981  0.00452097  0.08419196  1
  O  O293  1  0.50330877  0.01372420  0.57131136  1
  O  O294  1  0.52028331  0.49663166  0.08809165  1
  O  O295  1  0.50448592  0.49453858  0.58573765  1
  O  O296  1  0.82884893  0.00892822  0.07556866  1
  O  O297  1  0.83741438  -0.00461795  0.58328974  1
  O  O298  1  0.84210431  0.50391084  0.08914714  1
  O  O299  1  0.84776252  0.49902423  0.58625441  1
  O  O300  1  -0.02114439  0.25285329  0.08965365  1
  O  O301  1  0.01300830  0.25886178  0.57797880  1
  O  O302  1  0.00506741  0.74941521  0.08642441  1
  O  O303  1  0.00215511  0.74812481  0.58750483  1
  O  O304  1  0.35806959  0.24915953  0.08385401  1
  O  O305  1  0.32157091  0.26485307  0.57399057  1
  O  O306  1  0.33461928  0.75067962  0.06887173  1
  O  O307  1  0.33968130  0.74196614  0.58575901  1
  O  O308  1  0.68333740  0.25469774  0.08748581  1
  O  O309  1  0.68494991  0.25157661  0.58345625  1
  O  O310  1  0.66725662  0.74546363  0.08800134  1
  O  O311  1  0.66958238  0.75850728  0.57635614  1
  O  O312  1  0.16897244  -0.01679771  0.42367727  1
  O  O313  1  0.14371652  -0.00395382  0.91497107  1
  O  O314  1  0.15647997  0.50245569  0.41626063  1
  O  O315  1  0.13918623  0.49893930  0.91476582  1
  O  O316  1  0.48855568  0.00744112  0.41115484  1
  O  O317  1  0.50043830  -0.00414172  0.91525027  1
  O  O318  1  0.50187746  0.49157051  0.41361186  1
  O  O319  1  0.52217959  0.50935046  0.92160388  1
  O  O320  1  0.82633481  0.00145448  0.41305850  1
  O  O321  1  0.82640415  -0.00211762  0.91245522  1
  O  O322  1  0.82314551  0.49775091  0.41634027  1
  O  O323  1  0.82692058  0.51123659  0.92608299  1
  O  O324  1  0.32720482  0.25521039  0.41407675  1
  O  O325  1  0.32105864  0.26122276  0.92514078  1
  O  O326  1  0.34714551  0.75782236  0.41938855  1
  O  O327  1  0.32732366  0.76026577  0.92195895  1
  O  O328  1  0.66329228  0.24679728  0.41294044  1
  O  O329  1  0.66680727  0.24033648  0.91874044  1
  O  O330  1  0.65457165  0.76455863  0.42208718  1
  O  O331  1  0.66421971  0.75420704  0.91357558  1
  O  O332  1  0.99881845  0.26065742  0.42314322  1
  O  O333  1  0.99371752  0.24462711  0.91546271  1
  O  O334  1  0.98108164  0.74811327  0.41576319  1
  O  O335  1  0.98702426  0.75048562  0.91375396  1
  O  O336  1  0.21211911  0.08640757  0.19850676  1
  O  O337  1  0.19886984  0.08003581  0.68839988  1
  O  O338  1  0.19714058  0.58282423  0.19015759  1
  O  O339  1  0.20461891  0.58395722  0.69830470  1
  O  O340  1  0.54825207  0.08551442  0.19415598  1
  O  O341  1  0.53757557  0.08414816  0.68861487  1
  O  O342  1  0.55233755  0.58862281  0.19243066  1
  O  O343  1  0.54079135  0.58175699  0.69551752  1
  O  O344  1  0.87298221  0.08311443  0.19235597  1
  O  O345  1  0.87059942  0.08161913  0.69043753  1
  O  O346  1  0.87835628  0.58469231  0.19728485  1
  O  O347  1  0.87666312  0.58294099  0.69539954  1
  O  O348  1  0.04022193  0.33490540  0.19553273  1
  O  O349  1  0.03981253  0.33607651  0.69475489  1
  O  O350  1  0.04523406  0.83713294  0.19262788  1
  O  O351  1  0.04161104  0.83091213  0.69518460  1
  O  O352  1  0.37919225  0.33251424  0.19231243  1
  O  O353  1  0.35883807  0.33538469  0.69390042  1
  O  O354  1  0.38056004  0.83620335  0.19926810  1
  O  O355  1  0.37504293  0.82844632  0.69233897  1
  O  O356  1  0.71452880  0.33526557  0.19700077  1
  O  O357  1  0.70818297  0.33254926  0.69534498  1
  O  O358  1  0.71217408  0.83230614  0.19446552  1
  O  O359  1  0.71125211  0.83349949  0.69083303  1
  O  O360  1  0.20942346  0.41521091  0.19985673  1
  O  O361  1  0.20411571  0.42062364  0.69733953  1
  O  O362  1  0.20847155  0.91827998  0.19309675  1
  O  O363  1  0.21225860  0.90531652  0.69315729  1
  O  O364  1  0.55330392  0.40914412  0.19533810  1
  O  O365  1  0.54843322  0.42038345  0.69681786  1
  O  O366  1  0.54729674  0.91959187  0.19186910  1
  O  O367  1  0.54521577  0.91484890  0.69739720  1
  O  O368  1  0.87803157  0.41970560  0.19855809  1
  O  O369  1  0.87510169  0.41637121  0.69594620  1
  O  O370  1  0.87879905  0.91652751  0.19976417  1
  O  O371  1  0.87866044  0.91432849  0.69368682  1
  O  O372  1  0.04122240  0.16899991  0.19211527  1
  O  O373  1  0.04426910  0.16912238  0.70047739  1
  O  O374  1  0.04381832  0.66460890  0.19516258  1
  O  O375  1  0.04265873  0.66684222  0.69779167  1
  O  O376  1  0.37940355  0.16703897  0.19228954  1
  O  O377  1  0.38120824  0.17545912  0.69765567  1
  O  O378  1  0.38551300  0.66966370  0.19922408  1
  O  O379  1  0.37706298  0.66420304  0.69729388  1
  O  O380  1  0.71244535  0.16921911  0.19584464  1
  O  O381  1  0.71469638  0.17025974  0.69361792  1
  O  O382  1  0.71537202  0.66540733  0.19644558  1
  O  O383  1  0.71133240  0.66605294  0.70230226  1
  O  O384  1  0.12132018  0.08319141  0.29867442  1
  O  O385  1  0.12413643  0.08236629  0.80697308  1
  O  O386  1  0.12381377  0.58481554  0.30784958  1
  O  O387  1  0.11695704  0.58400261  0.80757517  1
  O  O388  1  0.45718735  0.08677615  0.30152147  1
  O  O389  1  0.47038133  0.07867647  0.80711815  1
  O  O390  1  0.46169206  0.59025138  0.31416084  1
  O  O391  1  0.46103063  0.58612337  0.80891279  1
  O  O392  1  0.78805522  0.08350328  0.30428529  1
  O  O393  1  0.79523019  0.08151703  0.80370173  1
  O  O394  1  0.79356773  0.58387897  0.30851518  1
  O  O395  1  0.78989636  0.58340401  0.80808074  1
  O  O396  1  0.29194603  0.33418272  0.30492558  1
  O  O397  1  0.28574659  0.33847869  0.80999197  1
  O  O398  1  0.29281030  0.83498305  0.30369350  1
  O  O399  1  0.29123150  0.83175715  0.80593899  1
  O  O400  1  0.62723821  0.33207254  0.30568233  1
  O  O401  1  0.63734028  0.32932939  0.81270552  1
  O  O402  1  0.62515090  0.83870316  0.30537416  1
  O  O403  1  0.62594607  0.83271968  0.80269226  1
  O  O404  1  0.95898268  0.33645775  0.30767047  1
  O  O405  1  0.95381031  0.33211536  0.80701067  1
  O  O406  1  0.95575355  0.83356854  0.30592987  1
  O  O407  1  0.95546490  0.83223451  0.80417533  1
  O  O408  1  0.12340793  0.41761365  0.30598804  1
  O  O409  1  0.11740397  0.41779312  0.80525346  1
  O  O410  1  0.12438026  0.91377471  0.30589262  1
  O  O411  1  0.11782613  0.90939712  0.80544937  1
  O  O412  1  0.45510777  0.40599337  0.30592971  1
  O  O413  1  0.44866280  0.42493165  0.80250046  1
  O  O414  1  0.45934725  0.92238756  0.30233484  1
  O  O415  1  0.45784966  0.91342710  0.80376735  1
  O  O416  1  0.79265315  0.41592156  0.30675203  1
  O  O417  1  0.78805866  0.41682474  0.80103279  1
  O  O418  1  0.79083709  0.91725708  0.30453370  1
  O  O419  1  0.79005978  0.91472828  0.80230023  1
  O  O420  1  0.29271444  0.17089134  0.30468129  1
  O  O421  1  0.27822507  0.17362499  0.80182140  1
  O  O422  1  0.28696899  0.66916347  0.29819313  1
  O  O423  1  0.28777393  0.66660777  0.80127711  1
  O  O424  1  0.62329519  0.16795653  0.30255583  1
  O  O425  1  0.62500611  0.16458360  0.80619571  1
  O  O426  1  0.62441507  0.66863309  0.29976238  1
  O  O427  1  0.62261862  0.66909735  0.80506512  1
  O  O428  1  0.95434028  0.16768193  0.29740099  1
  O  O429  1  0.95032914  0.16867666  0.80494656  1
  O  O430  1  0.95426969  0.66330719  0.30741146  1
  O  O431  1  0.95255414  0.66754083  0.80452045  1
  F  F432  1  0.04251796  -0.00147040  0.20224642  1
  F  F433  1  0.04035488  -0.00539400  0.69684044  1
  F  F434  1  0.04354341  0.50129372  0.20559897  1
  F  F435  1  0.04148830  0.50088272  0.70373402  1
  F  F436  1  0.38109745  0.00351298  0.19988678  1
  F  F437  1  0.38443139  -0.01260684  0.69705847  1
  F  F438  1  0.36772421  0.49769615  0.19654531  1
  F  F439  1  0.37394092  0.50506548  0.70296916  1
  F  F440  1  0.71287100  0.00121674  0.20131815  1
  F  F441  1  0.71732758  -0.00467085  0.69747584  1
  F  F442  1  0.71742704  0.50011373  0.20371508  1
  F  F443  1  0.71095937  0.50172604  0.70179700  1
  F  F444  1  0.21251823  0.25109798  0.20236006  1
  F  F445  1  0.20602725  0.25429694  0.70160933  1
  F  F446  1  0.21224189  0.75261579  0.19845959  1
  F  F447  1  0.20821887  0.74886233  0.70315704  1
  F  F448  1  0.54903563  0.24997298  0.20060782  1
  F  F449  1  0.55226728  0.24253913  0.70159961  1
  F  F450  1  0.54926644  0.75550398  0.20117868  1
  F  F451  1  0.54443205  0.74808201  0.70079113  1
  F  F452  1  0.87581689  0.25459694  0.20220955  1
  F  F453  1  0.87708358  0.25256352  0.70122067  1
  F  F454  1  0.87479761  0.74828804  0.20113976  1
  F  F455  1  0.87888372  0.74868880  0.70156215  1
  F  F456  1  0.29118658  0.00013275  0.29589097  1
  F  F457  1  0.28517185  -0.01377478  0.80263506  1
  F  F458  1  0.28586298  0.49465502  0.30355404  1
  F  F459  1  0.28230687  0.50234982  0.79999941  1
  F  F460  1  0.62196213  0.00146400  0.29558374  1
  F  F461  1  0.62382677  -0.00298750  0.79664547  1
  F  F462  1  0.63712239  0.49918336  0.30377758  1
  F  F463  1  0.62310503  0.50172881  0.79903232  1
  F  F464  1  0.95500300  0.00120211  0.29842394  1
  F  F465  1  0.94905466  -0.00785176  0.80055506  1
  F  F466  1  0.95604260  0.50115105  0.30106153  1
  F  F467  1  0.95206672  0.50017779  0.79870669  1
  F  F468  1  0.12183910  0.25197295  0.29638533  1
  F  F469  1  0.11602200  0.25626980  0.80178117  1
  F  F470  1  0.12464223  0.75048600  0.29616125  1
  F  F471  1  0.11892259  0.74963733  0.80000439  1
  F  F472  1  0.45689839  0.24920077  0.29488327  1
  F  F473  1  0.44948566  0.23824757  0.80698736  1
  F  F474  1  0.46197557  0.75439352  0.30071026  1
  F  F475  1  0.45591309  0.75112761  0.79633764  1
  F  F476  1  0.78861609  0.25137213  0.29886020  1
  F  F477  1  0.78975633  0.24750330  0.79820910  1
  F  F478  1  0.78913079  0.75189013  0.29952937  1
  F  F479  1  0.78932674  0.75332229  0.79784154  1
