# generated using pymatgen
data_K24Na3Li5Mg64Fe17Si79(O5F)48
_symmetry_space_group_name_H-M   'P 1'
_cell_length_a   16.10006247
_cell_length_b   18.60756267
_cell_length_c   20.56660265
_cell_angle_alpha   89.99537236
_cell_angle_beta   100.03233137
_cell_angle_gamma   90.02092618
_symmetry_Int_Tables_number   1
_chemical_formula_structural   K24Na3Li5Mg64Fe17Si79(O5F)48
_chemical_formula_sum   'K24 Na3 Li5 Mg64 Fe17 Si79 O240 F48'
_cell_volume   6067.19223872
_cell_formula_units_Z   1
loop_
 _symmetry_equiv_pos_site_id
 _symmetry_equiv_pos_as_xyz
  1  'x, y, z'
loop_
 _atom_site_type_symbol
 _atom_site_label
 _atom_site_symmetry_multiplicity
 _atom_site_fract_x
 _atom_site_fract_y
 _atom_site_fract_z
 _atom_site_occupancy
  K  K0  1  0.00272408  -0.00229047  -0.00625833  1
  K  K1  1  0.00557914  -0.01139619  0.50638080  1
  K  K2  1  0.00462439  0.49852251  0.01196004  1
  K  K3  1  0.00288056  0.49273948  0.48963982  1
  K  K4  1  0.33321782  -0.00721261  -0.01056832  1
  K  K5  1  0.33824345  -0.00617474  0.51726855  1
  K  K6  1  0.33125600  0.50419569  0.00200797  1
  K  K7  1  0.33105777  0.50330216  0.49761352  1
  K  K8  1  0.64914109  -0.00460480  -0.01486428  1
  K  K9  1  0.66247609  -0.00633945  0.50873385  1
  K  K10  1  0.66430033  0.50014446  0.00342773  1
  K  K11  1  0.67017193  0.49905532  0.49507792  1
  K  K12  1  0.16288481  0.25164349  -0.00079747  1
  K  K13  1  0.16339404  0.24726070  0.50368094  1
  K  K14  1  0.15627831  0.75114842  0.00190398  1
  K  K15  1  0.15702346  0.75610314  0.50093058  1
  K  K16  1  0.50747953  0.25117315  -0.00923636  1
  K  K17  1  0.49867627  0.24794491  0.50832677  1
  K  K18  1  0.50415215  0.75554607  -0.00212268  1
  K  K19  1  0.50660378  0.76130717  0.50976680  1
  K  K20  1  0.82595923  0.23937290  -0.00284247  1
  K  K21  1  0.84598666  0.25514909  0.50083338  1
  K  K22  1  0.83417151  0.75012690  0.00511381  1
  K  K23  1  0.84337025  0.76052419  0.49619861  1
  Na  Na24  1  0.66692494  0.74960802  0.24023690  1
  Na  Na25  1  0.00395957  0.41811267  0.25215479  1
  Na  Na26  1  0.50181931  0.16046794  0.74950474  1
  Li  Li27  1  0.49960466  -0.00554932  0.75318311  1
  Li  Li28  1  0.34339083  0.75856138  0.75750834  1
  Li  Li29  1  0.16384944  0.34025227  0.25222555  1
  Li  Li30  1  0.16204260  0.66295770  0.24494548  1
  Li  Li31  1  0.49858180  0.84107436  0.75636463  1
  Mg  Mg32  1  0.16861274  -0.00314384  0.75086326  1
  Mg  Mg33  1  0.83246542  -0.00250559  0.25054568  1
  Mg  Mg34  1  0.16663235  -0.00023130  0.25329969  1
  Mg  Mg35  1  0.83637777  0.50040700  0.24765238  1
  Mg  Mg36  1  0.33113359  0.74878186  0.24900871  1
  Mg  Mg37  1  0.32909490  0.25285290  0.24939632  1
  Mg  Mg38  1  0.16670389  0.50023470  0.74795866  1
  Mg  Mg39  1  0.00288969  0.74829342  0.25130851  1
  Mg  Mg40  1  0.66693805  0.24719176  0.74737640  1
  Mg  Mg41  1  0.16736676  0.50182881  0.24873748  1
  Mg  Mg42  1  0.33600908  0.24926034  0.75059092  1
  Mg  Mg43  1  0.66477293  0.25086254  0.24837523  1
  Mg  Mg44  1  0.00020622  0.75055365  0.75147155  1
  Mg  Mg45  1  0.83420647  0.00049254  0.74947116  1
  Mg  Mg46  1  0.49855332  0.00007780  0.25093189  1
  Mg  Mg47  1  0.49939927  0.50279906  0.75045399  1
  Mg  Mg48  1  0.00212842  0.24786652  0.74483447  1
  Mg  Mg49  1  0.50191112  0.50073877  0.24545516  1
  Mg  Mg50  1  0.83257825  0.49910196  0.74777692  1
  Mg  Mg51  1  0.66161176  0.75241267  0.74911305  1
  Mg  Mg52  1  0.00299765  0.25288886  0.25394874  1
  Mg  Mg53  1  -0.00067498  0.41411633  0.74590022  1
  Mg  Mg54  1  0.66537639  0.08435980  0.25236805  1
  Mg  Mg55  1  0.00006106  0.08235829  0.74855759  1
  Mg  Mg56  1  0.83088695  0.83462473  0.74978155  1
  Mg  Mg57  1  0.66528777  0.58523445  0.24383215  1
  Mg  Mg58  1  -0.00068804  0.58361618  0.74861722  1
  Mg  Mg59  1  0.16538690  0.33371450  0.74725992  1
  Mg  Mg60  1  0.50067952  0.66651520  0.24587379  1
  Mg  Mg61  1  0.16973362  0.16416845  0.74800079  1
  Mg  Mg62  1  0.49745140  0.33629273  0.24613432  1
  Mg  Mg63  1  0.33774668  0.91279207  0.75174869  1
  Mg  Mg64  1  0.66637438  0.91522489  0.24975060  1
  Mg  Mg65  1  0.16856820  0.83275977  0.75309654  1
  Mg  Mg66  1  0.33326903  0.58690654  0.75018364  1
  Mg  Mg67  1  0.16556353  0.16989222  0.25231962  1
  Mg  Mg68  1  0.33230330  0.91593563  0.25229759  1
  Mg  Mg69  1  0.00195022  0.58425205  0.24850537  1
  Mg  Mg70  1  0.49777287  0.67236854  0.75141865  1
  Mg  Mg71  1  0.33028235  0.41689202  0.24859593  1
  Mg  Mg72  1  0.33236508  0.58575135  0.24727048  1
  Mg  Mg73  1  0.83200438  0.66613189  0.74954394  1
  Mg  Mg74  1  0.49739988  0.16740654  0.25104362  1
  Mg  Mg75  1  0.83464349  0.16615208  0.25377551  1
  Mg  Mg76  1  0.16534163  0.83099670  0.25195182  1
  Mg  Mg77  1  0.33373007  0.41653862  0.74755585  1
  Mg  Mg78  1  0.66525781  0.58512160  0.75076861  1
  Mg  Mg79  1  0.83250208  0.33301809  0.74557565  1
  Mg  Mg80  1  0.83466681  0.83147374  0.24862762  1
  Mg  Mg81  1  0.00026560  0.08424678  0.25278165  1
  Mg  Mg82  1  0.66462095  0.41629100  0.24601102  1
  Mg  Mg83  1  0.49903489  0.83345947  0.24877104  1
  Mg  Mg84  1  0.83469645  0.33417745  0.24961190  1
  Mg  Mg85  1  0.83448514  0.66467948  0.24466205  1
  Mg  Mg86  1  0.16782931  0.66785101  0.74954524  1
  Mg  Mg87  1  0.66610775  0.41573645  0.74977460  1
  Mg  Mg88  1  0.00003763  0.91454446  0.24991579  1
  Mg  Mg89  1  0.66372216  0.08367320  0.74643671  1
  Mg  Mg90  1  0.33975306  0.08060107  0.75192327  1
  Mg  Mg91  1  0.83196027  0.16401434  0.74869951  1
  Mg  Mg92  1  0.00140740  0.91431419  0.75003061  1
  Mg  Mg93  1  0.50118569  0.33343128  0.75053662  1
  Mg  Mg94  1  0.66167605  0.91813888  0.75479675  1
  Mg  Mg95  1  0.33141105  0.08524657  0.25247884  1
  Fe  Fe96  1  0.13810284  0.91661420  0.89213322  1
  Fe  Fe97  1  0.02711364  0.33059438  0.60758119  1
  Fe  Fe98  1  0.64661670  0.16420330  0.89184277  1
  Fe  Fe99  1  0.02416453  0.83130925  0.61243362  1
  Fe  Fe100  1  0.69429820  0.17174121  0.60483594  1
  Fe  Fe101  1  0.36033969  0.16956616  0.61048102  1
  Fe  Fe102  1  0.97818513  0.33263859  0.39193772  1
  Fe  Fe103  1  0.64202213  0.83186288  0.89173200  1
  Fe  Fe104  1  0.52167660  0.58502156  0.10497471  1
  Fe  Fe105  1  0.02777790  0.66652815  0.10948401  1
  Fe  Fe106  1  0.52082034  0.41183922  0.10472383  1
  Fe  Fe107  1  0.97472425  0.83219724  0.38924678  1
  Fe  Fe108  1  0.69364785  0.83967432  0.10787613  1
  Fe  Fe109  1  0.85871243  0.08215942  0.60879952  1
  Fe  Fe110  1  0.46737798  0.91690057  0.89496064  1
  Fe  Fe111  1  0.85772478  0.57669789  0.10524621  1
  Fe  Fe112  1  0.52479040  0.91634875  0.61297774  1
  Si  Si113  1  0.14344908  0.08839277  0.88822173  1
  Si  Si114  1  0.96709971  0.83116424  0.88784804  1
  Si  Si115  1  0.19760429  0.41949133  0.61224143  1
  Si  Si116  1  0.80849788  0.91782823  0.88591620  1
  Si  Si117  1  0.47543566  0.41811581  0.88368030  1
  Si  Si118  1  0.35297190  0.16473592  0.11669983  1
  Si  Si119  1  0.68789198  0.16150921  0.11673258  1
  Si  Si120  1  0.35580404  0.66699173  0.61579667  1
  Si  Si121  1  0.19838566  0.07934744  0.61500908  1
  Si  Si122  1  0.52001347  0.92124139  0.11466918  1
  Si  Si123  1  0.19315916  0.41762943  0.11405682  1
  Si  Si124  1  0.35231218  0.32725709  0.11110521  1
  Si  Si125  1  0.14577891  0.58329284  0.38521252  1
  Si  Si126  1  0.35841434  0.83019925  0.61612728  1
  Si  Si127  1  0.31033321  0.83262931  0.38672649  1
  Si  Si128  1  0.30856938  0.16910082  0.38685740  1
  Si  Si129  1  0.02151063  0.66143004  0.61260607  1
  Si  Si130  1  0.97606234  0.15972175  0.39005978  1
  Si  Si131  1  0.80412657  0.08314729  0.38704085  1
  Si  Si132  1  0.31292476  0.33472718  0.38602958  1
  Si  Si133  1  0.30482879  0.17374513  0.88765404  1
  Si  Si134  1  0.85545386  0.41785620  0.61086839  1
  Si  Si135  1  0.31027400  0.66752900  0.38464646  1
  Si  Si136  1  0.14729156  0.91807122  0.38846751  1
  Si  Si137  1  0.63538750  0.83410240  0.38472182  1
  Si  Si138  1  0.97648993  0.16897114  0.88452168  1
  Si  Si139  1  0.80168213  0.91832548  0.38899452  1
  Si  Si140  1  0.47348844  0.08412735  0.38666823  1
  Si  Si141  1  0.19397591  0.91861054  0.11775556  1
  Si  Si142  1  0.97603524  0.66047909  0.38752817  1
  Si  Si143  1  0.18940128  0.08201634  0.11764629  1
  Si  Si144  1  0.64443081  0.66143146  0.88720432  1
  Si  Si145  1  0.86654274  0.92226793  0.11189284  1
  Si  Si146  1  0.47359271  0.91796230  0.38658483  1
  Si  Si147  1  0.13848603  0.58227414  0.88498578  1
  Si  Si148  1  0.63887458  0.16911665  0.38568220  1
  Si  Si149  1  0.35628067  0.83648450  0.11692279  1
  Si  Si150  1  0.97265295  0.66580274  0.88438397  1
  Si  Si151  1  0.81623715  0.08021977  0.88849132  1
  Si  Si152  1  0.80907909  0.58046092  0.88366191  1
  Si  Si153  1  0.85382962  0.91450952  0.61315474  1
  Si  Si154  1  0.02883692  0.83799375  0.11313167  1
  Si  Si155  1  0.02604885  0.16913940  0.11628573  1
  Si  Si156  1  0.80334569  0.41861034  0.38561288  1
  Si  Si157  1  0.53045466  0.08203846  0.60455020  1
  Si  Si158  1  0.47450033  0.58307771  0.88508561  1
  Si  Si159  1  0.30065997  0.82604299  0.89241976  1
  Si  Si160  1  0.36141718  0.34001704  0.61238252  1
  Si  Si161  1  0.63886131  0.66714294  0.38355773  1
  Si  Si162  1  0.13956286  0.41778523  0.88428357  1
  Si  Si163  1  0.85894681  0.08664054  0.11652909  1
  Si  Si164  1  0.69493854  0.82852539  0.61305816  1
  Si  Si165  1  0.85559486  0.58141638  0.61400340  1
  Si  Si166  1  0.14531075  0.08292584  0.38683936  1
  Si  Si167  1  0.52178778  0.58741826  0.61535029  1
  Si  Si168  1  0.52584648  0.42392262  0.61577629  1
  Si  Si169  1  0.35944616  0.67310423  0.11225435  1
  Si  Si170  1  0.81086430  0.41758799  0.88356663  1
  Si  Si171  1  0.15277550  0.42042815  0.38818702  1
  Si  Si172  1  0.69087919  0.66420700  0.61477762  1
  Si  Si173  1  0.69409745  0.66465223  0.10621985  1
  Si  Si174  1  0.02989763  0.33177678  0.11669140  1
  Si  Si175  1  0.46784626  0.08665663  0.89536446  1
  Si  Si176  1  0.30613911  0.66079238  0.88561587  1
  Si  Si177  1  0.30736866  0.33850311  0.88394716  1
  Si  Si178  1  0.80391017  0.58456608  0.38309139  1
  Si  Si179  1  0.19086490  0.58364313  0.61402637  1
  Si  Si180  1  0.47465563  0.41841162  0.38415916  1
  Si  Si181  1  0.51848148  0.08477977  0.11700673  1
  Si  Si182  1  0.20033364  0.58273283  0.11145256  1
  Si  Si183  1  0.63855210  0.33420464  0.38396287  1
  Si  Si184  1  0.69421792  0.32642252  0.11158433  1
  Si  Si185  1  0.85554368  0.40677378  0.11132115  1
  Si  Si186  1  0.19551208  0.91352470  0.61520466  1
  Si  Si187  1  0.64503731  0.33735256  0.88717303  1
  Si  Si188  1  0.03101863  0.15762793  0.61169349  1
  Si  Si189  1  0.47454238  0.58433804  0.38481804  1
  Si  Si190  1  0.97399124  0.33326788  0.88348589  1
  Si  Si191  1  0.68674798  0.34021931  0.61184010  1
  O  O192  1  0.27213364  0.11202573  0.08873133  1
  O  O193  1  0.27378430  0.10408440  0.57722482  1
  O  O194  1  0.28493761  0.61424023  0.08430673  1
  O  O195  1  0.27274570  0.61599962  0.58538732  1
  O  O196  1  0.60306294  0.11276885  0.08933686  1
  O  O197  1  0.61097283  0.10610481  0.56926395  1
  O  O198  1  0.62062578  0.60740534  0.07430552  1
  O  O199  1  0.60480258  0.61701962  0.58568268  1
  O  O200  1  0.93538694  0.12930041  0.08751571  1
  O  O201  1  0.96424263  0.09598449  0.58227639  1
  O  O202  1  0.94650555  0.60568150  0.06539716  1
  O  O203  1  0.94017854  0.60687878  0.58606887  1
  O  O204  1  0.10474196  0.37366750  0.08458516  1
  O  O205  1  0.12482512  0.36558212  0.57784427  1
  O  O206  1  0.11464031  0.86833524  0.08658431  1
  O  O207  1  0.11810889  0.86404270  0.57904507  1
  O  O208  1  0.43041084  0.34578757  0.07513296  1
  O  O209  1  0.44644517  0.37189655  0.58554115  1
  O  O210  1  0.43832843  0.86780428  0.08869721  1
  O  O211  1  0.43406271  0.85355648  0.57801481  1
  O  O212  1  0.78333538  0.34367955  0.08539757  1
  O  O213  1  0.76964804  0.37150264  0.58302075  1
  O  O214  1  0.79127889  0.87234536  0.07545805  1
  O  O215  1  0.78313848  0.85031702  0.58760859  1
  O  O216  1  0.26759500  0.37566766  0.08237245  1
  O  O217  1  0.28824568  0.40195847  0.58853560  1
  O  O218  1  0.27797356  0.89197888  0.08953747  1
  O  O219  1  0.27781539  0.88356134  0.58542883  1
  O  O220  1  0.61961144  0.37712190  0.07477177  1
  O  O221  1  0.61127989  0.40120437  0.58765847  1
  O  O222  1  0.59961928  0.90227228  0.08134594  1
  O  O223  1  0.61731881  0.87583353  0.57618545  1
  O  O224  1  0.94216018  0.37436971  0.08692316  1
  O  O225  1  0.93314791  0.39107508  0.57745828  1
  O  O226  1  0.95624244  0.89964131  0.08831582  1
  O  O227  1  0.93538645  0.89348578  0.58026611  1
  O  O228  1  0.10404343  0.12830902  0.08763865  1
  O  O229  1  0.12015431  0.13474172  0.58725708  1
  O  O230  1  0.12366481  0.63180824  0.07559309  1
  O  O231  1  0.10488660  0.62870539  0.58488328  1
  O  O232  1  0.43793182  0.13807419  0.08894155  1
  O  O233  1  0.45622655  0.14165495  0.57779676  1
  O  O234  1  0.43908760  0.65721030  0.07724176  1
  O  O235  1  0.43778874  0.63504387  0.58426843  1
  O  O236  1  0.76990563  0.12905915  0.08873432  1
  O  O237  1  0.79013842  0.15509332  0.56873266  1
  O  O238  1  0.77621956  0.64566754  0.07248061  1
  O  O239  1  0.77170563  0.63012842  0.58505821  1
  O  O240  1  0.06248884  0.11086865  0.41574963  1
  O  O241  1  0.06371079  0.12751077  0.91648542  1
  O  O242  1  0.06450127  0.61472073  0.41577460  1
  O  O243  1  0.05901004  0.61967750  0.91296652  1
  O  O244  1  0.39511629  0.12296082  0.41495188  1
  O  O245  1  0.38820390  0.13089757  0.92310500  1
  O  O246  1  0.39749176  0.62235188  0.41638927  1
  O  O247  1  0.39282368  0.61443974  0.91413906  1
  O  O248  1  0.72973515  0.13094773  0.41290919  1
  O  O249  1  0.74420686  0.10862123  0.92814502  1
  O  O250  1  0.73098855  0.63042050  0.41431302  1
  O  O251  1  0.72393846  0.60379828  0.91106005  1
  O  O252  1  0.24133603  0.37577163  0.41947480  1
  O  O253  1  0.22940253  0.37775976  0.91405566  1
  O  O254  1  0.23377735  0.87103592  0.41643828  1
  O  O255  1  0.21870134  0.84787495  0.92570920  1
  O  O256  1  0.56385973  0.37737073  0.41347951  1
  O  O257  1  0.56233302  0.37474513  0.91311756  1
  O  O258  1  0.55938682  0.87344155  0.41708813  1
  O  O259  1  0.55954701  0.86378051  0.93531768  1
  O  O260  1  0.88954814  0.38279289  0.42310835  1
  O  O261  1  0.89486539  0.36896328  0.91332226  1
  O  O262  1  0.88764355  0.88000752  0.42367023  1
  O  O263  1  0.88094569  0.85666551  0.91393672  1
  O  O264  1  0.07817703  0.38518500  0.42142195  1
  O  O265  1  0.06248746  0.37682221  0.91321124  1
  O  O266  1  0.07275364  0.88684604  0.42287533  1
  O  O267  1  0.04213146  0.88193431  0.92433489  1
  O  O268  1  0.40224298  0.37647238  0.41684844  1
  O  O269  1  0.39504405  0.38234543  0.91237173  1
  O  O270  1  0.39640423  0.87876075  0.41564518  1
  O  O271  1  0.37898823  0.87290916  0.93038989  1
  O  O272  1  0.72531650  0.37656136  0.41420213  1
  O  O273  1  0.72810879  0.39062791  0.91293680  1
  O  O274  1  0.72306160  0.87577870  0.41565137  1
  O  O275  1  0.72828050  0.90064643  0.91974593  1
  O  O276  1  0.22780642  0.13419335  0.41476966  1
  O  O277  1  0.22296957  0.14300221  0.91718275  1
  O  O278  1  0.23098312  0.63246840  0.41474716  1
  O  O279  1  0.22768750  0.62150006  0.91630515  1
  O  O280  1  0.56166579  0.12760436  0.41364278  1
  O  O281  1  0.55177559  0.13365137  0.92627448  1
  O  O282  1  0.56452286  0.62438752  0.41622568  1
  O  O283  1  0.56134270  0.62637915  0.91417496  1
  O  O284  1  0.89693571  0.11721122  0.41595357  1
  O  O285  1  0.90106822  0.13152934  0.91632197  1
  O  O286  1  0.89756520  0.61683031  0.41456633  1
  O  O287  1  0.89136033  0.63083274  0.91162033  1
  O  O288  1  0.17206080  0.00045117  0.08908045  1
  O  O289  1  0.17383240  -0.00338176  0.58833714  1
  O  O290  1  0.18659830  0.49861354  0.08110851  1
  O  O291  1  0.17458359  0.50202899  0.58468652  1
  O  O292  1  0.48913028  0.00440348  0.09108186  1
  O  O293  1  0.49858631  0.00452458  0.56988095  1
  O  O294  1  0.48323760  0.49770441  0.06663740  1
  O  O295  1  0.50210624  0.50535136  0.58579923  1
  O  O296  1  0.85196687  0.00659773  0.08476650  1
  O  O297  1  0.81442328  -0.00995276  0.58314973  1
  O  O298  1  0.82977016  0.48068697  0.07196577  1
  O  O299  1  0.83040665  0.50092355  0.58532512  1
  O  O300  1  0.02203016  0.24948280  0.08279371  1
  O  O301  1  0.00444385  0.23632450  0.57935315  1
  O  O302  1  0.00484919  0.76287871  0.07650570  1
  O  O303  1  -0.00237240  0.73760551  0.57814450  1
  O  O304  1  0.32307456  0.24379187  0.08778697  1
  O  O305  1  0.33423798  0.26536609  0.57581291  1
  O  O306  1  0.32708216  0.75630483  0.08922182  1
  O  O307  1  0.33165598  0.74698240  0.58637234  1
  O  O308  1  0.67028605  0.24223733  0.08675960  1
  O  O309  1  0.65539789  0.26656814  0.57595249  1
  O  O310  1  0.66072420  0.74576277  0.08384880  1
  O  O311  1  0.67576295  0.74449469  0.58425192  1
  O  O312  1  0.16995190  0.00171421  0.41432205  1
  O  O313  1  0.16081675  0.01208242  0.92556039  1
  O  O314  1  0.16857217  0.50362703  0.41941369  1
  O  O315  1  0.14488898  0.49948114  0.91476167  1
  O  O316  1  0.48326734  0.00123176  0.41419515  1
  O  O317  1  0.47433793  0.01003288  0.93423811  1
  O  O318  1  0.48261831  0.50098662  0.41419291  1
  O  O319  1  0.48730544  0.50003101  0.91276643  1
  O  O320  1  0.79772562  0.00214647  0.41626913  1
  O  O321  1  0.84702003  -0.00222055  0.91233019  1
  O  O322  1  0.79828651  0.50247279  0.41266585  1
  O  O323  1  0.83454766  0.49903283  0.91108555  1
  O  O324  1  0.32305753  0.25132471  0.41502662  1
  O  O325  1  0.31575426  0.25786877  0.91568861  1
  O  O326  1  0.32384786  0.75010261  0.41517733  1
  O  O327  1  0.31988943  0.74046717  0.91677635  1
  O  O328  1  0.64187083  0.25179544  0.41376269  1
  O  O329  1  0.66485872  0.26184352  0.92440796  1
  O  O330  1  0.64099855  0.75047888  0.41224006  1
  O  O331  1  0.67139583  0.73622782  0.92274965  1
  O  O332  1  0.98888656  0.23670067  0.42581826  1
  O  O333  1  0.98719104  0.25206216  0.91449542  1
  O  O334  1  0.98623531  0.73797038  0.42433549  1
  O  O335  1  0.98615092  0.74683262  0.91406701  1
  O  O336  1  0.20877077  0.08362197  0.19805443  1
  O  O337  1  0.21229425  0.08124188  0.69614812  1
  O  O338  1  0.21610062  0.58015709  0.19155107  1
  O  O339  1  0.20861656  0.58304178  0.69454532  1
  O  O340  1  0.53942938  0.08569995  0.19779383  1
  O  O341  1  0.55277777  0.07821809  0.68415933  1
  O  O342  1  0.54272052  0.58345793  0.19809769  1
  O  O343  1  0.54225651  0.58373736  0.69541179  1
  O  O344  1  0.87700350  0.08496292  0.19711895  1
  O  O345  1  0.88010477  0.08362757  0.70178117  1
  O  O346  1  0.88010469  0.58077150  0.19773370  1
  O  O347  1  0.87490883  0.58246948  0.69467156  1
  O  O348  1  0.04984442  0.32393542  0.19474068  1
  O  O349  1  0.04553328  0.33389064  0.69959149  1
  O  O350  1  0.04772720  0.83700204  0.19404407  1
  O  O351  1  0.04426952  0.82934653  0.70358840  1
  O  O352  1  0.37335369  0.33189547  0.19226899  1
  O  O353  1  0.37824157  0.33714449  0.69346524  1
  O  O354  1  0.37456661  0.83691342  0.19763398  1
  O  O355  1  0.37381139  0.83128098  0.69513902  1
  O  O356  1  0.70802151  0.32952128  0.19293076  1
  O  O357  1  0.70972259  0.33818791  0.69296210  1
  O  O358  1  0.71898545  0.84639773  0.19837342  1
  O  O359  1  0.71160402  0.82874648  0.69350481  1
  O  O360  1  0.21309324  0.41910930  0.19340745  1
  O  O361  1  0.21040336  0.41858463  0.69353852  1
  O  O362  1  0.21108211  0.91924856  0.19838399  1
  O  O363  1  0.21143997  0.91325917  0.69573831  1
  O  O364  1  0.54314145  0.41481192  0.19786231  1
  O  O365  1  0.54304860  0.42187226  0.69619381  1
  O  O366  1  0.53906706  0.91993841  0.19600673  1
  O  O367  1  0.54687461  0.91516565  0.70063567  1
  O  O368  1  0.86556706  0.41362938  0.19086805  1
  O  O369  1  0.87536508  0.41734970  0.69227517  1
  O  O370  1  0.87953038  0.92248163  0.19299260  1
  O  O371  1  0.87630611  0.91423262  0.69492867  1
  O  O372  1  0.04342962  0.16562971  0.19647039  1
  O  O373  1  0.04709268  0.16405344  0.69373881  1
  O  O374  1  0.04389883  0.66877164  0.20043957  1
  O  O375  1  0.04109082  0.66233053  0.69365474  1
  O  O376  1  0.37395974  0.16510605  0.19727467  1
  O  O377  1  0.36742834  0.16837741  0.70029967  1
  O  O378  1  0.37605098  0.66908958  0.19351451  1
  O  O379  1  0.37816324  0.66089658  0.69472590  1
  O  O380  1  0.70734563  0.16397699  0.19726263  1
  O  O381  1  0.71542384  0.16887016  0.69721866  1
  O  O382  1  0.71562418  0.65685395  0.18724501  1
  O  O383  1  0.71090475  0.66221131  0.69486725  1
  O  O384  1  0.12564517  0.08400574  0.30610923  1
  O  O385  1  0.12486195  0.08553470  0.80748373  1
  O  O386  1  0.12701884  0.58114117  0.30608124  1
  O  O387  1  0.12141576  0.58087153  0.80453079  1
  O  O388  1  0.45481057  0.08464926  0.30601116  1
  O  O389  1  0.44796743  0.08154650  0.81631823  1
  O  O390  1  0.45565860  0.58424653  0.30499142  1
  O  O391  1  0.45627765  0.58308974  0.80464346  1
  O  O392  1  0.78820367  0.08383231  0.30620884  1
  O  O393  1  0.79558061  0.08376389  0.80840344  1
  O  O394  1  0.78579488  0.58444132  0.30334827  1
  O  O395  1  0.79122449  0.58142446  0.80293445  1
  O  O396  1  0.29760250  0.33381805  0.30634400  1
  O  O397  1  0.28747264  0.33825054  0.80373089  1
  O  O398  1  0.29175936  0.83426960  0.30649180  1
  O  O399  1  0.28498010  0.83260519  0.81200092  1
  O  O400  1  0.62097906  0.33157937  0.30375943  1
  O  O401  1  0.62598405  0.33707144  0.80630318  1
  O  O402  1  0.61494935  0.84080071  0.30573588  1
  O  O403  1  0.62676163  0.83036502  0.80149129  1
  O  O404  1  0.94917615  0.32498353  0.30248241  1
  O  O405  1  0.95604140  0.33511268  0.80361411  1
  O  O406  1  0.95599104  0.83493818  0.29799923  1
  O  O407  1  0.95297326  0.83073674  0.80707503  1
  O  O408  1  0.13983980  0.42131956  0.30933464  1
  O  O409  1  0.12313666  0.41844116  0.80422383  1
  O  O410  1  0.12710335  0.91815475  0.30737588  1
  O  O411  1  0.12173941  0.91726954  0.80120522  1
  O  O412  1  0.45509652  0.41688212  0.30417856  1
  O  O413  1  0.45639812  0.41930080  0.80328020  1
  O  O414  1  0.45465494  0.91863346  0.30615627  1
  O  O415  1  0.45179539  0.91616052  0.80630200  1
  O  O416  1  0.78682505  0.41531356  0.30497708  1
  O  O417  1  0.79224894  0.41656844  0.80291689  1
  O  O418  1  0.78849340  0.92029683  0.30844840  1
  O  O419  1  0.79169613  0.91611358  0.80498088  1
  O  O420  1  0.29085749  0.16728084  0.30642455  1
  O  O421  1  0.28698697  0.17154143  0.80783724  1
  O  O422  1  0.29682690  0.66726427  0.30533135  1
  O  O423  1  0.28455994  0.65788292  0.80628804  1
  O  O424  1  0.62005734  0.16774116  0.30501749  1
  O  O425  1  0.63468592  0.16835197  0.80263960  1
  O  O426  1  0.61845718  0.66234895  0.30472721  1
  O  O427  1  0.62451920  0.66326323  0.80612776  1
  O  O428  1  0.95743764  0.16209194  0.30885369  1
  O  O429  1  0.96018285  0.17015517  0.80460855  1
  O  O430  1  0.95849906  0.66563924  0.30759564  1
  O  O431  1  0.95551820  0.66353310  0.80380377  1
  F  F432  1  0.04711844  0.00228925  0.20455979  1
  F  F433  1  0.04685985  0.00030999  0.70276819  1
  F  F434  1  0.05223440  0.50759902  0.19756897  1
  F  F435  1  0.04475054  0.49993871  0.70076895  1
  F  F436  1  0.37594239  0.00192870  0.20462605  1
  F  F437  1  0.37073368  -0.00161317  0.70112165  1
  F  F438  1  0.37903071  0.49949828  0.20203922  1
  F  F439  1  0.37798300  0.50165560  0.70199049  1
  F  F440  1  0.71027215  0.00418479  0.20440738  1
  F  F441  1  0.71501770  -0.00188058  0.70461997  1
  F  F442  1  0.71186104  0.49756656  0.20224809  1
  F  F443  1  0.71056039  0.50067714  0.70198540  1
  F  F444  1  0.21399208  0.24291565  0.20040593  1
  F  F445  1  0.21245220  0.25222799  0.70300079  1
  F  F446  1  0.21445521  0.75641547  0.20212061  1
  F  F447  1  0.20392938  0.74852802  0.70266930  1
  F  F448  1  0.54252890  0.24813348  0.20149330  1
  F  F449  1  0.54996039  0.26382925  0.69877030  1
  F  F450  1  0.52968009  0.75295099  0.19774591  1
  F  F451  1  0.55044469  0.73521831  0.69384799  1
  F  F452  1  0.87776704  0.24349201  0.20203149  1
  F  F453  1  0.88101833  0.25198097  0.70111585  1
  F  F454  1  0.88139515  0.74950159  0.19950910  1
  F  F455  1  0.87871296  0.74701048  0.70270526  1
  F  F456  1  0.28911377  0.00146781  0.30112012  1
  F  F457  1  0.28575187  -0.00051019  0.80007334  1
  F  F458  1  0.29292344  0.50193983  0.29805742  1
  F  F459  1  0.28740872  0.49914978  0.79706535  1
  F  F460  1  0.61854887  0.00253236  0.29942993  1
  F  F461  1  0.63012956  0.00438894  0.80258791  1
  F  F462  1  0.62199935  0.49802648  0.29890726  1
  F  F463  1  0.62197174  0.50044716  0.79809756  1
  F  F464  1  0.95496596  0.00049264  0.29859642  1
  F  F465  1  0.95805077  -0.00202454  0.79900486  1
  F  F466  1  0.95112070  0.50739359  0.30323533  1
  F  F467  1  0.95476552  0.49843927  0.79578337  1
  F  F468  1  0.12111424  0.24306476  0.30445088  1
  F  F469  1  0.12271452  0.24976979  0.79823690  1
  F  F470  1  0.12096319  0.75853441  0.30487335  1
  F  F471  1  0.11821249  0.74111265  0.80285950  1
  F  F472  1  0.45313673  0.25121043  0.29690125  1
  F  F473  1  0.44972263  0.26531344  0.80455137  1
  F  F474  1  0.45297260  0.75121768  0.29906671  1
  F  F475  1  0.45762038  0.74410525  0.80382273  1
  F  F476  1  0.78358936  0.24829150  0.29784408  1
  F  F477  1  0.79253027  0.25495695  0.79741408  1
  F  F478  1  0.80008226  0.74725177  0.29917353  1
  F  F479  1  0.78751499  0.74670094  0.79634569  1
