# generated using pymatgen
data_K24Na3Li5Mg64Fe17Si79(O5F)48
_symmetry_space_group_name_H-M   'P 1'
_cell_length_a   16.09090293
_cell_length_b   18.58080198
_cell_length_c   20.54585347
_cell_angle_alpha   89.99051609
_cell_angle_beta   99.99475630
_cell_angle_gamma   90.00380941
_symmetry_Int_Tables_number   1
_chemical_formula_structural   K24Na3Li5Mg64Fe17Si79(O5F)48
_chemical_formula_sum   'K24 Na3 Li5 Mg64 Fe17 Si79 O240 F48'
_cell_volume   6049.61191738
_cell_formula_units_Z   1
loop_
 _symmetry_equiv_pos_site_id
 _symmetry_equiv_pos_as_xyz
  1  'x, y, z'
loop_
 _atom_site_type_symbol
 _atom_site_label
 _atom_site_symmetry_multiplicity
 _atom_site_fract_x
 _atom_site_fract_y
 _atom_site_fract_z
 _atom_site_occupancy
  K  K0  1  0.00912273  0.00174358  0.00071586  1
  K  K1  1  -0.00461747  0.00994540  0.49292870  1
  K  K2  1  0.01363309  0.49214009  0.00658014  1
  K  K3  1  0.00796407  0.49908659  0.49324897  1
  K  K4  1  0.32856478  0.00780274  -0.00178141  1
  K  K5  1  0.32954398  0.00122613  0.50041804  1
  K  K6  1  0.33202408  0.49401348  -0.00567695  1
  K  K7  1  0.32999240  0.49996149  0.50866787  1
  K  K8  1  0.66651108  0.00062009  0.00459357  1
  K  K9  1  0.66804355  0.00951725  0.49352349  1
  K  K10  1  0.66501810  0.50113285  0.00204418  1
  K  K11  1  0.65972271  0.49685905  0.49690317  1
  K  K12  1  0.17242328  0.25465011  0.00083056  1
  K  K13  1  0.16654916  0.25258500  0.49913171  1
  K  K14  1  0.17261701  0.75471071  0.00203562  1
  K  K15  1  0.17147415  0.74217557  0.49989065  1
  K  K16  1  0.50419121  0.24823418  -0.00146598  1
  K  K17  1  0.49923738  0.24698615  0.49920172  1
  K  K18  1  0.49852604  0.74399125  -0.00172430  1
  K  K19  1  0.48823365  0.75428166  0.50493642  1
  K  K20  1  0.83928712  0.25639313  0.00397582  1
  K  K21  1  0.83096867  0.23822312  0.49340753  1
  K  K22  1  0.83856059  0.74774999  0.00167651  1
  K  K23  1  0.84042547  0.75036480  0.49804223  1
  Na  Na24  1  0.49921760  0.00100523  0.24709831  1
  Na  Na25  1  0.83271519  0.82949458  0.74890471  1
  Na  Na26  1  0.33510773  0.41630449  0.75523499  1
  Li  Li27  1  0.33407965  0.24888969  0.75517791  1
  Li  Li28  1  0.33320668  0.24883705  0.24918985  1
  Li  Li29  1  0.49311719  0.66463913  0.75184246  1
  Li  Li30  1  0.00757764  0.41408023  0.25378836  1
  Li  Li31  1  0.33267553  0.09192082  0.75178594  1
  Mg  Mg32  1  0.33256120  0.75160574  0.25351254  1
  Mg  Mg33  1  0.66448131  0.24793116  0.74329380  1
  Mg  Mg34  1  0.83014369  0.50028693  0.74815383  1
  Mg  Mg35  1  0.66250806  0.74926338  0.74791558  1
  Mg  Mg36  1  -0.00007116  0.74680204  0.25217085  1
  Mg  Mg37  1  0.00009169  0.74968687  0.74960795  1
  Mg  Mg38  1  0.66781385  0.24737993  0.24732418  1
  Mg  Mg39  1  0.33635138  0.74875721  0.75156853  1
  Mg  Mg40  1  0.16741037  0.49896143  0.75337645  1
  Mg  Mg41  1  0.83298419  -0.00141773  0.74602542  1
  Mg  Mg42  1  0.17019492  0.00530915  0.75475044  1
  Mg  Mg43  1  0.50032499  0.49876482  0.24833079  1
  Mg  Mg44  1  0.16533876  0.49734097  0.25229545  1
  Mg  Mg45  1  0.66588265  0.74820574  0.24963990  1
  Mg  Mg46  1  0.49624595  0.00201087  0.74502986  1
  Mg  Mg47  1  0.49603019  0.50313119  0.74655133  1
  Mg  Mg48  1  0.16865278  0.00215906  0.25159284  1
  Mg  Mg49  1  0.83736721  0.49860225  0.24970489  1
  Mg  Mg50  1  0.83379225  0.00124493  0.24964177  1
  Mg  Mg51  1  0.00306153  0.25330952  0.25161256  1
  Mg  Mg52  1  -0.00146274  0.24991074  0.75168733  1
  Mg  Mg53  1  0.83726130  0.33501553  0.24898615  1
  Mg  Mg54  1  0.16722896  0.66433372  0.25404438  1
  Mg  Mg55  1  0.66671660  0.91612897  0.74589764  1
  Mg  Mg56  1  0.33364364  0.58326292  0.25123519  1
  Mg  Mg57  1  0.66487472  0.91647462  0.25073622  1
  Mg  Mg58  1  0.66352835  0.08463471  0.74211031  1
  Mg  Mg59  1  0.49804731  0.33176988  0.24958392  1
  Mg  Mg60  1  0.66187058  0.41604705  0.74485517  1
  Mg  Mg61  1  0.17124204  0.16767729  0.75325561  1
  Mg  Mg62  1  0.65997813  0.58617208  0.74727428  1
  Mg  Mg63  1  0.83341072  0.83301518  0.25201587  1
  Mg  Mg64  1  0.33343176  0.08671589  0.24644843  1
  Mg  Mg65  1  0.16731247  0.33359817  0.25207885  1
  Mg  Mg66  1  0.83026911  0.16505744  0.74548640  1
  Mg  Mg67  1  0.17208466  0.33250936  0.75607567  1
  Mg  Mg68  1  0.33199546  0.41261994  0.25219550  1
  Mg  Mg69  1  0.66827954  0.08334294  0.24870009  1
  Mg  Mg70  1  -0.00024357  0.58024141  0.25397027  1
  Mg  Mg71  1  0.16964265  0.16852326  0.24790731  1
  Mg  Mg72  1  0.33269581  0.91697483  0.25329759  1
  Mg  Mg73  1  0.17081349  0.66510210  0.75231151  1
  Mg  Mg74  1  0.00166967  0.91602974  0.75151996  1
  Mg  Mg75  1  0.49898612  0.66391950  0.24899851  1
  Mg  Mg76  1  0.49865569  0.83223144  0.74598060  1
  Mg  Mg77  1  0.83547231  0.66363871  0.25125112  1
  Mg  Mg78  1  0.49600565  0.33188284  0.74791825  1
  Mg  Mg79  1  0.33435402  0.91963905  0.74963877  1
  Mg  Mg80  1  0.00074903  0.58446131  0.75322522  1
  Mg  Mg81  1  0.66658249  0.41512386  0.24804939  1
  Mg  Mg82  1  0.17023349  0.83521232  0.75336111  1
  Mg  Mg83  1  0.00221289  0.41617572  0.75240477  1
  Mg  Mg84  1  0.83068898  0.66666453  0.74821402  1
  Mg  Mg85  1  0.49858009  0.83418783  0.25141661  1
  Mg  Mg86  1  0.83553185  0.16424710  0.24852429  1
  Mg  Mg87  1  0.66586532  0.58310474  0.24969640  1
  Mg  Mg88  1  0.49306275  0.16621887  0.74694913  1
  Mg  Mg89  1  0.49871082  0.16705936  0.24802493  1
  Mg  Mg90  1  0.16768510  0.83435425  0.25365688  1
  Mg  Mg91  1  0.00096592  0.08617027  0.24935549  1
  Mg  Mg92  1  0.83125000  0.33444904  0.74670108  1
  Mg  Mg93  1  0.33678186  0.58596809  0.75062072  1
  Mg  Mg94  1  0.00001092  0.91574241  0.25219485  1
  Mg  Mg95  1  0.00193255  0.08436044  0.75133041  1
  Fe  Fe96  1  0.97663007  0.66602522  0.39344026  1
  Fe  Fe97  1  0.14576919  0.41728001  0.89333024  1
  Fe  Fe98  1  0.19635118  0.08593537  0.11076090  1
  Fe  Fe99  1  0.13659369  0.08661047  0.89323780  1
  Fe  Fe100  1  0.02247313  0.33602707  0.11226133  1
  Fe  Fe101  1  0.52937042  0.08621324  0.10836869  1
  Fe  Fe102  1  0.86532239  0.08040409  0.10890918  1
  Fe  Fe103  1  0.30848549  0.66828956  0.89288373  1
  Fe  Fe104  1  0.69122510  0.16707325  0.60343388  1
  Fe  Fe105  1  0.52608269  0.58177944  0.11005718  1
  Fe  Fe106  1  0.31430187  0.16872348  0.89147145  1
  Fe  Fe107  1  0.47899506  0.58038268  0.89154164  1
  Fe  Fe108  1  0.35534047  0.66638163  0.60847448  1
  Fe  Fe109  1  0.30986411  0.83862221  0.39377262  1
  Fe  Fe110  1  0.80691367  0.08157219  0.38981608  1
  Fe  Fe111  1  0.14934886  0.41327660  0.39345100  1
  Fe  Fe112  1  0.86053641  0.58472447  0.11061289  1
  Si  Si113  1  0.02571220  0.82893948  0.11737825  1
  Si  Si114  1  0.18707877  0.41084062  0.61637453  1
  Si  Si115  1  0.02775104  0.66644506  0.61639956  1
  Si  Si116  1  0.31763462  0.33394585  0.89205021  1
  Si  Si117  1  0.35582890  0.16657342  0.61292191  1
  Si  Si118  1  0.85926997  0.42184522  0.61293087  1
  Si  Si119  1  0.31271225  0.16294647  0.38523571  1
  Si  Si120  1  0.97824869  0.17001357  0.38927122  1
  Si  Si121  1  0.68917597  0.33156985  0.11404156  1
  Si  Si122  1  0.47027318  0.57970913  0.38611284  1
  Si  Si123  1  0.86056569  0.58744712  0.61465552  1
  Si  Si124  1  0.96726492  0.33450938  0.88564354  1
  Si  Si125  1  0.97647394  0.83596589  0.38869802  1
  Si  Si126  1  0.18632586  0.57655226  0.61250135  1
  Si  Si127  1  0.31670775  0.83857785  0.88701251  1
  Si  Si128  1  0.52171480  0.41169857  0.11309178  1
  Si  Si129  1  0.13562670  0.59062475  0.89084738  1
  Si  Si130  1  0.36434463  0.17064969  0.11200188  1
  Si  Si131  1  0.64174608  0.67148261  0.88410378  1
  Si  Si132  1  0.52741840  0.58165215  0.60821584  1
  Si  Si133  1  0.80095880  0.08242103  0.88091732  1
  Si  Si134  1  0.14907517  0.58253576  0.39155992  1
  Si  Si135  1  0.47421401  0.08540034  0.38356287  1
  Si  Si136  1  0.64100430  0.32710386  0.87984235  1
  Si  Si137  1  0.48237468  0.91806083  0.88201908  1
  Si  Si138  1  0.86132193  0.91284039  0.61354911  1
  Si  Si139  1  0.18942876  0.08750952  0.61522425  1
  Si  Si140  1  0.19742963  0.41855374  0.11456239  1
  Si  Si141  1  0.84875179  0.41831672  0.11034246  1
  Si  Si142  1  0.68769274  0.83140422  0.11637238  1
  Si  Si143  1  0.31137177  0.66716590  0.38803549  1
  Si  Si144  1  0.02004872  0.33171356  0.61463622  1
  Si  Si145  1  0.80526506  0.41630826  0.38568965  1
  Si  Si146  1  0.68874388  0.83285989  0.61161969  1
  Si  Si147  1  0.47870994  0.91952500  0.38920392  1
  Si  Si148  1  0.35586357  0.83326240  0.11663419  1
  Si  Si149  1  0.47511335  0.41519591  0.38592370  1
  Si  Si150  1  0.35933440  0.67015438  0.11608229  1
  Si  Si151  1  0.80070146  0.58254287  0.88212584  1
  Si  Si152  1  0.13654051  0.92257777  0.38946763  1
  Si  Si153  1  0.69560766  0.66887630  0.11358066  1
  Si  Si154  1  0.19875529  0.58438476  0.11796180  1
  Si  Si155  1  0.96145882  0.16766852  0.88515640  1
  Si  Si156  1  0.51825708  0.08255477  0.60676922  1
  Si  Si157  1  0.63737372  0.17029231  0.38656646  1
  Si  Si158  1  0.80030834  0.41670711  0.88131605  1
  Si  Si159  1  0.35341882  0.83812483  0.61203870  1
  Si  Si160  1  0.80959028  0.92047059  0.88274198  1
  Si  Si161  1  0.69159143  0.33902634  0.60764036  1
  Si  Si162  1  0.02875769  0.83258700  0.61519304  1
  Si  Si163  1  0.97170948  0.33535200  0.38910756  1
  Si  Si164  1  0.02436451  0.16741544  0.61493750  1
  Si  Si165  1  0.97608322  0.83169556  0.88514797  1
  Si  Si166  1  0.63903899  0.82928930  0.38695366  1
  Si  Si167  1  0.64011377  0.33482077  0.38417357  1
  Si  Si168  1  0.52228525  0.91211750  0.11310821  1
  Si  Si169  1  0.96563473  0.66612280  0.88519683  1
  Si  Si170  1  0.85581360  0.90944459  0.11381996  1
  Si  Si171  1  0.14386621  0.08890606  0.38664109  1
  Si  Si172  1  0.69188336  0.66624466  0.61096200  1
  Si  Si173  1  0.80614439  0.91021616  0.38806760  1
  Si  Si174  1  0.48612370  0.41432530  0.88446401  1
  Si  Si175  1  0.02925245  0.16827614  0.11225616  1
  Si  Si176  1  0.18833045  0.91563186  0.11506626  1
  Si  Si177  1  0.63835747  0.16387133  0.87967091  1
  Si  Si178  1  0.35726343  0.33040025  0.61411152  1
  Si  Si179  1  0.31405678  0.32731312  0.38960522  1
  Si  Si180  1  0.52106716  0.41594256  0.61004389  1
  Si  Si181  1  0.52371375  0.91626373  0.61102877  1
  Si  Si182  1  0.35872711  0.33294341  0.11770130  1
  Si  Si183  1  0.18936975  0.92286876  0.61567183  1
  Si  Si184  1  0.86339274  0.07750937  0.61027466  1
  Si  Si185  1  0.69911760  0.16794090  0.10941535  1
  Si  Si186  1  0.64647089  0.83515889  0.88296340  1
  Si  Si187  1  0.14384974  0.91288718  0.88939624  1
  Si  Si188  1  0.63464627  0.66393633  0.38698225  1
  Si  Si189  1  0.03310135  0.66340159  0.11494978  1
  Si  Si190  1  0.47893595  0.08002272  0.88335681  1
  Si  Si191  1  0.80144763  0.58276736  0.38958697  1
  O  O192  1  0.29442092  0.11176850  0.07981761  1
  O  O193  1  0.26562893  0.12513577  0.58309409  1
  O  O194  1  0.28043973  0.61539477  0.08882144  1
  O  O195  1  0.25674255  0.61194648  0.57551430  1
  O  O196  1  0.62761797  0.11176055  0.07476409  1
  O  O197  1  0.58774027  0.12156544  0.57040665  1
  O  O198  1  0.62488309  0.61122749  0.08089269  1
  O  O199  1  0.61067325  0.61678781  0.57951414  1
  O  O200  1  0.96753815  0.10124527  0.08232089  1
  O  O201  1  0.94429125  0.11574108  0.58384973  1
  O  O202  1  0.95915151  0.61194533  0.07774731  1
  O  O203  1  0.93425104  0.63253087  0.58660258  1
  O  O204  1  0.11829743  0.37187110  0.07870474  1
  O  O205  1  0.10000283  0.36551432  0.58460913  1
  O  O206  1  0.10671918  0.86131730  0.08796857  1
  O  O207  1  0.10257633  0.87687781  0.58552591  1
  O  O208  1  0.44454241  0.35444553  0.08787793  1
  O  O209  1  0.43182385  0.37364938  0.58090450  1
  O  O210  1  0.43956353  0.85834444  0.08628951  1
  O  O211  1  0.43525230  0.87394988  0.58371481  1
  O  O212  1  0.76931767  0.36101562  0.08271514  1
  O  O213  1  0.76521976  0.39005877  0.58242475  1
  O  O214  1  0.77338200  0.85592578  0.08811784  1
  O  O215  1  0.77028407  0.87154673  0.58565503  1
  O  O216  1  0.28428405  0.39131038  0.08863447  1
  O  O217  1  0.26645295  0.37270196  0.58746152  1
  O  O218  1  0.27230071  0.88229701  0.08797743  1
  O  O219  1  0.27026327  0.89071937  0.58620931  1
  O  O220  1  0.60628722  0.38172111  0.08586098  1
  O  O221  1  0.59925616  0.37757033  0.57989912  1
  O  O222  1  0.60695762  0.88187188  0.08409423  1
  O  O223  1  0.60107113  0.87640145  0.57984815  1
  O  O224  1  0.92885876  0.39414038  0.07709171  1
  O  O225  1  0.93346248  0.37783322  0.58344503  1
  O  O226  1  0.93787131  0.87192326  0.08698002  1
  O  O227  1  0.93513246  0.86657171  0.58441945  1
  O  O228  1  0.11771244  0.15830145  0.08438571  1
  O  O229  1  0.10438700  0.13482301  0.58415426  1
  O  O230  1  0.12059564  0.63864316  0.08867544  1
  O  O231  1  0.09515873  0.61852353  0.58444481  1
  O  O232  1  0.44852085  0.15754751  0.07952316  1
  O  O233  1  0.42650153  0.12153910  0.57879041  1
  O  O234  1  0.44058508  0.65026384  0.08403340  1
  O  O235  1  0.44704943  0.62705454  0.57255680  1
  O  O236  1  0.78478628  0.15231215  0.07952781  1
  O  O237  1  0.77894893  0.11676183  0.57352299  1
  O  O238  1  0.78178689  0.65874592  0.08377213  1
  O  O239  1  0.77253392  0.62926202  0.58332421  1
  O  O240  1  0.07035214  0.13077120  0.41841775  1
  O  O241  1  0.03504890  0.11617009  0.92086090  1
  O  O242  1  0.06965068  0.60792810  0.42565117  1
  O  O243  1  0.04621508  0.61724659  0.91572918  1
  O  O244  1  0.39283074  0.11043804  0.41769913  1
  O  O245  1  0.40127039  0.09888611  0.91955675  1
  O  O246  1  0.38837940  0.60899695  0.41501022  1
  O  O247  1  0.38792414  0.60296914  0.93208098  1
  O  O248  1  0.71818192  0.12621230  0.42422808  1
  O  O249  1  0.71548617  0.10768223  0.90800266  1
  O  O250  1  0.71645717  0.61401893  0.41758507  1
  O  O251  1  0.72363112  0.61835378  0.91277257  1
  O  O252  1  0.24147232  0.35284211  0.42994968  1
  O  O253  1  0.24339151  0.36664706  0.92968062  1
  O  O254  1  0.21373621  0.87348804  0.42624880  1
  O  O255  1  0.23241869  0.86844652  0.91526990  1
  O  O256  1  0.56445866  0.37447463  0.41544403  1
  O  O257  1  0.55897120  0.35105145  0.91114078  1
  O  O258  1  0.56557010  0.87175570  0.41778398  1
  O  O259  1  0.56327246  0.86481648  0.91186677  1
  O  O260  1  0.88800022  0.36886980  0.41743865  1
  O  O261  1  0.88295269  0.36879372  0.91099399  1
  O  O262  1  0.89035018  0.86125723  0.41592410  1
  O  O263  1  0.89646070  0.87393848  0.91049641  1
  O  O264  1  0.05121867  0.38215607  0.42523293  1
  O  O265  1  0.04795452  0.37895306  0.92109909  1
  O  O266  1  0.04812661  0.89824828  0.41427281  1
  O  O267  1  0.06685893  0.86776911  0.91808972  1
  O  O268  1  0.40183155  0.37468508  0.41789713  1
  O  O269  1  0.39869194  0.39152290  0.90989969  1
  O  O270  1  0.40523899  0.89516937  0.42958253  1
  O  O271  1  0.39758885  0.89447976  0.91136461  1
  O  O272  1  0.72576874  0.37993223  0.41516737  1
  O  O273  1  0.72034113  0.38098949  0.90968664  1
  O  O274  1  0.72974997  0.86666330  0.41656293  1
  O  O275  1  0.72968636  0.88551925  0.91314379  1
  O  O276  1  0.23207006  0.13132336  0.41726576  1
  O  O277  1  0.22236451  0.14507292  0.93151757  1
  O  O278  1  0.22641586  0.64159776  0.41523727  1
  O  O279  1  0.20354842  0.65167056  0.92017408  1
  O  O280  1  0.55287040  0.13946266  0.41347405  1
  O  O281  1  0.55809992  0.13630791  0.91157365  1
  O  O282  1  0.55411352  0.62846111  0.41564867  1
  O  O283  1  0.56557136  0.64961972  0.92091587  1
  O  O284  1  0.90893921  0.12924016  0.42474228  1
  O  O285  1  0.87330407  0.14100754  0.90956787  1
  O  O286  1  0.88027107  0.63000753  0.42607684  1
  O  O287  1  0.88440927  0.63056251  0.91192026  1
  O  O288  1  0.16465869  -0.00823978  0.07986301  1
  O  O289  1  0.17417335  0.00476415  0.58464687  1
  O  O290  1  0.18133754  0.50320377  0.08815431  1
  O  O291  1  0.17224450  0.49245767  0.58482338  1
  O  O292  1  0.49863887  -0.01012766  0.08050945  1
  O  O293  1  0.51155465  -0.00219990  0.58013524  1
  O  O294  1  0.49502353  0.48852968  0.07919957  1
  O  O295  1  0.51644589  0.49758401  0.57838093  1
  O  O296  1  0.83425531  -0.01457593  0.07712462  1
  O  O297  1  0.85973941  -0.00622466  0.58131664  1
  O  O298  1  0.81571115  0.49609716  0.07877281  1
  O  O299  1  0.85871630  0.50514011  0.58465901  1
  O  O300  1  -0.01302509  0.24369606  0.08211637  1
  O  O301  1  0.00491423  0.24929463  0.58454381  1
  O  O302  1  0.01295709  0.74697126  0.08761150  1
  O  O303  1  0.02804368  0.74933891  0.58744386  1
  O  O304  1  0.32877995  0.25330737  0.08953625  1
  O  O305  1  0.34848824  0.24884345  0.57989545  1
  O  O306  1  0.32872184  0.75177819  0.08989349  1
  O  O307  1  0.33483659  0.76199470  0.57513278  1
  O  O308  1  0.66660888  0.25072735  0.08496533  1
  O  O309  1  0.69201744  0.26245627  0.57105087  1
  O  O310  1  0.66027365  0.75070220  0.08945629  1
  O  O311  1  0.68145839  0.74952707  0.58141045  1
  O  O312  1  0.15227713  0.00654332  0.41697703  1
  O  O313  1  0.15164633  -0.01001738  0.92460618  1
  O  O314  1  0.18310942  0.50628568  0.42403234  1
  O  O315  1  0.15746621  0.51283322  0.92514086  1
  O  O316  1  0.50371162  0.00411476  0.41060459  1
  O  O317  1  0.51346073  -0.00185422  0.90938407  1
  O  O318  1  0.48833149  0.49777614  0.41579249  1
  O  O319  1  0.52148057  0.48802482  0.92066382  1
  O  O320  1  0.81730697  -0.01285992  0.42477704  1
  O  O321  1  0.82628790  0.00230997  0.91317971  1
  O  O322  1  0.81327959  0.49836681  0.41663624  1
  O  O323  1  0.81336347  0.49937962  0.90985157  1
  O  O324  1  0.33856547  0.24356679  0.41507798  1
  O  O325  1  0.35281374  0.25880517  0.92705329  1
  O  O326  1  0.34051752  0.74378723  0.42121995  1
  O  O327  1  0.34301892  0.76309909  0.92292121  1
  O  O328  1  0.64863349  0.25392266  0.41525111  1
  O  O329  1  0.66660662  0.24520251  0.90755669  1
  O  O330  1  0.64557100  0.74625505  0.41695395  1
  O  O331  1  0.67173990  0.75426067  0.91084541  1
  O  O332  1  0.98528739  0.25248231  0.41958071  1
  O  O333  1  0.97329230  0.25097608  0.91200115  1
  O  O334  1  1.00507493  0.76067506  0.42524999  1
  O  O335  1  0.97469079  0.74900138  0.91488674  1
  O  O336  1  0.21086136  0.08273345  0.20243345  1
  O  O337  1  0.20444879  0.08449770  0.69408472  1
  O  O338  1  0.21322074  0.58411435  0.19855746  1
  O  O339  1  0.20327933  0.58117664  0.69290628  1
  O  O340  1  0.55286368  0.09205538  0.19855739  1
  O  O341  1  0.54056289  0.08344296  0.68755608  1
  O  O342  1  0.54500017  0.58204370  0.20236574  1
  O  O343  1  0.54754664  0.57903476  0.68783203  1
  O  O344  1  0.88207448  0.08147523  0.20075732  1
  O  O345  1  0.87736236  0.08092798  0.69127849  1
  O  O346  1  0.87790636  0.58237614  0.20225168  1
  O  O347  1  0.87553896  0.58388742  0.69489130  1
  O  O348  1  0.04680192  0.33233160  0.20247758  1
  O  O349  1  0.03416491  0.33278922  0.69441471  1
  O  O350  1  0.04291506  0.83184805  0.19805498  1
  O  O351  1  0.04471023  0.83398937  0.69538730  1
  O  O352  1  0.37929350  0.33683964  0.19759993  1
  O  O353  1  0.38174828  0.32786675  0.69224316  1
  O  O354  1  0.37660792  0.83361093  0.19709477  1
  O  O355  1  0.37387739  0.83621362  0.69272170  1
  O  O356  1  0.70915320  0.33298674  0.19493947  1
  O  O357  1  0.70913738  0.33563874  0.68861459  1
  O  O358  1  0.70878870  0.83269434  0.19721573  1
  O  O359  1  0.70053891  0.83227224  0.69074451  1
  O  O360  1  0.21346019  0.41779460  0.19528680  1
  O  O361  1  0.19934793  0.41436311  0.69517079  1
  O  O362  1  0.20546553  0.91553462  0.19589479  1
  O  O363  1  0.20688742  0.91928826  0.69588391  1
  O  O364  1  0.54288880  0.41514411  0.19453529  1
  O  O365  1  0.54199761  0.41545187  0.69011830  1
  O  O366  1  0.54599399  0.90652414  0.19316826  1
  O  O367  1  0.54398653  0.91691753  0.69124650  1
  O  O368  1  0.86572249  0.41657848  0.19114893  1
  O  O369  1  0.87554639  0.41889775  0.69338878  1
  O  O370  1  0.87614600  0.91312113  0.19505628  1
  O  O371  1  0.88197303  0.91944212  0.69269179  1
  O  O372  1  0.04428493  0.16733628  0.19483633  1
  O  O373  1  0.03826413  0.16789572  0.69478207  1
  O  O374  1  0.04710486  0.66539114  0.19581549  1
  O  O375  1  0.04439023  0.66604037  0.69674593  1
  O  O376  1  0.38085980  0.16600264  0.19269073  1
  O  O377  1  0.37847950  0.16578313  0.69135945  1
  O  O378  1  0.37617966  0.66770131  0.19735346  1
  O  O379  1  0.37480133  0.66976043  0.69787314  1
  O  O380  1  0.71360130  0.16789678  0.19111115  1
  O  O381  1  0.71099795  0.16637212  0.69521402  1
  O  O382  1  0.71030230  0.66662099  0.19569543  1
  O  O383  1  0.70881635  0.66656585  0.69115967  1
  O  O384  1  0.12268069  0.08567114  0.30677254  1
  O  O385  1  0.11954846  0.08520138  0.80065343  1
  O  O386  1  0.12684538  0.58349893  0.30994940  1
  O  O387  1  0.11866966  0.58652549  0.80880226  1
  O  O388  1  0.45096285  0.09060085  0.30489864  1
  O  O389  1  0.46350761  0.08157205  0.80308454  1
  O  O390  1  0.45535380  0.58140793  0.30603740  1
  O  O391  1  0.45705578  0.58066313  0.80071341  1
  O  O392  1  0.78860844  0.08343815  0.29889524  1
  O  O393  1  0.78725223  0.08088756  0.80033312  1
  O  O394  1  0.78545842  0.58400961  0.30904373  1
  O  O395  1  0.78613874  0.58243515  0.80144969  1
  O  O396  1  0.29149011  0.33541695  0.31017942  1
  O  O397  1  0.28543928  0.32761909  0.81322943  1
  O  O398  1  0.28753035  0.83408867  0.30211720  1
  O  O399  1  0.29348305  0.83658973  0.80579266  1
  O  O400  1  0.62366073  0.33485346  0.30416650  1
  O  O401  1  0.62608818  0.33046255  0.79926554  1
  O  O402  1  0.62227353  0.83015465  0.30661995  1
  O  O403  1  0.62617388  0.83635634  0.80265512  1
  O  O404  1  0.95295136  0.33179938  0.30929845  1
  O  O405  1  0.95126529  0.33501388  0.80414061  1
  O  O406  1  0.95766095  0.83308864  0.30747607  1
  O  O407  1  0.96580121  0.83173135  0.80579349  1
  O  O408  1  0.13012387  0.41621944  0.30356379  1
  O  O409  1  0.12019465  0.41668901  0.80129256  1
  O  O410  1  0.12282812  0.91828590  0.30853096  1
  O  O411  1  0.12366562  0.91511232  0.80814832  1
  O  O412  1  0.45784067  0.41653066  0.30585283  1
  O  O413  1  0.47403030  0.41656445  0.80446683  1
  O  O414  1  0.45402652  0.90872405  0.31004422  1
  O  O415  1  0.46162165  0.91668540  0.80153409  1
  O  O416  1  0.78860612  0.41620965  0.30545303  1
  O  O417  1  0.78521387  0.41677973  0.80046010  1
  O  O418  1  0.78994841  0.91313256  0.30713244  1
  O  O419  1  0.78632396  0.92327515  0.80339662  1
  O  O420  1  0.29048982  0.16307909  0.30623009  1
  O  O421  1  0.28812785  0.16672413  0.80201446  1
  O  O422  1  0.29297509  0.66639665  0.30691018  1
  O  O423  1  0.28769738  0.66886597  0.80052752  1
  O  O424  1  0.62628137  0.16949795  0.30646036  1
  O  O425  1  0.62128359  0.16454409  0.79926319  1
  O  O426  1  0.62169496  0.66612196  0.30692879  1
  O  O427  1  0.62577572  0.66828206  0.80374297  1
  O  O428  1  0.95998520  0.16807560  0.30870438  1
  O  O429  1  0.94940005  0.16659414  0.80359391  1
  O  O430  1  0.95636117  0.66714428  0.30219052  1
  O  O431  1  0.95221693  0.66726061  0.80458601  1
  F  F432  1  0.04587335  -0.00203300  0.20578428  1
  F  F433  1  0.04568201  -0.00209391  0.70272381  1
  F  F434  1  0.04925168  0.50672428  0.20250105  1
  F  F435  1  0.04033062  0.50279770  0.70278166  1
  F  F436  1  0.36422687  -0.00265364  0.20093065  1
  F  F437  1  0.37991652  -0.00539742  0.69648439  1
  F  F438  1  0.37875766  0.49969949  0.20391723  1
  F  F439  1  0.37940755  0.50724075  0.69430908  1
  F  F440  1  0.71318352  -0.00533244  0.20017824  1
  F  F441  1  0.71177689  -0.00130422  0.69509933  1
  F  F442  1  0.71148568  0.50000225  0.20482099  1
  F  F443  1  0.71167209  0.50050379  0.69717449  1
  F  F444  1  0.21210853  0.25269496  0.20534062  1
  F  F445  1  0.19626896  0.25170776  0.69872822  1
  F  F446  1  0.21043922  0.74810635  0.20441582  1
  F  F447  1  0.20906949  0.75394552  0.70182541  1
  F  F448  1  0.54837049  0.25291940  0.20192519  1
  F  F449  1  0.54518951  0.24921188  0.69612560  1
  F  F450  1  0.54458264  0.74855011  0.20413994  1
  F  F451  1  0.54689496  0.75575386  0.69676973  1
  F  F452  1  0.88064329  0.25005386  0.20485736  1
  F  F453  1  0.87684826  0.25070368  0.69947074  1
  F  F454  1  0.87835748  0.75197710  0.20364635  1
  F  F455  1  0.88378989  0.73987490  0.69580033  1
  F  F456  1  0.28730245  -0.00277555  0.30387393  1
  F  F457  1  0.28805873  -0.00419104  0.79921390  1
  F  F458  1  0.29108200  0.49999909  0.29917800  1
  F  F459  1  0.28232936  0.51115353  0.80041388  1
  F  F460  1  0.63536827  -0.00199577  0.30276425  1
  F  F461  1  0.62088143  0.00099888  0.79027406  1
  F  F462  1  0.62191435  0.49647473  0.30050925  1
  F  F463  1  0.62400024  0.49973169  0.79292924  1
  F  F464  1  0.95542341  -0.00274608  0.30067045  1
  F  F465  1  0.95282592  -0.00062427  0.79739165  1
  F  F466  1  0.95298822  0.49991021  0.30323529  1
  F  F467  1  0.94961825  0.50077667  0.79784728  1
  F  F468  1  0.12367466  0.24658223  0.30262711  1
  F  F469  1  0.11483794  0.25043703  0.79986292  1
  F  F470  1  0.12165495  0.74972399  0.29997283  1
  F  F471  1  0.12039342  0.75088757  0.79732372  1
  F  F472  1  0.46390693  0.25094523  0.30054131  1
  F  F473  1  0.46618834  0.24886555  0.79914174  1
  F  F474  1  0.45608041  0.74772907  0.29930280  1
  F  F475  1  0.45533590  0.75897724  0.79919613  1
  F  F476  1  0.78787587  0.25046819  0.29711350  1
  F  F477  1  0.78604840  0.25192788  0.79364000  1
  F  F478  1  0.78667240  0.74892903  0.29908642  1
  F  F479  1  0.78195575  0.74073304  0.79849756  1
