# generated using pymatgen
data_K24Na3Li5Mg64Fe17Si79(O5F)48
_symmetry_space_group_name_H-M   'P 1'
_cell_length_a   16.09600819
_cell_length_b   18.58778264
_cell_length_c   20.55538358
_cell_angle_alpha   90.02656860
_cell_angle_beta   99.99115063
_cell_angle_gamma   89.98217399
_symmetry_Int_Tables_number   1
_chemical_formula_structural   K24Na3Li5Mg64Fe17Si79(O5F)48
_chemical_formula_sum   'K24 Na3 Li5 Mg64 Fe17 Si79 O240 F48'
_cell_volume   6056.67929031
_cell_formula_units_Z   1
loop_
 _symmetry_equiv_pos_site_id
 _symmetry_equiv_pos_as_xyz
  1  'x, y, z'
loop_
 _atom_site_type_symbol
 _atom_site_label
 _atom_site_symmetry_multiplicity
 _atom_site_fract_x
 _atom_site_fract_y
 _atom_site_fract_z
 _atom_site_occupancy
  K  K0  1  -0.00434068  0.00102433  -0.00231051  1
  K  K1  1  0.00240810  -0.00100677  0.49835893  1
  K  K2  1  0.00483341  0.49784047  -0.00019451  1
  K  K3  1  0.01891751  0.49867151  0.50919195  1
  K  K4  1  0.34179880  0.00702648  -0.00108975  1
  K  K5  1  0.31855076  0.00213475  0.50260574  1
  K  K6  1  0.33657612  0.49416223  0.00052106  1
  K  K7  1  0.31894813  0.49888094  0.49263346  1
  K  K8  1  0.66369642  0.00778328  -0.00825422  1
  K  K9  1  0.67012062  -0.00358526  0.50597912  1
  K  K10  1  0.65646542  0.50123966  0.00114487  1
  K  K11  1  0.66643323  0.49902943  0.49875997  1
  K  K12  1  0.16193356  0.24212670  -0.00408832  1
  K  K13  1  0.18610356  0.24856699  0.50746272  1
  K  K14  1  0.15774146  0.74280159  0.00187105  1
  K  K15  1  0.16655900  0.75311761  0.48795883  1
  K  K16  1  0.50242823  0.24687683  0.00506201  1
  K  K17  1  0.49720884  0.24786059  0.49804919  1
  K  K18  1  0.49322424  0.75188604  -0.00210547  1
  K  K19  1  0.49251486  0.75447453  0.49814325  1
  K  K20  1  0.83132291  0.23845931  -0.00776722  1
  K  K21  1  0.83155698  0.24378291  0.49882880  1
  K  K22  1  0.84297946  0.76572914  -0.00136524  1
  K  K23  1  0.84024814  0.76150138  0.49813439  1
  Na  Na24  1  0.16663918  0.49996414  0.75024102  1
  Na  Na25  1  0.66817163  0.07852235  0.75956709  1
  Na  Na26  1  0.33251841  0.58079484  0.25692194  1
  Li  Li27  1  0.83280300  0.00055400  0.24909812  1
  Li  Li28  1  0.66311416  0.24764281  0.24528122  1
  Li  Li29  1  0.16031129  0.83379615  0.24765708  1
  Li  Li30  1  0.66897826  0.92309313  0.75038627  1
  Li  Li31  1  0.33102949  0.08123193  0.74388338  1
  Mg  Mg32  1  0.83224869  -0.00108956  0.74991853  1
  Mg  Mg33  1  0.50060805  0.00074129  0.24493488  1
  Mg  Mg34  1  0.33292597  0.24613047  0.74318412  1
  Mg  Mg35  1  0.33308425  0.75286950  0.74793030  1
  Mg  Mg36  1  0.83461544  0.50265383  0.75519222  1
  Mg  Mg37  1  -0.00019562  0.24944291  0.75047540  1
  Mg  Mg38  1  0.32690295  0.75023581  0.25338572  1
  Mg  Mg39  1  0.16743835  0.49892467  0.25387389  1
  Mg  Mg40  1  0.33703310  0.24963413  0.24689649  1
  Mg  Mg41  1  -0.00052246  0.75276626  0.25218524  1
  Mg  Mg42  1  0.00110646  0.75092602  0.75192810  1
  Mg  Mg43  1  0.50297653  -0.00025869  0.75091745  1
  Mg  Mg44  1  0.49949152  0.49789978  0.24945254  1
  Mg  Mg45  1  0.66658606  0.75112906  0.24960964  1
  Mg  Mg46  1  0.00088558  0.24789593  0.25080190  1
  Mg  Mg47  1  0.17135838  0.00077256  0.74620740  1
  Mg  Mg48  1  0.16514485  -0.00400317  0.24796283  1
  Mg  Mg49  1  0.83100644  0.49674008  0.25035831  1
  Mg  Mg50  1  0.66704527  0.24951209  0.75504492  1
  Mg  Mg51  1  0.66801914  0.75414029  0.74829982  1
  Mg  Mg52  1  0.49858657  0.50109154  0.75020150  1
  Mg  Mg53  1  0.50357483  0.83699992  0.74765880  1
  Mg  Mg54  1  0.33515301  0.41301029  0.24999358  1
  Mg  Mg55  1  0.32986295  0.58471657  0.74839186  1
  Mg  Mg56  1  -0.00186082  0.91548650  0.25155314  1
  Mg  Mg57  1  0.00092320  0.91660135  0.74789680  1
  Mg  Mg58  1  0.00292078  0.41700264  0.75448199  1
  Mg  Mg59  1  0.66797693  0.41774732  0.75484138  1
  Mg  Mg60  1  0.49936773  0.16295626  0.74944569  1
  Mg  Mg61  1  0.00202358  0.58557214  0.75406505  1
  Mg  Mg62  1  0.83323164  0.66556308  0.25233112  1
  Mg  Mg63  1  0.16759070  0.33357795  0.74765870  1
  Mg  Mg64  1  0.66312181  0.58325493  0.24751979  1
  Mg  Mg65  1  0.83401028  0.83748836  0.74877844  1
  Mg  Mg66  1  0.16455016  0.66578106  0.75015055  1
  Mg  Mg67  1  0.82952104  0.32983835  0.24944819  1
  Mg  Mg68  1  0.83611991  0.66861947  0.75381101  1
  Mg  Mg69  1  0.66713280  0.58638189  0.75259403  1
  Mg  Mg70  1  0.83474257  0.83801588  0.25026256  1
  Mg  Mg71  1  0.50157930  0.33287616  0.75064149  1
  Mg  Mg72  1  0.16818187  0.16364438  0.74602724  1
  Mg  Mg73  1  0.32922796  0.91469027  0.24930214  1
  Mg  Mg74  1  0.16977544  0.16432210  0.24961229  1
  Mg  Mg75  1  0.00021522  0.41330703  0.25247396  1
  Mg  Mg76  1  0.82998943  0.16537263  0.24957252  1
  Mg  Mg77  1  0.83506545  0.33441732  0.75653068  1
  Mg  Mg78  1  0.83421333  0.16435268  0.75480562  1
  Mg  Mg79  1  0.33224854  0.91981085  0.74541019  1
  Mg  Mg80  1  -0.00047182  0.58282564  0.25356165  1
  Mg  Mg81  1  0.49717438  0.83370006  0.24801986  1
  Mg  Mg82  1  0.33457192  0.08382118  0.24650723  1
  Mg  Mg83  1  0.17092378  0.33294034  0.25096490  1
  Mg  Mg84  1  0.33236493  0.41533742  0.74703073  1
  Mg  Mg85  1  0.66614075  0.08464386  0.24558312  1
  Mg  Mg86  1  0.49910384  0.66829957  0.74896676  1
  Mg  Mg87  1  0.16525021  0.66873130  0.25459744  1
  Mg  Mg88  1  0.16512995  0.83594715  0.74564627  1
  Mg  Mg89  1  -0.00201973  0.08153712  0.25114185  1
  Mg  Mg90  1  -0.00010644  0.08525431  0.74850735  1
  Mg  Mg91  1  0.66285989  0.41194330  0.24640074  1
  Mg  Mg92  1  0.50107531  0.16590829  0.24411935  1
  Mg  Mg93  1  0.50067063  0.33280041  0.24638583  1
  Mg  Mg94  1  0.66777273  0.91818819  0.24728011  1
  Mg  Mg95  1  0.49600538  0.66599737  0.25065774  1
  Fe  Fe96  1  0.35380463  0.33572684  0.10535204  1
  Fe  Fe97  1  0.53052546  0.07878717  0.10408974  1
  Fe  Fe98  1  0.97554241  0.66948921  0.89456551  1
  Fe  Fe99  1  0.31426948  0.33285022  0.39038382  1
  Fe  Fe100  1  0.14408770  0.57918659  0.89421145  1
  Fe  Fe101  1  0.19264613  0.91214118  0.60412297  1
  Fe  Fe102  1  0.02448032  0.82750046  0.60817813  1
  Fe  Fe103  1  0.52845530  0.42057542  0.10577090  1
  Fe  Fe104  1  0.01917250  0.83336654  0.11055774  1
  Fe  Fe105  1  0.97597222  0.16372806  0.89152538  1
  Fe  Fe106  1  0.19503450  0.41495238  0.60693648  1
  Fe  Fe107  1  0.97376216  0.83289916  0.39240134  1
  Fe  Fe108  1  0.30905103  0.66822414  0.39570730  1
  Fe  Fe109  1  0.35326264  0.16440723  0.10497705  1
  Fe  Fe110  1  0.85860476  0.92201705  0.60822244  1
  Fe  Fe111  1  0.63712244  0.17142211  0.89284925  1
  Fe  Fe112  1  0.18649563  0.08836338  0.60456918  1
  Si  Si113  1  0.63947337  0.16597281  0.38345015  1
  Si  Si114  1  0.80254464  0.58951724  0.89009715  1
  Si  Si115  1  0.80364641  0.57958647  0.38551941  1
  Si  Si116  1  0.98122454  0.84016490  0.88888484  1
  Si  Si117  1  0.96902835  0.33148312  0.38589878  1
  Si  Si118  1  0.01758309  0.17307773  0.61062097  1
  Si  Si119  1  0.01606139  0.66353157  0.11604845  1
  Si  Si120  1  0.01794815  0.66108930  0.61278574  1
  Si  Si121  1  0.19011546  0.91305150  0.11343212  1
  Si  Si122  1  0.47097340  0.41885532  0.88343032  1
  Si  Si123  1  0.85242666  0.08996243  0.61236760  1
  Si  Si124  1  0.97097429  0.65949598  0.38919400  1
  Si  Si125  1  0.48242366  0.41970723  0.38989249  1
  Si  Si126  1  0.31121598  0.84037587  0.38851417  1
  Si  Si127  1  0.02886284  0.16636653  0.11602589  1
  Si  Si128  1  0.52576343  0.58314970  0.61553790  1
  Si  Si129  1  0.69523869  0.66774069  0.11490628  1
  Si  Si130  1  0.53085118  0.08154230  0.61493497  1
  Si  Si131  1  0.18350380  0.58651706  0.11932105  1
  Si  Si132  1  0.69908655  0.16793989  0.11259098  1
  Si  Si133  1  0.31321172  0.16179782  0.38626615  1
  Si  Si134  1  0.13666475  0.41067874  0.38799230  1
  Si  Si135  1  0.64052476  0.83036259  0.88439282  1
  Si  Si136  1  0.47183639  0.08080964  0.88467211  1
  Si  Si137  1  0.69589695  0.82885525  0.61187065  1
  Si  Si138  1  0.69275356  0.17285857  0.61897142  1
  Si  Si139  1  0.69160458  0.66549696  0.61529533  1
  Si  Si140  1  0.30963935  0.16488225  0.87957109  1
  Si  Si141  1  0.53537108  0.91684923  0.61526783  1
  Si  Si142  1  0.36096711  0.66964465  0.61350893  1
  Si  Si143  1  0.85343162  0.92477743  0.11250252  1
  Si  Si144  1  0.85537514  0.57531372  0.11657428  1
  Si  Si145  1  0.14708760  0.08369370  0.88568294  1
  Si  Si146  1  0.31151438  0.32635262  0.88241812  1
  Si  Si147  1  0.36791655  0.16594446  0.60935534  1
  Si  Si148  1  0.19270279  0.59111349  0.61087289  1
  Si  Si149  1  0.30809749  0.67114258  0.88716766  1
  Si  Si150  1  0.13647006  0.57780027  0.38952595  1
  Si  Si151  1  0.01851473  0.33619291  0.61377045  1
  Si  Si152  1  0.69828375  0.33315157  0.11209268  1
  Si  Si153  1  0.36983392  0.83574741  0.61096074  1
  Si  Si154  1  0.69359445  0.33464096  0.61942610  1
  Si  Si155  1  0.97251016  0.16603868  0.38561160  1
  Si  Si156  1  0.85570438  0.41685495  0.61962481  1
  Si  Si157  1  0.80757214  0.91270027  0.88542152  1
  Si  Si158  1  0.18836177  0.42323025  0.11347692  1
  Si  Si159  1  0.85507175  0.57965059  0.61784670  1
  Si  Si160  1  0.47614441  0.91577853  0.88348398  1
  Si  Si161  1  0.47779195  0.07985382  0.38374230  1
  Si  Si162  1  0.14722129  0.40734667  0.88833754  1
  Si  Si163  1  0.80945325  0.42413286  0.88937305  1
  Si  Si164  1  0.97524474  0.33678784  0.89143783  1
  Si  Si165  1  0.53206438  0.41898224  0.61698580  1
  Si  Si166  1  0.46923868  0.58504039  0.88345096  1
  Si  Si167  1  0.69543714  0.83224475  0.11412888  1
  Si  Si168  1  0.64351479  0.66910355  0.38511813  1
  Si  Si169  1  0.81008029  0.07773115  0.89267370  1
  Si  Si170  1  0.80315024  0.41356053  0.38491490  1
  Si  Si171  1  0.35157055  0.66998145  0.11721741  1
  Si  Si172  1  0.14711907  0.92039593  0.88369399  1
  Si  Si173  1  0.14145924  0.08713996  0.38428975  1
  Si  Si174  1  0.63972884  0.33048132  0.38417225  1
  Si  Si175  1  0.80423682  0.08491202  0.38374108  1
  Si  Si176  1  0.63845667  0.83427577  0.38317938  1
  Si  Si177  1  0.14246958  0.92230726  0.38628582  1
  Si  Si178  1  0.48461911  0.58312668  0.38894804  1
  Si  Si179  1  0.80023212  0.91904686  0.38557448  1
  Si  Si180  1  0.47598688  0.91739188  0.38337904  1
  Si  Si181  1  0.18828011  0.07621270  0.11233713  1
  Si  Si182  1  0.02965971  0.33266470  0.11632236  1
  Si  Si183  1  0.31059916  0.83554892  0.88336784  1
  Si  Si184  1  0.86251340  0.08937787  0.11647809  1
  Si  Si185  1  0.86260939  0.41052415  0.11628426  1
  Si  Si186  1  0.64277765  0.34166378  0.89088958  1
  Si  Si187  1  0.63506268  0.66609593  0.88564076  1
  Si  Si188  1  0.52368235  0.90590512  0.11020808  1
  Si  Si189  1  0.36953103  0.33221851  0.61050694  1
  Si  Si190  1  0.35377765  0.83275892  0.11479105  1
  Si  Si191  1  0.52114924  0.59370453  0.11085307  1
  O  O192  1  0.26567597  0.09639846  0.07634473  1
  O  O193  1  0.28207812  0.12844871  0.57288770  1
  O  O194  1  0.26784282  0.61895166  0.09237962  1
  O  O195  1  0.27038728  0.63368707  0.58172799  1
  O  O196  1  0.62913899  0.11299320  0.07578982  1
  O  O197  1  0.61214509  0.12087173  0.58925507  1
  O  O198  1  0.59938130  0.63968954  0.08485209  1
  O  O199  1  0.60701357  0.61638651  0.58668076  1
  O  O200  1  0.94578136  0.11800192  0.08644198  1
  O  O201  1  0.93369829  0.12311142  0.58285549  1
  O  O202  1  0.93800713  0.60520027  0.08888397  1
  O  O203  1  0.94001474  0.60102346  0.58881482  1
  O  O204  1  0.10658522  0.36936036  0.08585887  1
  O  O205  1  0.09319611  0.36315587  0.57629644  1
  O  O206  1  0.11903836  0.85748271  0.07849428  1
  O  O207  1  0.12349542  0.83527593  0.57573336  1
  O  O208  1  0.44216594  0.36460154  0.06297574  1
  O  O209  1  0.45364644  0.36809158  0.58574555  1
  O  O210  1  0.43888292  0.85532959  0.08537078  1
  O  O211  1  0.45398155  0.86696309  0.58385178  1
  O  O212  1  0.78801713  0.35488324  0.08584451  1
  O  O213  1  0.77615319  0.36337914  0.58955049  1
  O  O214  1  0.76243247  0.88227242  0.08361302  1
  O  O215  1  0.77034760  0.85575000  0.57470890  1
  O  O216  1  0.26590865  0.40368921  0.07772276  1
  O  O217  1  0.28744828  0.37447622  0.57315901  1
  O  O218  1  0.27911348  0.89026344  0.08617083  1
  O  O219  1  0.29313757  0.88309087  0.57406512  1
  O  O220  1  0.62856577  0.38901519  0.07621423  1
  O  O221  1  0.61633404  0.39001241  0.58948389  1
  O  O222  1  0.59927556  0.85840775  0.08415273  1
  O  O223  1  0.61263201  0.87962019  0.58432421  1
  O  O224  1  0.94650270  0.38262039  0.08797791  1
  O  O225  1  0.93659989  0.39046010  0.58793715  1
  O  O226  1  0.92512010  0.89258131  0.07430383  1
  O  O227  1  0.95085583  0.89865462  0.57081331  1
  O  O228  1  0.10760249  0.13145616  0.08639554  1
  O  O229  1  0.09376714  0.15220023  0.57281158  1
  O  O230  1  0.10159447  0.63644543  0.08845886  1
  O  O231  1  0.10172801  0.63214277  0.58335657  1
  O  O232  1  0.44224947  0.13503873  0.06434204  1
  O  O233  1  0.44710779  0.12668211  0.57980791  1
  O  O234  1  0.43320504  0.64057263  0.08516202  1
  O  O235  1  0.43886494  0.62657427  0.58623116  1
  O  O236  1  0.78881779  0.14725122  0.08690718  1
  O  O237  1  0.77428818  0.14819352  0.58628054  1
  O  O238  1  0.76673025  0.61836561  0.08669189  1
  O  O239  1  0.77218072  0.62975735  0.58652980  1
  O  O240  1  0.06261891  0.12589606  0.41359778  1
  O  O241  1  0.07391663  0.11079834  0.92478404  1
  O  O242  1  0.05063889  0.60558452  0.41589705  1
  O  O243  1  0.05488183  0.60517005  0.93589259  1
  O  O244  1  0.39368672  0.10625975  0.41284953  1
  O  O245  1  0.38349772  0.10712213  0.90807028  1
  O  O246  1  0.40722280  0.61017202  0.42316773  1
  O  O247  1  0.39522448  0.62428874  0.91493492  1
  O  O248  1  0.72892499  0.12550012  0.41611088  1
  O  O249  1  0.73199300  0.11389155  0.92156509  1
  O  O250  1  0.72714324  0.62024707  0.41484518  1
  O  O251  1  0.71345638  0.61279883  0.91515213  1
  O  O252  1  0.21630270  0.36372984  0.42202909  1
  O  O253  1  0.22703777  0.35017952  0.91201861  1
  O  O254  1  0.23366681  0.88320079  0.41440092  1
  O  O255  1  0.22929321  0.86827829  0.91262741  1
  O  O256  1  0.56630033  0.36886920  0.41856715  1
  O  O257  1  0.56153092  0.38228309  0.91540096  1
  O  O258  1  0.55481155  0.86237458  0.41195057  1
  O  O259  1  0.56255030  0.86943014  0.91436096  1
  O  O260  1  0.89051349  0.37018081  0.41475049  1
  O  O261  1  0.89676488  0.38087214  0.91833059  1
  O  O262  1  0.87935246  0.87309697  0.42223599  1
  O  O263  1  0.89822477  0.87413649  0.91684500  1
  O  O264  1  0.05254374  0.37834404  0.41525816  1
  O  O265  1  0.06379451  0.38001548  0.92002476  1
  O  O266  1  0.07185734  0.88577316  0.42267404  1
  O  O267  1  0.06337602  0.89453706  0.91379381  1
  O  O268  1  0.40611862  0.39362217  0.42608583  1
  O  O269  1  0.39214649  0.38021869  0.91054511  1
  O  O270  1  0.39581306  0.89141687  0.41600009  1
  O  O271  1  0.39681205  0.88074486  0.91452534  1
  O  O272  1  0.72857821  0.37307994  0.41603614  1
  O  O273  1  0.72681440  0.39323058  0.91729218  1
  O  O274  1  0.71524620  0.88811552  0.41357751  1
  O  O275  1  0.73122910  0.86872467  0.91451656  1
  O  O276  1  0.22868323  0.13087938  0.41356572  1
  O  O277  1  0.22810155  0.13744053  0.91110530  1
  O  O278  1  0.21706108  0.62226190  0.42629726  1
  O  O279  1  0.23634014  0.64229319  0.92559929  1
  O  O280  1  0.56049320  0.12982001  0.41478449  1
  O  O281  1  0.54614896  0.12967480  0.92539847  1
  O  O282  1  0.56707920  0.63587873  0.41866333  1
  O  O283  1  0.55511026  0.63024765  0.91420305  1
  O  O284  1  0.89477074  0.12606323  0.41425651  1
  O  O285  1  0.89610009  0.11539684  0.93163085  1
  O  O286  1  0.89079218  0.62002049  0.41684175  1
  O  O287  1  0.87258068  0.64486778  0.92435242  1
  O  O288  1  0.15849025  -0.00556175  0.08653487  1
  O  O289  1  0.16105430  0.00016250  0.56424825  1
  O  O290  1  0.15941686  0.50590370  0.08847097  1
  O  O291  1  0.18467532  0.51199033  0.57706497  1
  O  O292  1  0.51238067  -0.01848422  0.07245115  1
  O  O293  1  0.52566644  -0.00083650  0.58374413  1
  O  O294  1  0.51357154  0.51800929  0.07272365  1
  O  O295  1  0.51515167  0.50067298  0.58695339  1
  O  O296  1  0.83607979  0.00915051  0.08666453  1
  O  O297  1  0.82348591  0.01525523  0.57584287  1
  O  O298  1  0.83942031  0.49250593  0.08799672  1
  O  O299  1  0.82817942  0.49767261  0.59022648  1
  O  O300  1  0.01437061  0.24987180  0.08790708  1
  O  O301  1  -0.01523460  0.25581432  0.58755328  1
  O  O302  1  -0.01369202  0.73879385  0.08139290  1
  O  O303  1  -0.01790825  0.73486108  0.57869990  1
  O  O304  1  0.30782676  0.25019787  0.07015391  1
  O  O305  1  0.36844849  0.24989497  0.58128721  1
  O  O306  1  0.32827667  0.75122015  0.08537622  1
  O  O307  1  0.36337612  0.75097706  0.58437366  1
  O  O308  1  0.67698100  0.25068883  0.08551657  1
  O  O309  1  0.66823797  0.25485507  0.58816151  1
  O  O310  1  0.70433901  0.74938387  0.08647947  1
  O  O311  1  0.67066710  0.74515745  0.58349523  1
  O  O312  1  0.15420045  0.00637221  0.41444196  1
  O  O313  1  0.17444679  0.00107158  0.91238726  1
  O  O314  1  0.14666090  0.49358101  0.41614001  1
  O  O315  1  0.17816861  0.48371451  0.92078750  1
  O  O316  1  0.50260765  -0.00174499  0.41270576  1
  O  O317  1  0.48789625  -0.00297256  0.91337382  1
  O  O318  1  0.51354926  0.50142687  0.41672827  1
  O  O319  1  0.47825630  0.50228432  0.91158978  1
  O  O320  1  0.81003446  0.00302907  0.41305314  1
  O  O321  1  0.81142248  -0.00746486  0.91872055  1
  O  O322  1  0.80811289  0.49636911  0.41433165  1
  O  O323  1  0.82313457  0.50655917  0.91782377  1
  O  O324  1  0.33842557  0.23789452  0.42220500  1
  O  O325  1  0.33748829  0.24544542  0.91101070  1
  O  O326  1  0.32693275  0.76426733  0.42756156  1
  O  O327  1  0.33101347  0.75437573  0.91366570  1
  O  O328  1  0.65026830  0.24824722  0.41454499  1
  O  O329  1  0.65958445  0.26612655  0.92818988  1
  O  O330  1  0.66023264  0.75219693  0.41246019  1
  O  O331  1  0.64803570  0.74757011  0.91678434  1
  O  O332  1  0.97709191  0.24896232  0.41545443  1
  O  O333  1  0.98129974  0.25890043  0.92639185  1
  O  O334  1  0.98634209  0.73683481  0.42369617  1
  O  O335  1  1.00347211  0.76433349  0.92595730  1
  O  O336  1  0.20815298  0.08086044  0.19358903  1
  O  O337  1  0.20697823  0.08368540  0.69536157  1
  O  O338  1  0.19651844  0.58349314  0.19854658  1
  O  O339  1  0.21536219  0.59310015  0.69081993  1
  O  O340  1  0.54489997  0.08122407  0.19659799  1
  O  O341  1  0.53815833  0.08157741  0.69351503  1
  O  O342  1  0.54207413  0.58808759  0.19184202  1
  O  O343  1  0.54421254  0.58429260  0.69608691  1
  O  O344  1  0.88100517  0.08934602  0.19613298  1
  O  O345  1  0.87352010  0.08641988  0.69299508  1
  O  O346  1  0.87244132  0.57917662  0.19711868  1
  O  O347  1  0.87015919  0.58267758  0.69795086  1
  O  O348  1  0.04444659  0.33205696  0.19691028  1
  O  O349  1  0.03947679  0.33579911  0.69475136  1
  O  O350  1  0.03957188  0.83386492  0.20061763  1
  O  O351  1  0.04354838  0.83202367  0.70095661  1
  O  O352  1  0.38022220  0.33311190  0.19832937  1
  O  O353  1  0.38224455  0.33437164  0.69138164  1
  O  O354  1  0.37458624  0.83300215  0.19528694  1
  O  O355  1  0.38142717  0.83333633  0.69195922  1
  O  O356  1  0.71447780  0.33693464  0.19253182  1
  O  O357  1  0.71120403  0.33676730  0.69977615  1
  O  O358  1  0.71060460  0.83220766  0.19464539  1
  O  O359  1  0.71450308  0.82644574  0.69170146  1
  O  O360  1  0.20533522  0.41807016  0.19425312  1
  O  O361  1  0.21686342  0.40903142  0.69679248  1
  O  O362  1  0.21078865  0.91654435  0.19373434  1
  O  O363  1  0.21238306  0.91557789  0.69686680  1
  O  O364  1  0.54515044  0.41808771  0.19846505  1
  O  O365  1  0.54749748  0.41976349  0.69747532  1
  O  O366  1  0.54249268  0.91181785  0.19125555  1
  O  O367  1  0.54583817  0.91667541  0.69450858  1
  O  O368  1  0.87835627  0.41343195  0.19694323  1
  O  O369  1  0.87306926  0.41690816  0.69989942  1
  O  O370  1  0.87382291  0.91746652  0.19224889  1
  O  O371  1  0.87993863  0.91745839  0.70024143  1
  O  O372  1  0.04481666  0.16671980  0.19645421  1
  O  O373  1  0.04104858  0.16883799  0.69140280  1
  O  O374  1  0.03511678  0.66378772  0.19703497  1
  O  O375  1  0.04038978  0.66483521  0.69326720  1
  O  O376  1  0.37784074  0.16487277  0.19845246  1
  O  O377  1  0.38291719  0.16906820  0.68942951  1
  O  O378  1  0.37841864  0.67428350  0.19607856  1
  O  O379  1  0.37851897  0.66779017  0.69419566  1
  O  O380  1  0.71349050  0.16484642  0.19276465  1
  O  O381  1  0.71581067  0.17624986  0.69799146  1
  O  O382  1  0.71060471  0.66591983  0.19546326  1
  O  O383  1  0.70910149  0.66532173  0.69587563  1
  O  O384  1  0.12262359  0.08586208  0.30389444  1
  O  O385  1  0.12313236  0.08469976  0.80513603  1
  O  O386  1  0.12007081  0.57981370  0.30869675  1
  O  O387  1  0.11899978  0.59094739  0.80395243  1
  O  O388  1  0.45833224  0.08014788  0.30392097  1
  O  O389  1  0.46208309  0.08208653  0.80513585  1
  O  O390  1  0.47185690  0.58350079  0.30890892  1
  O  O391  1  0.45634474  0.58592733  0.80311434  1
  O  O392  1  0.78598628  0.08759027  0.30447544  1
  O  O393  1  0.80413500  0.08156679  0.81275096  1
  O  O394  1  0.78656666  0.58082180  0.30505904  1
  O  O395  1  0.78704181  0.58621086  0.80881592  1
  O  O396  1  0.28945886  0.32994584  0.29921684  1
  O  O397  1  0.29425471  0.32996313  0.80218251  1
  O  O398  1  0.29799609  0.83605832  0.30863572  1
  O  O399  1  0.29351592  0.83387394  0.80332936  1
  O  O400  1  0.62324312  0.33435060  0.30508944  1
  O  O401  1  0.62496987  0.33911595  0.80961105  1
  O  O402  1  0.62126016  0.83305621  0.30273968  1
  O  O403  1  0.62058487  0.82626914  0.80523298  1
  O  O404  1  0.95384687  0.33135750  0.30548968  1
  O  O405  1  0.95616438  0.33551919  0.81025973  1
  O  O406  1  0.95059299  0.83337008  0.30115323  1
  O  O407  1  0.95909793  0.83488565  0.80862599  1
  O  O408  1  0.11975537  0.41167708  0.30697663  1
  O  O409  1  0.12054408  0.40558741  0.80856305  1
  O  O410  1  0.12129494  0.92256719  0.30639891  1
  O  O411  1  0.12626962  0.91857680  0.80385565  1
  O  O412  1  0.46099287  0.41724257  0.30959724  1
  O  O413  1  0.45801035  0.41732562  0.80293096  1
  O  O414  1  0.45801389  0.91678107  0.30294557  1
  O  O415  1  0.45618356  0.91271164  0.80365888  1
  O  O416  1  0.78797127  0.41479157  0.30474004  1
  O  O417  1  0.79029584  0.42058991  0.80866443  1
  O  O418  1  0.78384509  0.91386795  0.30563218  1
  O  O419  1  0.79185794  0.91389934  0.80622705  1
  O  O420  1  0.29160986  0.16340885  0.30554362  1
  O  O421  1  0.28912594  0.17019821  0.80024884  1
  O  O422  1  0.28343287  0.67380891  0.30644215  1
  O  O423  1  0.29219133  0.66824292  0.80624196  1
  O  O424  1  0.62175531  0.16299089  0.30438307  1
  O  O425  1  0.61411505  0.17756591  0.80282785  1
  O  O426  1  0.62542257  0.66744395  0.30466630  1
  O  O427  1  0.62056571  0.66700818  0.80515222  1
  O  O428  1  0.95626731  0.16721690  0.30549985  1
  O  O429  1  0.95679124  0.16792115  0.79977763  1
  O  O430  1  0.95123681  0.66127221  0.30805259  1
  O  O431  1  0.95441937  0.66765012  0.80189318  1
  F  F432  1  0.04387079  0.00139996  0.20154555  1
  F  F433  1  0.04581993  0.00208685  0.70220171  1
  F  F434  1  0.04187855  0.49732213  0.20633470  1
  F  F435  1  0.02808888  0.49942822  0.70129487  1
  F  F436  1  0.37824875  -0.00297656  0.20125632  1
  F  F437  1  0.38509093  -0.00451157  0.69947964  1
  F  F438  1  0.38258425  0.49306358  0.20232901  1
  F  F439  1  0.38217586  0.50221952  0.69854701  1
  F  F440  1  0.70739560  -0.00079389  0.19981597  1
  F  F441  1  0.71813631  -0.00467979  0.69909247  1
  F  F442  1  0.71229413  0.50046796  0.20087506  1
  F  F443  1  0.71134218  0.50161776  0.70588789  1
  F  F444  1  0.20878793  0.24706404  0.20128937  1
  F  F445  1  0.21106531  0.24994670  0.69737739  1
  F  F446  1  0.20856394  0.74858818  0.20269907  1
  F  F447  1  0.21422637  0.74931949  0.70296271  1
  F  F448  1  0.54436565  0.24999800  0.19948484  1
  F  F449  1  0.54907793  0.25791521  0.69929418  1
  F  F450  1  0.54589910  0.74907890  0.20206703  1
  F  F451  1  0.54615324  0.74821743  0.69980458  1
  F  F452  1  0.88143225  0.25019177  0.20202451  1
  F  F453  1  0.87633339  0.25540783  0.70523381  1
  F  F454  1  0.87348081  0.74637455  0.20301773  1
  F  F455  1  0.87684894  0.75063097  0.70354988  1
  F  F456  1  0.28783609  0.00070307  0.29601847  1
  F  F457  1  0.28960622  -0.00388513  0.79907385  1
  F  F458  1  0.28238002  0.48624036  0.30417708  1
  F  F459  1  0.30578206  0.50071316  0.80011512  1
  F  F460  1  0.62014106  -0.00325103  0.29715022  1
  F  F461  1  0.61368706  -0.01238247  0.80798631  1
  F  F462  1  0.62549965  0.50130994  0.29726360  1
  F  F463  1  0.61997473  0.50316854  0.80041633  1
  F  F464  1  0.95718324  0.00107387  0.29970716  1
  F  F465  1  0.95753048  0.00224494  0.79751463  1
  F  F466  1  0.95067557  0.49664199  0.30032368  1
  F  F467  1  0.95231268  0.49950423  0.80317580  1
  F  F468  1  0.12128116  0.24836134  0.29879189  1
  F  F469  1  0.12194140  0.24887285  0.79369489  1
  F  F470  1  0.11309649  0.74170718  0.30502193  1
  F  F471  1  0.12513107  0.75090258  0.79834190  1
  F  F472  1  0.45974516  0.24830472  0.29917163  1
  F  F473  1  0.45301888  0.25161440  0.79452069  1
  F  F474  1  0.45721123  0.75154294  0.29913131  1
  F  F475  1  0.45544044  0.75062417  0.79638449  1
  F  F476  1  0.79426534  0.24961511  0.30050380  1
  F  F477  1  0.78905870  0.25342917  0.80423752  1
  F  F478  1  0.78499537  0.74841336  0.29891910  1
  F  F479  1  0.78603273  0.75012522  0.79927334  1
