# generated using pymatgen
data_K24Na3Li5Mg64Fe17Si79(O5F)48
_symmetry_space_group_name_H-M   'P 1'
_cell_length_a   16.10614770
_cell_length_b   18.59195200
_cell_length_c   20.56962972
_cell_angle_alpha   89.96788595
_cell_angle_beta   100.00186784
_cell_angle_gamma   90.04306990
_symmetry_Int_Tables_number   1
_chemical_formula_structural   K24Na3Li5Mg64Fe17Si79(O5F)48
_chemical_formula_sum   'K24 Na3 Li5 Mg64 Fe17 Si79 O240 F48'
_cell_volume   6065.85380439
_cell_formula_units_Z   1
loop_
 _symmetry_equiv_pos_site_id
 _symmetry_equiv_pos_as_xyz
  1  'x, y, z'
loop_
 _atom_site_type_symbol
 _atom_site_label
 _atom_site_symmetry_multiplicity
 _atom_site_fract_x
 _atom_site_fract_y
 _atom_site_fract_z
 _atom_site_occupancy
  K  K0  1  0.00513679  -0.00408609  0.00702314  1
  K  K1  1  0.00802092  -0.01321030  0.49523927  1
  K  K2  1  -0.01396871  0.50036149  -0.00838196  1
  K  K3  1  -0.01331261  0.50897193  0.50413977  1
  K  K4  1  0.31947260  0.00286810  0.00367594  1
  K  K5  1  0.32712958  -0.01349312  0.48767268  1
  K  K6  1  0.34775894  0.50427278  -0.00651922  1
  K  K7  1  0.34163222  0.50975356  0.51080928  1
  K  K8  1  0.68124217  -0.00112470  0.01152282  1
  K  K9  1  0.66237557  -0.00744158  0.49093332  1
  K  K10  1  0.66562151  0.50759553  0.00288174  1
  K  K11  1  0.66620155  0.49699331  0.50621913  1
  K  K12  1  0.16968685  0.23767913  -0.00437124  1
  K  K13  1  0.16303930  0.24509437  0.50285248  1
  K  K14  1  0.16838831  0.75284048  -0.00301002  1
  K  K15  1  0.16515867  0.76973941  0.50152911  1
  K  K16  1  0.50113590  0.24783530  -0.00051277  1
  K  K17  1  0.50845272  0.25287667  0.50288899  1
  K  K18  1  0.50896662  0.74871271  0.00429274  1
  K  K19  1  0.50447398  0.75231744  0.49831895  1
  K  K20  1  0.82139266  0.24647242  0.00150399  1
  K  K21  1  0.82859306  0.24513660  0.50279995  1
  K  K22  1  0.83051595  0.76139068  0.00870280  1
  K  K23  1  0.83335194  0.75221239  0.49360398  1
  Na  Na24  1  0.83297900  -0.00104951  0.24440766  1
  Na  Na25  1  0.66866465  0.91739272  0.25134821  1
  Na  Na26  1  0.16447392  0.83053485  0.74842026  1
  Li  Li27  1  0.66957536  0.75156072  0.24865839  1
  Li  Li28  1  0.16602163  -0.00574764  0.24138100  1
  Li  Li29  1  -0.00354940  0.58105617  0.74652135  1
  Li  Li30  1  0.66659534  0.59235248  0.24708002  1
  Li  Li31  1  0.82768838  0.33623136  0.73941345  1
  Mg  Mg32  1  0.66856312  0.24923570  0.74670476  1
  Mg  Mg33  1  0.83394695  0.49697757  0.74410953  1
  Mg  Mg34  1  0.66816125  0.25060813  0.24769401  1
  Mg  Mg35  1  0.16766202  0.50000800  0.25168280  1
  Mg  Mg36  1  0.50132917  -0.00158152  0.25446657  1
  Mg  Mg37  1  0.33440031  0.24857261  0.25022182  1
  Mg  Mg38  1  0.66580234  0.75078258  0.75191946  1
  Mg  Mg39  1  0.49811825  -0.00130431  0.75389884  1
  Mg  Mg40  1  0.33273901  0.25128679  0.75231150  1
  Mg  Mg41  1  0.33609571  0.75162610  0.25207218  1
  Mg  Mg42  1  0.50519474  0.50296841  0.24918508  1
  Mg  Mg43  1  0.16342709  -0.00020992  0.75208964  1
  Mg  Mg44  1  0.82826826  0.50303013  0.24680102  1
  Mg  Mg45  1  0.50044541  0.50044967  0.74828091  1
  Mg  Mg46  1  0.83320304  0.00026313  0.75128143  1
  Mg  Mg47  1  -0.00097430  0.74472848  0.74843275  1
  Mg  Mg48  1  0.00215709  0.75197808  0.25139114  1
  Mg  Mg49  1  0.16419224  0.50049417  0.74855296  1
  Mg  Mg50  1  0.33142418  0.74875968  0.74935032  1
  Mg  Mg51  1  -0.00510086  0.25374314  0.74862253  1
  Mg  Mg52  1  -0.00068123  0.24940383  0.25192824  1
  Mg  Mg53  1  0.66692797  0.08378608  0.24857039  1
  Mg  Mg54  1  0.33703311  0.58428903  0.25160083  1
  Mg  Mg55  1  0.49958032  0.16523909  0.75055911  1
  Mg  Mg56  1  0.16660688  0.16443616  0.25206804  1
  Mg  Mg57  1  0.82870638  0.33479177  0.24739659  1
  Mg  Mg58  1  0.33076611  0.08086947  0.25591637  1
  Mg  Mg59  1  0.00070934  0.91380338  0.74901196  1
  Mg  Mg60  1  0.33716872  0.41712876  0.75215879  1
  Mg  Mg61  1  0.50037403  0.16444596  0.25031979  1
  Mg  Mg62  1  -0.00025911  0.08528468  0.75204606  1
  Mg  Mg63  1  0.16341796  0.16666430  0.75091913  1
  Mg  Mg64  1  0.33491668  0.91682444  0.25584869  1
  Mg  Mg65  1  0.66556393  0.58301811  0.74797013  1
  Mg  Mg66  1  0.83243799  0.16761665  0.74923258  1
  Mg  Mg67  1  0.66586462  0.41836775  0.24657494  1
  Mg  Mg68  1  0.00374425  0.08200890  0.25090886  1
  Mg  Mg69  1  0.83282548  0.83284300  0.24963625  1
  Mg  Mg70  1  0.16704262  0.66574701  0.25044573  1
  Mg  Mg71  1  0.16669499  0.33439396  0.25191681  1
  Mg  Mg72  1  0.33552178  0.58400245  0.75102649  1
  Mg  Mg73  1  0.32990372  0.91597142  0.75222241  1
  Mg  Mg74  1  -0.00284913  0.41654706  0.25038282  1
  Mg  Mg75  1  0.16412001  0.66429171  0.75027547  1
  Mg  Mg76  1  0.66796618  0.08239648  0.74962810  1
  Mg  Mg77  1  0.50512451  0.83369230  0.25392599  1
  Mg  Mg78  1  0.50828132  0.66872680  0.25028488  1
  Mg  Mg79  1  0.66875044  0.41266771  0.74377383  1
  Mg  Mg80  1  0.50260672  0.33534801  0.74924983  1
  Mg  Mg81  1  -0.00245329  0.58423631  0.24859081  1
  Mg  Mg82  1  0.16504183  0.33578339  0.74942159  1
  Mg  Mg83  1  0.83434228  0.83283205  0.75091009  1
  Mg  Mg84  1  0.82873905  0.66809486  0.24969811  1
  Mg  Mg85  1  0.49998108  0.83299194  0.75396673  1
  Mg  Mg86  1  -0.00563567  0.41944464  0.74424075  1
  Mg  Mg87  1  0.66799325  0.91525626  0.75490295  1
  Mg  Mg88  1  0.16823991  0.83628039  0.25093105  1
  Mg  Mg89  1  0.50170228  0.33466161  0.24879731  1
  Mg  Mg90  1  0.83101070  0.16522710  0.24897128  1
  Mg  Mg91  1  0.33572363  0.41611140  0.25115366  1
  Mg  Mg92  1  0.50157766  0.66329685  0.75116936  1
  Mg  Mg93  1  0.32908146  0.08407687  0.75038523  1
  Mg  Mg94  1  0.00457178  0.91743779  0.24761974  1
  Mg  Mg95  1  0.83254132  0.66311675  0.74628484  1
  Fe  Fe96  1  0.48017633  0.58796534  0.89188253  1
  Fe  Fe97  1  0.64626201  0.83862279  0.89258103  1
  Fe  Fe98  1  0.13561744  0.08053145  0.89026183  1
  Fe  Fe99  1  0.47997622  0.91614676  0.39493630  1
  Fe  Fe100  1  0.68709402  0.33447125  0.10665418  1
  Fe  Fe101  1  0.14265722  0.92052490  0.38869570  1
  Fe  Fe102  1  0.19520494  0.91243853  0.11001797  1
  Fe  Fe103  1  0.52501571  0.58705245  0.60777345  1
  Fe  Fe104  1  0.81269657  0.08470445  0.88805878  1
  Fe  Fe105  1  0.85703688  0.41976997  0.60214777  1
  Fe  Fe106  1  0.02342277  0.82422119  0.10794216  1
  Fe  Fe107  1  0.18922188  0.92206916  0.61137346  1
  Fe  Fe108  1  0.69133321  0.32464334  0.60340249  1
  Fe  Fe109  1  0.68880203  0.16023500  0.10859660  1
  Fe  Fe110  1  0.19003380  0.08687179  0.11495499  1
  Fe  Fe111  1  0.48123741  0.41459615  0.89078679  1
  Fe  Fe112  1  0.69261837  0.67238029  0.11000989  1
  Si  Si113  1  0.35813835  0.66754678  0.11688239  1
  Si  Si114  1  0.30649011  0.83268842  0.88522898  1
  Si  Si115  1  0.51998063  0.42245255  0.11283584  1
  Si  Si116  1  0.81016961  0.91411920  0.38680567  1
  Si  Si117  1  0.02149621  0.17312603  0.61429442  1
  Si  Si118  1  0.35726769  0.16665261  0.61491931  1
  Si  Si119  1  0.69098338  0.84095330  0.61608269  1
  Si  Si120  1  0.86053346  0.41696267  0.11363939  1
  Si  Si121  1  0.35844794  0.83406600  0.61503623  1
  Si  Si122  1  0.19036493  0.58140608  0.61451031  1
  Si  Si123  1  0.97073970  0.16790944  0.38823684  1
  Si  Si124  1  0.97385251  0.66585771  0.38566198  1
  Si  Si125  1  0.80676666  0.41355822  0.88017320  1
  Si  Si126  1  0.47070411  0.08588043  0.88542333  1
  Si  Si127  1  0.30827498  0.17418341  0.38939185  1
  Si  Si128  1  0.13935672  0.41943441  0.88365187  1
  Si  Si129  1  0.52087339  0.58556263  0.11432820  1
  Si  Si130  1  0.31057446  0.82518218  0.39265510  1
  Si  Si131  1  0.97153513  0.17622328  0.88822061  1
  Si  Si132  1  0.51918797  0.07745384  0.61529012  1
  Si  Si133  1  0.52208099  0.07635774  0.11490407  1
  Si  Si134  1  0.97318035  0.82443401  0.88396683  1
  Si  Si135  1  0.80784699  0.41873235  0.38443565  1
  Si  Si136  1  0.64417430  0.66514960  0.38633660  1
  Si  Si137  1  0.69483718  0.67524979  0.61106828  1
  Si  Si138  1  0.02702801  0.17604041  0.11528619  1
  Si  Si139  1  0.85387803  0.58939805  0.60960251  1
  Si  Si140  1  0.63990729  0.16003553  0.88370659  1
  Si  Si141  1  0.19429979  0.41421090  0.11646220  1
  Si  Si142  1  0.30622151  0.16946995  0.88670014  1
  Si  Si143  1  0.80670564  0.57768639  0.88191072  1
  Si  Si144  1  0.35246581  0.66930988  0.61229515  1
  Si  Si145  1  0.02517869  0.33873363  0.11718552  1
  Si  Si146  1  0.47759121  0.41712784  0.38533973  1
  Si  Si147  1  0.36015969  0.33267107  0.11571354  1
  Si  Si148  1  0.19701717  0.41523077  0.61486219  1
  Si  Si149  1  0.80564603  0.08249566  0.38677726  1
  Si  Si150  1  0.52319241  0.91496531  0.11863039  1
  Si  Si151  1  0.64228352  0.16874829  0.38617522  1
  Si  Si152  1  0.80910266  0.58260359  0.38492244  1
  Si  Si153  1  0.86879339  0.08761619  0.11435644  1
  Si  Si154  1  0.14016639  0.58325644  0.88279290  1
  Si  Si155  1  0.02598749  0.65570575  0.11337969  1
  Si  Si156  1  0.81874654  0.91847684  0.88798500  1
  Si  Si157  1  0.47924071  0.58244101  0.38622109  1
  Si  Si158  1  0.64597272  0.82900409  0.39196325  1
  Si  Si159  1  0.52155355  0.91453951  0.61790690  1
  Si  Si160  1  0.47451239  0.09022330  0.39082764  1
  Si  Si161  1  0.19583738  0.58006393  0.11610379  1
  Si  Si162  1  0.02514464  0.66381010  0.61368081  1
  Si  Si163  1  0.30916475  0.33892998  0.38750512  1
  Si  Si164  1  0.85923701  0.91608866  0.61392178  1
  Si  Si165  1  0.13895662  0.41599051  0.38731442  1
  Si  Si166  1  0.97175708  0.33350396  0.38636035  1
  Si  Si167  1  0.14014442  0.09331441  0.39074544  1
  Si  Si168  1  0.86091796  0.58080168  0.11329917  1
  Si  Si169  1  0.36345295  0.16632981  0.11506669  1
  Si  Si170  1  0.46893880  0.91842093  0.89023532  1
  Si  Si171  1  0.68679696  0.15417903  0.60898643  1
  Si  Si172  1  0.30425630  0.66745688  0.88810101  1
  Si  Si173  1  0.01809556  0.82814401  0.61161228  1
  Si  Si174  1  0.97676854  0.33902776  0.88131003  1
  Si  Si175  1  0.02954182  0.33791130  0.61068768  1
  Si  Si176  1  0.97328132  0.83228071  0.38881295  1
  Si  Si177  1  0.36496069  0.83173992  0.11533364  1
  Si  Si178  1  0.13641164  0.91197931  0.88692017  1
  Si  Si179  1  0.30881287  0.65907164  0.38715435  1
  Si  Si180  1  0.69279170  0.84054915  0.11342409  1
  Si  Si181  1  0.30377744  0.33600167  0.88690886  1
  Si  Si182  1  0.64266274  0.33396978  0.38396427  1
  Si  Si183  1  0.64602186  0.32505402  0.88416767  1
  Si  Si184  1  0.18709196  0.09029956  0.61227768  1
  Si  Si185  1  0.52286375  0.41454667  0.60734890  1
  Si  Si186  1  0.35959376  0.33159054  0.61469348  1
  Si  Si187  1  0.13933137  0.58162012  0.38672519  1
  Si  Si188  1  0.97146078  0.66012835  0.88108944  1
  Si  Si189  1  0.86186254  0.08141232  0.61387241  1
  Si  Si190  1  0.86274311  0.91716946  0.11241398  1
  Si  Si191  1  0.65174812  0.67031336  0.88762628  1
  O  O192  1  0.28409381  0.12102470  0.07921891  1
  O  O193  1  0.26900359  0.12608011  0.58402954  1
  O  O194  1  0.27546457  0.61601095  0.08796460  1
  O  O195  1  0.26635835  0.62062277  0.58402937  1
  O  O196  1  0.60035023  0.09488366  0.07858877  1
  O  O197  1  0.60272807  0.10130911  0.58466861  1
  O  O198  1  0.59740309  0.61143776  0.07907429  1
  O  O199  1  0.61705602  0.62736073  0.57377182  1
  O  O200  1  0.95114652  0.12043965  0.08502947  1
  O  O201  1  0.93546647  0.12675284  0.58380371  1
  O  O202  1  0.95400114  0.59309052  0.09061329  1
  O  O203  1  0.93992463  0.61873064  0.58310878  1
  O  O204  1  0.10961214  0.36686265  0.08853983  1
  O  O205  1  0.11900438  0.36125205  0.58514792  1
  O  O206  1  0.11615620  0.84628102  0.07082274  1
  O  O207  1  0.09143544  0.86666374  0.57992089  1
  O  O208  1  0.43666324  0.37068218  0.08598177  1
  O  O209  1  0.43734556  0.36303010  0.58280956  1
  O  O210  1  0.45362380  0.85259476  0.08888025  1
  O  O211  1  0.44731105  0.85711313  0.58916553  1
  O  O212  1  0.79031622  0.36163083  0.07901577  1
  O  O213  1  0.77629492  0.35664930  0.56026114  1
  O  O214  1  0.76834740  0.88352184  0.08307637  1
  O  O215  1  0.76541751  0.88250230  0.58470891  1
  O  O216  1  0.27250534  0.37713736  0.08747126  1
  O  O217  1  0.27715477  0.38169200  0.58462307  1
  O  O218  1  0.29490769  0.88578312  0.07741386  1
  O  O219  1  0.28590446  0.88786880  0.57984883  1
  O  O220  1  0.59824751  0.40095267  0.07829337  1
  O  O221  1  0.59377585  0.37972647  0.57005854  1
  O  O222  1  0.60973934  0.89455492  0.09114593  1
  O  O223  1  0.60596836  0.88881832  0.58927345  1
  O  O224  1  0.95191032  0.39752096  0.08963148  1
  O  O225  1  0.95996326  0.39238298  0.57354568  1
  O  O226  1  0.92888765  0.88063139  0.07112894  1
  O  O227  1  0.92638205  0.86781290  0.58129720  1
  O  O228  1  0.11006789  0.16047644  0.08448067  1
  O  O229  1  0.10487686  0.14361169  0.58625018  1
  O  O230  1  0.11082724  0.62455123  0.08592979  1
  O  O231  1  0.10201654  0.62287480  0.58366178  1
  O  O232  1  0.44690000  0.13569770  0.08786369  1
  O  O233  1  0.43737228  0.12964703  0.58652886  1
  O  O234  1  0.43708111  0.63607455  0.08570233  1
  O  O235  1  0.42562807  0.63976706  0.57453411  1
  O  O236  1  0.78707379  0.13094474  0.07704457  1
  O  O237  1  0.76820261  0.11400494  0.58325681  1
  O  O238  1  0.79004170  0.63511373  0.07755519  1
  O  O239  1  0.78189330  0.65207463  0.58413780  1
  O  O240  1  0.06259938  0.13436151  0.42207267  1
  O  O241  1  0.04625475  0.12316204  0.92308958  1
  O  O242  1  0.06480286  0.62496540  0.41579323  1
  O  O243  1  0.05588343  0.61171169  0.91069779  1
  O  O244  1  0.39749687  0.13420381  0.41957583  1
  O  O245  1  0.39316424  0.12405103  0.91445846  1
  O  O246  1  0.39712667  0.61499510  0.41503814  1
  O  O247  1  0.38186775  0.61960674  0.92399146  1
  O  O248  1  0.72821839  0.12276720  0.41790176  1
  O  O249  1  0.70921697  0.10221496  0.91632396  1
  O  O250  1  0.73187242  0.61973121  0.41577998  1
  O  O251  1  0.72731292  0.60963131  0.91224137  1
  O  O252  1  0.23102883  0.37870901  0.41643806  1
  O  O253  1  0.21690783  0.36444968  0.91281046  1
  O  O254  1  0.23567059  0.86221211  0.42402052  1
  O  O255  1  0.22031617  0.86049541  0.90942773  1
  O  O256  1  0.56263674  0.36989827  0.41367863  1
  O  O257  1  0.56902828  0.34862165  0.92003382  1
  O  O258  1  0.58006894  0.86739143  0.43308775  1
  O  O259  1  0.54849142  0.87093950  0.92441833  1
  O  O260  1  0.89700691  0.37706535  0.41481228  1
  O  O261  1  0.89497199  0.37064562  0.91028419  1
  O  O262  1  0.89755548  0.87221324  0.42138057  1
  O  O263  1  0.89096647  0.85507282  0.91166607  1
  O  O264  1  0.06462531  0.37105620  0.41583159  1
  O  O265  1  0.05594132  0.39304542  0.91327169  1
  O  O266  1  0.05841770  0.87086510  0.42521727  1
  O  O267  1  0.05853093  0.86934477  0.91414947  1
  O  O268  1  0.39713464  0.38265620  0.41550480  1
  O  O269  1  0.38020013  0.38576853  0.92130379  1
  O  O270  1  0.39860512  0.86143653  0.42845555  1
  O  O271  1  0.38413202  0.88714446  0.91698161  1
  O  O272  1  0.72857728  0.38012077  0.41179771  1
  O  O273  1  0.73186465  0.37331803  0.91147961  1
  O  O274  1  0.73639103  0.87259429  0.41921080  1
  O  O275  1  0.73599747  0.90227141  0.92068098  1
  O  O276  1  0.22775399  0.14157238  0.41902543  1
  O  O277  1  0.23223175  0.13667466  0.92081061  1
  O  O278  1  0.23278626  0.61534759  0.41611019  1
  O  O279  1  0.21815615  0.63688287  0.91443397  1
  O  O280  1  0.56202489  0.13774582  0.41758631  1
  O  O281  1  0.55211538  0.13762383  0.91110533  1
  O  O282  1  0.56494446  0.62664419  0.41753000  1
  O  O283  1  0.56988615  0.65182531  0.92039790  1
  O  O284  1  0.89494100  0.12548216  0.41796845  1
  O  O285  1  0.88551275  0.16132593  0.91695157  1
  O  O286  1  0.89974825  0.62256890  0.41664787  1
  O  O287  1  0.89412947  0.62199045  0.91196877  1
  O  O288  1  0.15806707  0.00097754  0.07497045  1
  O  O289  1  0.16466422  0.01491433  0.57579929  1
  O  O290  1  0.18341005  0.49676933  0.08775970  1
  O  O291  1  0.18146552  0.49772220  0.58503545  1
  O  O292  1  0.48842286  -0.00521893  0.08946902  1
  O  O293  1  0.49453347  -0.00459584  0.58810154  1
  O  O294  1  0.48786961  0.50377969  0.08967690  1
  O  O295  1  0.49841633  0.49355730  0.57541746  1
  O  O296  1  0.85754215  0.00313013  0.09070557  1
  O  O297  1  0.86287538  -0.00138082  0.58497917  1
  O  O298  1  0.83581388  0.49840559  0.08610796  1
  O  O299  1  0.82819927  0.51534634  0.57015910  1
  O  O300  1  -0.00431448  0.25909935  0.08952803  1
  O  O301  1  0.00730838  0.25460626  0.58311161  1
  O  O302  1  -0.00471126  0.72882402  0.07619769  1
  O  O303  1  0.01091275  0.74490796  0.58147174  1
  O  O304  1  0.35021208  0.25093733  0.08731863  1
  O  O305  1  0.34415005  0.24909650  0.58522531  1
  O  O306  1  0.33888108  0.74854005  0.08762621  1
  O  O307  1  0.33153648  0.75262282  0.58699216  1
  O  O308  1  0.65453186  0.24751985  0.06827390  1
  O  O309  1  0.66795972  0.22848689  0.56943221  1
  O  O310  1  0.67199838  0.76556332  0.07249291  1
  O  O311  1  0.67793165  0.75995560  0.58514663  1
  O  O312  1  0.15441220  0.01521080  0.42435408  1
  O  O313  1  0.15464475  -0.01252834  0.92537859  1
  O  O314  1  0.14009947  0.49852353  0.41617491  1
  O  O315  1  0.16141084  0.50117565  0.91347459  1
  O  O316  1  0.48549090  0.01313669  0.42739480  1
  O  O317  1  0.48147333  0.00375448  0.91478827  1
  O  O318  1  0.49133575  0.49906617  0.41476070  1
  O  O319  1  0.51016043  0.50082494  0.93252872  1
  O  O320  1  0.81388150  -0.00081812  0.41573662  1
  O  O321  1  0.86041700  -0.00530368  0.91479537  1
  O  O322  1  0.81842236  0.49999768  0.41555632  1
  O  O323  1  0.82113153  0.49550569  0.91220834  1
  O  O324  1  0.31874269  0.25780261  0.41874670  1
  O  O325  1  0.32172543  0.25287494  0.91384371  1
  O  O326  1  0.31568714  0.73894751  0.41884605  1
  O  O327  1  0.32014389  0.75085581  0.91621560  1
  O  O328  1  0.65733404  0.25227935  0.41451188  1
  O  O329  1  0.66967785  0.24149989  0.90872502  1
  O  O330  1  0.66023865  0.74471354  0.42152453  1
  O  O331  1  0.69014779  0.74705287  0.91603486  1
  O  O332  1  0.97320617  0.25187073  0.41691519  1
  O  O333  1  1.00202953  0.25950545  0.91244645  1
  O  O334  1  0.97680233  0.74693616  0.41653792  1
  O  O335  1  0.98782568  0.74149081  0.91219801  1
  O  O336  1  0.21404429  0.08640031  0.20634910  1
  O  O337  1  0.20906547  0.08903806  0.69292254  1
  O  O338  1  0.21230802  0.57996476  0.19688877  1
  O  O339  1  0.20953855  0.58108533  0.69449635  1
  O  O340  1  0.53978292  0.08287265  0.19596821  1
  O  O341  1  0.53886520  0.08084202  0.69551656  1
  O  O342  1  0.53763896  0.58503838  0.19459835  1
  O  O343  1  0.54620817  0.58440157  0.69898506  1
  O  O344  1  0.88605595  0.09540714  0.19414166  1
  O  O345  1  0.87935390  0.08278366  0.69377526  1
  O  O346  1  0.87745946  0.58233723  0.19456811  1
  O  O347  1  0.86889536  0.58382784  0.68938502  1
  O  O348  1  0.04528238  0.33734088  0.19801186  1
  O  O349  1  0.04524757  0.33564269  0.69137047  1
  O  O350  1  0.04792966  0.82789181  0.20013392  1
  O  O351  1  0.02946239  0.82950589  0.69121937  1
  O  O352  1  0.37601624  0.33431376  0.19655362  1
  O  O353  1  0.37474560  0.33109108  0.69472585  1
  O  O354  1  0.37793711  0.83039246  0.19609758  1
  O  O355  1  0.37675770  0.83432451  0.69592154  1
  O  O356  1  0.70936006  0.33483188  0.19970696  1
  O  O357  1  0.70534849  0.32943555  0.69402880  1
  O  O358  1  0.71845825  0.82904993  0.19160045  1
  O  O359  1  0.71183760  0.83676854  0.69605164  1
  O  O360  1  0.21146440  0.41612616  0.19726036  1
  O  O361  1  0.21304494  0.41583135  0.69500348  1
  O  O362  1  0.22038089  0.91114816  0.20121220  1
  O  O363  1  0.21443474  0.92650680  0.70114811  1
  O  O364  1  0.53955899  0.41721979  0.19404349  1
  O  O365  1  0.54284726  0.41439706  0.68862946  1
  O  O366  1  0.53465840  0.91714420  0.19769824  1
  O  O367  1  0.54004312  0.91745413  0.69794883  1
  O  O368  1  0.87753469  0.41686404  0.19502024  1
  O  O369  1  0.87719475  0.41833375  0.69279145  1
  O  O370  1  0.88633623  0.90633900  0.19155860  1
  O  O371  1  0.87563997  0.91592843  0.69419821  1
  O  O372  1  0.04492932  0.17384962  0.19662367  1
  O  O373  1  0.03946228  0.17060534  0.69426993  1
  O  O374  1  0.04710860  0.66072753  0.19465497  1
  O  O375  1  0.04475264  0.66622466  0.69293094  1
  O  O376  1  0.37785594  0.16829085  0.19635590  1
  O  O377  1  0.37499156  0.16652170  0.69531766  1
  O  O378  1  0.37554985  0.66519010  0.19733132  1
  O  O379  1  0.37399719  0.66616955  0.69285852  1
  O  O380  1  0.71092865  0.16936608  0.20075703  1
  O  O381  1  0.70490733  0.16143828  0.68917613  1
  O  O382  1  0.71347100  0.66727759  0.19839029  1
  O  O383  1  0.70858035  0.67023747  0.69186556  1
  O  O384  1  0.11828266  0.09746743  0.31167317  1
  O  O385  1  0.11983560  0.08487489  0.79810405  1
  O  O386  1  0.12335662  0.58076750  0.30635891  1
  O  O387  1  0.12698244  0.58084624  0.80354148  1
  O  O388  1  0.45570176  0.08924730  0.31023721  1
  O  O389  1  0.45307106  0.08427391  0.80455223  1
  O  O390  1  0.45848487  0.58209261  0.30609648  1
  O  O391  1  0.45420116  0.58238832  0.79944237  1
  O  O392  1  0.78736434  0.08956903  0.30820817  1
  O  O393  1  0.78840670  0.08311251  0.79588654  1
  O  O394  1  0.79699907  0.58232732  0.30596056  1
  O  O395  1  0.78925082  0.58097407  0.80153627  1
  O  O396  1  0.29042489  0.33708622  0.30721357  1
  O  O397  1  0.28802542  0.33508686  0.80556498  1
  O  O398  1  0.29443030  0.82676076  0.31158325  1
  O  O399  1  0.29992715  0.83058199  0.80624818  1
  O  O400  1  0.62157124  0.33385706  0.30411223  1
  O  O401  1  0.62352264  0.33005977  0.80331942  1
  O  O402  1  0.61882697  0.82800774  0.31361150  1
  O  O403  1  0.62120003  0.83428616  0.80033632  1
  O  O404  1  0.95705470  0.33495894  0.30621961  1
  O  O405  1  0.96351918  0.33701246  0.80204062  1
  O  O406  1  0.95882575  0.83151553  0.30878781  1
  O  O407  1  0.95623483  0.82882959  0.80338454  1
  O  O408  1  0.12345129  0.41681865  0.30700827  1
  O  O409  1  0.12335346  0.41816141  0.80335565  1
  O  O410  1  0.12315500  0.91655063  0.29952718  1
  O  O411  1  0.11453277  0.92163768  0.80749268  1
  O  O412  1  0.45667250  0.41631658  0.30517208  1
  O  O413  1  0.45719548  0.41606834  0.79758493  1
  O  O414  1  0.45724356  0.91534185  0.30411658  1
  O  O415  1  0.45458136  0.91747059  0.80879066  1
  O  O416  1  0.79221179  0.41852062  0.30459106  1
  O  O417  1  0.78699816  0.41872228  0.80115578  1
  O  O418  1  0.79883474  0.91067572  0.30906661  1
  O  O419  1  0.79423321  0.91569981  0.80593612  1
  O  O420  1  0.29174174  0.17352208  0.30938566  1
  O  O421  1  0.28883812  0.16860691  0.80540824  1
  O  O422  1  0.28984385  0.66035184  0.30686893  1
  O  O423  1  0.28887298  0.66550840  0.80708816  1
  O  O424  1  0.62207797  0.16989498  0.30629180  1
  O  O425  1  0.62054641  0.16217867  0.80236354  1
  O  O426  1  0.62159458  0.66363510  0.30799816  1
  O  O427  1  0.62876614  0.66704547  0.80596953  1
  O  O428  1  0.95519221  0.16922506  0.30831505  1
  O  O429  1  0.95690098  0.17012286  0.80642418  1
  O  O430  1  0.95972754  0.66380859  0.30573572  1
  O  O431  1  0.95154145  0.66438065  0.80173183  1
  F  F432  1  0.04248323  0.00406388  0.19852033  1
  F  F433  1  0.04118593  -0.00052399  0.69922364  1
  F  F434  1  0.04830447  0.49838762  0.20433260  1
  F  F435  1  0.04950313  0.49614386  0.69669678  1
  F  F436  1  0.37944361  0.00353115  0.20738448  1
  F  F437  1  0.37836661  0.00118479  0.70469105  1
  F  F438  1  0.37793271  0.49933454  0.20433895  1
  F  F439  1  0.37347215  0.49947923  0.69766283  1
  F  F440  1  0.70235273  0.01198569  0.19274450  1
  F  F441  1  0.70958238  -0.00437036  0.70095404  1
  F  F442  1  0.71219045  0.49714127  0.20002863  1
  F  F443  1  0.71005100  0.50085447  0.69780288  1
  F  F444  1  0.21355162  0.25419989  0.20562588  1
  F  F445  1  0.21217476  0.25121692  0.70250488  1
  F  F446  1  0.21544916  0.74548628  0.20579760  1
  F  F447  1  0.21523265  0.73800114  0.69866515  1
  F  F448  1  0.54277857  0.25042455  0.20306110  1
  F  F449  1  0.54193367  0.24716715  0.70100224  1
  F  F450  1  0.53952137  0.75129081  0.20186237  1
  F  F451  1  0.54392897  0.74938259  0.70215511  1
  F  F452  1  0.88043971  0.25342351  0.20488735  1
  F  F453  1  0.87980004  0.24348440  0.69709984  1
  F  F454  1  0.88407428  0.74630544  0.20391645  1
  F  F455  1  0.87626731  0.74935483  0.70007026  1
  F  F456  1  0.30317444  -0.00037830  0.31142248  1
  F  F457  1  0.28836442  0.00475908  0.80186964  1
  F  F458  1  0.28882343  0.49861012  0.30056656  1
  F  F459  1  0.28670166  0.49963808  0.79684224  1
  F  F460  1  0.61717918  0.01332513  0.30595921  1
  F  F461  1  0.61971496  0.00021681  0.79782573  1
  F  F462  1  0.61867375  0.49219477  0.30083167  1
  F  F463  1  0.62335608  0.49556466  0.79428519  1
  F  F464  1  0.96823448  0.00052906  0.30176345  1
  F  F465  1  0.95429793  -0.00118563  0.79514208  1
  F  F466  1  0.95539104  0.49972651  0.29800761  1
  F  F467  1  0.95341854  0.49959544  0.79608316  1
  F  F468  1  0.12172639  0.25542759  0.30149311  1
  F  F469  1  0.11993702  0.25267605  0.79559637  1
  F  F470  1  0.12365601  0.74299160  0.30162415  1
  F  F471  1  0.11459570  0.73892408  0.80112661  1
  F  F472  1  0.45450973  0.25300644  0.29906945  1
  F  F473  1  0.45358562  0.24935783  0.79691464  1
  F  F474  1  0.45403908  0.74506245  0.30108030  1
  F  F475  1  0.45357856  0.74766578  0.79655831  1
  F  F476  1  0.79096360  0.25335355  0.30181075  1
  F  F477  1  0.78428479  0.24407040  0.79565315  1
  F  F478  1  0.80124148  0.74905346  0.30421895  1
  F  F479  1  0.78893120  0.74817693  0.79503833  1
