# generated using pymatgen
data_K24Na3Li5Mg64Fe17Si79(O5F)48
_symmetry_space_group_name_H-M   'P 1'
_cell_length_a   16.11776522
_cell_length_b   18.60047231
_cell_length_c   20.56653020
_cell_angle_alpha   90.00330211
_cell_angle_beta   99.98955786
_cell_angle_gamma   89.98492769
_symmetry_Int_Tables_number   1
_chemical_formula_structural   K24Na3Li5Mg64Fe17Si79(O5F)48
_chemical_formula_sum   'K24 Na3 Li5 Mg64 Fe17 Si79 O240 F48'
_cell_volume   6072.32793860
_cell_formula_units_Z   1
loop_
 _symmetry_equiv_pos_site_id
 _symmetry_equiv_pos_as_xyz
  1  'x, y, z'
loop_
 _atom_site_type_symbol
 _atom_site_label
 _atom_site_symmetry_multiplicity
 _atom_site_fract_x
 _atom_site_fract_y
 _atom_site_fract_z
 _atom_site_occupancy
  K  K0  1  0.01491607  0.00257037  0.00143138  1
  K  K1  1  0.00077783  -0.00161443  0.50329002  1
  K  K2  1  -0.01123387  0.49881494  -0.00199659  1
  K  K3  1  0.00421388  0.50258220  0.50347029  1
  K  K4  1  0.34092791  0.00370250  -0.00653667  1
  K  K5  1  0.34999423  -0.00256236  0.50420963  1
  K  K6  1  0.35575400  0.50406900  -0.00743941  1
  K  K7  1  0.34356509  0.50691623  0.51054543  1
  K  K8  1  0.65608364  0.00019584  -0.00269132  1
  K  K9  1  0.65409882  -0.00323919  0.49454573  1
  K  K10  1  0.66290428  0.50509288  -0.00156621  1
  K  K11  1  0.65841076  0.49591721  0.50155614  1
  K  K12  1  0.17720772  0.23322994  -0.00927216  1
  K  K13  1  0.17076843  0.25104594  0.50638070  1
  K  K14  1  0.17606898  0.75703091  -0.00054592  1
  K  K15  1  0.17031282  0.76293770  0.50677886  1
  K  K16  1  0.48546562  0.24690000  -0.01488050  1
  K  K17  1  0.50786209  0.24424924  0.50722798  1
  K  K18  1  0.49428757  0.75691146  -0.00300846  1
  K  K19  1  0.49296909  0.75167826  0.50272672  1
  K  K20  1  0.82811664  0.25136725  -0.00264287  1
  K  K21  1  0.83314828  0.25075321  0.50453911  1
  K  K22  1  0.83381695  0.74364129  0.00080197  1
  K  K23  1  0.82673349  0.75467715  0.50040715  1
  Na  Na24  1  0.49941926  -0.00072133  0.25609665  1
  Na  Na25  1  0.17170571  0.83391472  0.74842230  1
  Na  Na26  1  0.83056009  0.66904404  0.74818508  1
  Li  Li27  1  0.66478113  0.24649237  0.74516225  1
  Li  Li28  1  0.33777680  0.75216088  0.25234346  1
  Li  Li29  1  0.83082223  0.33481457  0.25154598  1
  Li  Li30  1  0.33597288  0.91527582  0.75224164  1
  Li  Li31  1  0.17037538  0.16177754  0.74269233  1
  Mg  Mg32  1  -0.00448376  0.24937321  0.24489623  1
  Mg  Mg33  1  -0.00100895  0.74939319  0.24787996  1
  Mg  Mg34  1  0.00368210  0.24917092  0.74867750  1
  Mg  Mg35  1  0.66792772  0.75003194  0.75177380  1
  Mg  Mg36  1  0.33316525  0.24986480  0.25120875  1
  Mg  Mg37  1  0.33334267  0.75308302  0.75266013  1
  Mg  Mg38  1  0.83520576  0.00230392  0.74575873  1
  Mg  Mg39  1  0.83186807  -0.00067255  0.24904801  1
  Mg  Mg40  1  0.16672251  0.49966620  0.75328605  1
  Mg  Mg41  1  0.16319994  0.50070584  0.24954906  1
  Mg  Mg42  1  0.83124925  0.50054184  0.74845709  1
  Mg  Mg43  1  0.17038527  0.00095370  0.74784312  1
  Mg  Mg44  1  0.49853484  0.50065727  0.75173267  1
  Mg  Mg45  1  0.33085898  0.24664729  0.74998629  1
  Mg  Mg46  1  0.66957392  0.25178599  0.25478156  1
  Mg  Mg47  1  0.49913585  -0.00006267  0.75105471  1
  Mg  Mg48  1  0.66489281  0.74959528  0.25134646  1
  Mg  Mg49  1  0.00023442  0.75067163  0.75032624  1
  Mg  Mg50  1  0.16898045  0.00027246  0.24506828  1
  Mg  Mg51  1  0.83322055  0.49975374  0.24973256  1
  Mg  Mg52  1  0.50110231  0.49954504  0.25297977  1
  Mg  Mg53  1  -0.00340557  0.58454910  0.24848840  1
  Mg  Mg54  1  0.33357113  0.08240502  0.25004820  1
  Mg  Mg55  1  -0.00030253  0.08401754  0.24498045  1
  Mg  Mg56  1  0.33562695  0.58530782  0.75385583  1
  Mg  Mg57  1  0.49912791  0.83234859  0.25273880  1
  Mg  Mg58  1  0.00498404  0.08565831  0.74652309  1
  Mg  Mg59  1  0.00240403  0.91669019  0.74900704  1
  Mg  Mg60  1  0.16675590  0.16554872  0.24711796  1
  Mg  Mg61  1  0.67252823  0.41408768  0.25438425  1
  Mg  Mg62  1  0.33252475  0.58495921  0.25138340  1
  Mg  Mg63  1  0.49941357  0.66458090  0.75093007  1
  Mg  Mg64  1  0.66442822  0.58361024  0.74963333  1
  Mg  Mg65  1  -0.00147392  0.58458228  0.75092560  1
  Mg  Mg66  1  0.83195551  0.66413105  0.24849560  1
  Mg  Mg67  1  0.50145102  0.16624792  0.25326338  1
  Mg  Mg68  1  0.33276132  0.41673066  0.25235630  1
  Mg  Mg69  1  0.82968370  0.33154270  0.74706069  1
  Mg  Mg70  1  0.49945203  0.66582234  0.25341997  1
  Mg  Mg71  1  0.16757992  0.66719937  0.75454707  1
  Mg  Mg72  1  0.00053521  0.91661638  0.24654221  1
  Mg  Mg73  1  0.16316458  0.33422626  0.24866674  1
  Mg  Mg74  1  0.66376699  0.41281260  0.74843549  1
  Mg  Mg75  1  0.83168959  0.83403948  0.24844576  1
  Mg  Mg76  1  0.50056674  0.33259975  0.75136218  1
  Mg  Mg77  1  0.66653681  0.91657566  0.75073147  1
  Mg  Mg78  1  0.66555802  0.08353798  0.25080234  1
  Mg  Mg79  1  0.33587612  0.41499037  0.75451008  1
  Mg  Mg80  1  0.66962454  0.58324834  0.25242985  1
  Mg  Mg81  1  0.66744306  0.08661634  0.74620819  1
  Mg  Mg82  1  0.33139520  0.08293096  0.74815569  1
  Mg  Mg83  1  0.83356660  0.16784268  0.74645275  1
  Mg  Mg84  1  -0.00686126  0.41479927  0.24623482  1
  Mg  Mg85  1  0.83412374  0.83412099  0.74922772  1
  Mg  Mg86  1  0.49652806  0.83475992  0.75156369  1
  Mg  Mg87  1  0.50126053  0.16623662  0.75013087  1
  Mg  Mg88  1  0.16702899  0.66735093  0.24783553  1
  Mg  Mg89  1  0.50386586  0.33514811  0.25472955  1
  Mg  Mg90  1  0.16664600  0.33168605  0.75322440  1
  Mg  Mg91  1  0.16901854  0.83193701  0.24789294  1
  Mg  Mg92  1  0.66314597  0.91427211  0.25216271  1
  Mg  Mg93  1  0.83270474  0.16791962  0.24698849  1
  Mg  Mg94  1  -0.00211723  0.41620651  0.74846090  1
  Mg  Mg95  1  0.33528054  0.91181432  0.25033779  1
  Fe  Fe96  1  0.52466818  0.58519125  0.61001817  1
  Fe  Fe97  1  0.47017971  0.90946792  0.39655724  1
  Fe  Fe98  1  0.19836340  0.08276592  0.10778542  1
  Fe  Fe99  1  0.64610132  0.82655196  0.39404262  1
  Fe  Fe100  1  0.48123018  0.59163876  0.89466081  1
  Fe  Fe101  1  0.35094824  0.83712276  0.61194732  1
  Fe  Fe102  1  0.70025573  0.16453790  0.60854769  1
  Fe  Fe103  1  0.36192241  0.16267295  0.60983249  1
  Fe  Fe104  1  0.47925283  0.91267862  0.89268298  1
  Fe  Fe105  1  0.03334854  0.16892816  0.61047717  1
  Fe  Fe106  1  0.48088395  0.41497869  0.89284319  1
  Fe  Fe107  1  0.64864149  0.33694750  0.39424311  1
  Fe  Fe108  1  0.47291225  0.09045278  0.39405173  1
  Fe  Fe109  1  0.30532969  0.16271883  0.88771170  1
  Fe  Fe110  1  0.81571409  0.58136373  0.39090379  1
  Fe  Fe111  1  0.85608153  0.58303383  0.10723803  1
  Fe  Fe112  1  0.52064111  0.91986297  0.11045903  1
  Si  Si113  1  0.52193334  0.41444650  0.61312343  1
  Si  Si114  1  0.85732420  0.08249840  0.11207780  1
  Si  Si115  1  0.19351512  0.91029817  0.11138077  1
  Si  Si116  1  0.30219966  0.66844726  0.89168940  1
  Si  Si117  1  0.52763150  0.58290293  0.11726560  1
  Si  Si118  1  0.81307115  0.91946263  0.88458468  1
  Si  Si119  1  0.19488621  0.08069775  0.60784606  1
  Si  Si120  1  0.97308709  0.83042249  0.88604670  1
  Si  Si121  1  0.64632206  0.32848028  0.88619978  1
  Si  Si122  1  0.02601621  0.66695076  0.61547104  1
  Si  Si123  1  0.69192452  0.33648109  0.61189031  1
  Si  Si124  1  0.35769345  0.34105631  0.11639183  1
  Si  Si125  1  0.13423231  0.07761722  0.88651543  1
  Si  Si126  1  0.02304669  0.16642617  0.10900925  1
  Si  Si127  1  0.85872260  0.91430787  0.61401003  1
  Si  Si128  1  0.13653710  0.58344806  0.88806164  1
  Si  Si129  1  0.13637008  0.58302878  0.38427192  1
  Si  Si130  1  0.13695126  0.08355876  0.38155615  1
  Si  Si131  1  0.36436430  0.17632026  0.11325692  1
  Si  Si132  1  0.02865097  0.66689917  0.11105697  1
  Si  Si133  1  0.97645005  0.83820128  0.38187477  1
  Si  Si134  1  0.65280454  0.67097116  0.88898655  1
  Si  Si135  1  0.52772728  0.41713575  0.11702148  1
  Si  Si136  1  0.86052470  0.91591970  0.11261206  1
  Si  Si137  1  0.97228604  0.16740989  0.88316641  1
  Si  Si138  1  0.13456344  0.41823587  0.88624994  1
  Si  Si139  1  0.13227624  0.41764451  0.38329189  1
  Si  Si140  1  0.19136364  0.41824904  0.61835347  1
  Si  Si141  1  0.85419811  0.41396647  0.11067671  1
  Si  Si142  1  0.47024490  0.58482016  0.38655586  1
  Si  Si143  1  0.35422016  0.33311536  0.61488667  1
  Si  Si144  1  0.69229273  0.16551822  0.11391446  1
  Si  Si145  1  0.19243793  0.58261986  0.11449008  1
  Si  Si146  1  0.69307516  0.83816873  0.11217476  1
  Si  Si147  1  0.29831960  0.17273431  0.38762566  1
  Si  Si148  1  0.02233839  0.83240495  0.61430078  1
  Si  Si149  1  0.65099772  0.16727334  0.38926584  1
  Si  Si150  1  0.02227150  0.33857427  0.61226874  1
  Si  Si151  1  0.97305664  0.66540818  0.88523898  1
  Si  Si152  1  0.64344677  0.65606741  0.38967470  1
  Si  Si153  1  0.52562305  0.09229611  0.11459451  1
  Si  Si154  1  0.65224180  0.83278738  0.88766003  1
  Si  Si155  1  0.85691193  0.42255327  0.61316647  1
  Si  Si156  1  0.30097834  0.66300201  0.38429543  1
  Si  Si157  1  0.35757701  0.82426349  0.11407305  1
  Si  Si158  1  0.81095799  0.08204661  0.38232143  1
  Si  Si159  1  0.02225739  0.33260710  0.11171206  1
  Si  Si160  1  0.69212850  0.66867885  0.61248973  1
  Si  Si161  1  0.13506446  0.91577742  0.88547875  1
  Si  Si162  1  0.13818090  0.92005212  0.38067020  1
  Si  Si163  1  0.53254935  0.07907363  0.61292818  1
  Si  Si164  1  0.80785809  0.41439475  0.88408254  1
  Si  Si165  1  0.86814953  0.07933914  0.60902265  1
  Si  Si166  1  0.48427469  0.08526735  0.89089630  1
  Si  Si167  1  0.18747138  0.41806699  0.11430465  1
  Si  Si168  1  0.64750986  0.16472631  0.88323996  1
  Si  Si169  1  0.69053773  0.33021610  0.11613987  1
  Si  Si170  1  0.29998696  0.33879671  0.38531804  1
  Si  Si171  1  0.80810913  0.57830518  0.88422390  1
  Si  Si172  1  0.81139522  0.08286617  0.88369876  1
  Si  Si173  1  0.68744934  0.67255541  0.11246767  1
  Si  Si174  1  0.97834690  0.67513710  0.38681466  1
  Si  Si175  1  0.97348843  0.16379651  0.38133240  1
  Si  Si176  1  0.81946859  0.41743508  0.38806192  1
  Si  Si177  1  0.97427444  0.32696205  0.38112286  1
  Si  Si178  1  0.29601481  0.82946670  0.38628002  1
  Si  Si179  1  0.18359099  0.92252425  0.60984391  1
  Si  Si180  1  0.30230704  0.33652138  0.89147244  1
  Si  Si181  1  0.02581803  0.83279411  0.11324478  1
  Si  Si182  1  0.18988055  0.58244703  0.61908745  1
  Si  Si183  1  0.46985229  0.41785380  0.38965890  1
  Si  Si184  1  0.97200917  0.33246977  0.88289945  1
  Si  Si185  1  0.35055239  0.66771509  0.61340640  1
  Si  Si186  1  0.69333095  0.83447411  0.61559913  1
  Si  Si187  1  0.30438267  0.83386647  0.89013803  1
  Si  Si188  1  0.52727947  0.91361317  0.61520328  1
  Si  Si189  1  0.86071233  0.58582682  0.61516860  1
  Si  Si190  1  0.35996976  0.65897080  0.11673619  1
  Si  Si191  1  0.81208028  0.91804659  0.38588491  1
  O  O192  1  0.28704259  0.12845405  0.07554207  1
  O  O193  1  0.28071358  0.09315289  0.57731763  1
  O  O194  1  0.27611990  0.60955342  0.08654137  1
  O  O195  1  0.27003123  0.61072185  0.58840238  1
  O  O196  1  0.60908542  0.11931467  0.08260113  1
  O  O197  1  0.61690643  0.09551168  0.58207109  1
  O  O198  1  0.60016764  0.62603461  0.08666458  1
  O  O199  1  0.61664674  0.62047949  0.57277382  1
  O  O200  1  0.93368477  0.12210528  0.08210073  1
  O  O201  1  0.95346431  0.09710518  0.58030109  1
  O  O202  1  0.95127595  0.61930079  0.07384302  1
  O  O203  1  0.94189768  0.61920511  0.58536914  1
  O  O204  1  0.10247579  0.37098248  0.08428637  1
  O  O205  1  0.10585586  0.37356647  0.58604816  1
  O  O206  1  0.10386313  0.86658752  0.08286738  1
  O  O207  1  0.09852929  0.86956490  0.58327061  1
  O  O208  1  0.43511557  0.38100530  0.08765988  1
  O  O209  1  0.43787726  0.36399018  0.58685325  1
  O  O210  1  0.42992808  0.85741404  0.07787553  1
  O  O211  1  0.45175073  0.86195069  0.58160413  1
  O  O212  1  0.76984348  0.36373454  0.08498534  1
  O  O213  1  0.77159105  0.37747714  0.58354334  1
  O  O214  1  0.78058262  0.86434825  0.08405423  1
  O  O215  1  0.77489818  0.86605332  0.58642946  1
  O  O216  1  0.26999815  0.38578267  0.08733921  1
  O  O217  1  0.27324584  0.38930660  0.58832036  1
  O  O218  1  0.26541143  0.86221768  0.08407209  1
  O  O219  1  0.25703254  0.89262765  0.57191360  1
  O  O220  1  0.60229628  0.37445907  0.08709993  1
  O  O221  1  0.60474043  0.38243472  0.58504612  1
  O  O222  1  0.62039641  0.89196525  0.07832655  1
  O  O223  1  0.61390442  0.88665087  0.58785487  1
  O  O224  1  0.93517405  0.37553885  0.08218508  1
  O  O225  1  0.94098196  0.39315191  0.58565025  1
  O  O226  1  0.94188415  0.88169379  0.08432656  1
  O  O227  1  0.93493313  0.87559563  0.58219681  1
  O  O228  1  0.09519027  0.13170329  0.07387634  1
  O  O229  1  0.12846222  0.14287333  0.57513658  1
  O  O230  1  0.11515144  0.63754231  0.08556890  1
  O  O231  1  0.10557806  0.62990652  0.58727458  1
  O  O232  1  0.45296117  0.15407891  0.08911898  1
  O  O233  1  0.45998725  0.13459863  0.57904491  1
  O  O234  1  0.43706406  0.62036478  0.08626702  1
  O  O235  1  0.42672322  0.63791087  0.57792999  1
  O  O236  1  0.77119166  0.12789191  0.08364190  1
  O  O237  1  0.79464997  0.13264636  0.57374426  1
  O  O238  1  0.76107899  0.64041258  0.07625576  1
  O  O239  1  0.78174989  0.64016215  0.59028430  1
  O  O240  1  0.05160346  0.10900707  0.40961484  1
  O  O241  1  0.05545941  0.12071701  0.91435479  1
  O  O242  1  0.06335912  0.62599194  0.41478833  1
  O  O243  1  0.06011168  0.62319032  0.91874767  1
  O  O244  1  0.37810127  0.13062060  0.42612974  1
  O  O245  1  0.41004828  0.12185206  0.92421291  1
  O  O246  1  0.39042666  0.62246194  0.41412681  1
  O  O247  1  0.38791525  0.63139517  0.92860095  1
  O  O248  1  0.72828643  0.10687858  0.41181601  1
  O  O249  1  0.73070120  0.11407462  0.91367321  1
  O  O250  1  0.71124686  0.59370832  0.41830276  1
  O  O251  1  0.73378815  0.61652084  0.91705962  1
  O  O252  1  0.22176033  0.37855599  0.41344764  1
  O  O253  1  0.22020940  0.37636162  0.91760935  1
  O  O254  1  0.20961005  0.86186595  0.41091642  1
  O  O255  1  0.22422126  0.87652236  0.91561820  1
  O  O256  1  0.54965265  0.37175811  0.42446292  1
  O  O257  1  0.57240414  0.35221518  0.92559760  1
  O  O258  1  0.55890489  0.85134293  0.43576196  1
  O  O259  1  0.57618213  0.85465322  0.92480945  1
  O  O260  1  0.89236833  0.35321460  0.41101471  1
  O  O261  1  0.89423464  0.36880846  0.91419074  1
  O  O262  1  0.89568383  0.86635368  0.41274019  1
  O  O263  1  0.89746497  0.87200389  0.91575211  1
  O  O264  1  0.05711165  0.37668013  0.41298771  1
  O  O265  1  0.05567034  0.37977106  0.91457599  1
  O  O266  1  0.05226512  0.89562523  0.40831826  1
  O  O267  1  0.06285971  0.86847925  0.91690909  1
  O  O268  1  0.38381511  0.38606443  0.41420298  1
  O  O269  1  0.38418138  0.38237370  0.92519536  1
  O  O270  1  0.37364507  0.87218250  0.42763748  1
  O  O271  1  0.38899719  0.87217952  0.92856810  1
  O  O272  1  0.73918461  0.39962589  0.42357221  1
  O  O273  1  0.73218120  0.37731557  0.91565156  1
  O  O274  1  0.73865473  0.89114287  0.42322196  1
  O  O275  1  0.73366443  0.88707608  0.91490056  1
  O  O276  1  0.21123796  0.14037655  0.41044493  1
  O  O277  1  0.21986900  0.11439308  0.92370579  1
  O  O278  1  0.22816309  0.61754165  0.41515842  1
  O  O279  1  0.22331741  0.62524504  0.91877147  1
  O  O280  1  0.57127105  0.14635111  0.42319749  1
  O  O281  1  0.57022964  0.13583115  0.91817916  1
  O  O282  1  0.55335066  0.63227684  0.41446164  1
  O  O283  1  0.57619369  0.65104644  0.92641550  1
  O  O284  1  0.89073753  0.13610194  0.41051564  1
  O  O285  1  0.89298926  0.13344343  0.91458116  1
  O  O286  1  0.90115172  0.65141152  0.42213698  1
  O  O287  1  0.89590967  0.62308538  0.91229441  1
  O  O288  1  0.18351306  -0.01211337  0.07584083  1
  O  O289  1  0.15307938  0.00222960  0.57842577  1
  O  O290  1  0.16923100  0.50056432  0.08580480  1
  O  O291  1  0.17084958  0.50052248  0.58964629  1
  O  O292  1  0.49477352  0.01601447  0.08212130  1
  O  O293  1  0.50536155  -0.00424629  0.58885752  1
  O  O294  1  0.52453199  0.49991125  0.08848328  1
  O  O295  1  0.50153708  0.49127170  0.57690048  1
  O  O296  1  0.84689870  -0.00100142  0.08341170  1
  O  O297  1  0.84260391  -0.00500305  0.58402200  1
  O  O298  1  0.83818204  0.48952953  0.07161521  1
  O  O299  1  0.84140185  0.50494984  0.58310025  1
  O  O300  1  0.00831366  0.25071287  0.08251537  1
  O  O301  1  0.00090133  0.26271818  0.57590113  1
  O  O302  1  0.01172139  0.75070161  0.08413085  1
  O  O303  1  0.01284972  0.74868879  0.58483138  1
  O  O304  1  0.34611179  0.26028161  0.08596392  1
  O  O305  1  0.32877385  0.25737443  0.57878041  1
  O  O306  1  0.34261225  0.73953300  0.08639711  1
  O  O307  1  0.31870987  0.74384499  0.58029203  1
  O  O308  1  0.68068863  0.24809989  0.08496499  1
  O  O309  1  0.67878371  0.25946682  0.57584194  1
  O  O310  1  0.67072302  0.75554457  0.08494904  1
  O  O311  1  0.67979789  0.75287805  0.58550492  1
  O  O312  1  0.16058805  0.00172771  0.40916905  1
  O  O313  1  0.13097540  -0.00431529  0.91894964  1
  O  O314  1  0.13600897  0.50004407  0.41230835  1
  O  O315  1  0.13989794  0.50063315  0.91681999  1
  O  O316  1  0.49260352  0.00081484  0.43139449  1
  O  O317  1  0.50542969  0.00662412  0.92443933  1
  O  O318  1  0.47828286  0.50237896  0.41623638  1
  O  O319  1  0.50510525  0.50298381  0.93486588  1
  O  O320  1  0.84093139  0.00126551  0.40937572  1
  O  O321  1  0.83149609  0.00141368  0.91448325  1
  O  O322  1  0.86449522  0.49186911  0.41805813  1
  O  O323  1  0.82344676  0.49624207  0.91511826  1
  O  O324  1  0.30383790  0.25747981  0.41457736  1
  O  O325  1  0.30694346  0.25686321  0.92369199  1
  O  O326  1  0.30024515  0.74447598  0.41299863  1
  O  O327  1  0.29692609  0.75077984  0.92036415  1
  O  O328  1  0.68855437  0.24428991  0.41819927  1
  O  O329  1  0.67534859  0.24572616  0.91120688  1
  O  O330  1  0.67712905  0.73173763  0.42292010  1
  O  O331  1  0.68854664  0.75200561  0.91240928  1
  O  O332  1  0.99799050  0.24496992  0.40945720  1
  O  O333  1  0.98477250  0.25034121  0.91270989  1
  O  O334  1  1.00599092  0.75847571  0.41114915  1
  O  O335  1  0.97570824  0.74769343  0.91587742  1
  O  O336  1  0.21082680  0.08534700  0.19940294  1
  O  O337  1  0.20997458  0.07997505  0.68834827  1
  O  O338  1  0.20808753  0.58127948  0.19492006  1
  O  O339  1  0.20644907  0.58240104  0.69937583  1
  O  O340  1  0.54991680  0.09362451  0.19435973  1
  O  O341  1  0.54668452  0.08209708  0.69430876  1
  O  O342  1  0.54382572  0.58192358  0.19759216  1
  O  O343  1  0.54480638  0.58290404  0.70145616  1
  O  O344  1  0.87663582  0.08167746  0.19229611  1
  O  O345  1  0.88012964  0.08234317  0.69075997  1
  O  O346  1  0.87982252  0.58381672  0.19863199  1
  O  O347  1  0.88248656  0.57740088  0.69420723  1
  O  O348  1  0.04184703  0.33365364  0.19212241  1
  O  O349  1  0.04129752  0.33741782  0.69320731  1
  O  O350  1  0.04188067  0.83286340  0.19363517  1
  O  O351  1  0.03431709  0.83216079  0.69347274  1
  O  O352  1  0.37500511  0.33851086  0.19692958  1
  O  O353  1  0.37251568  0.33334799  0.69557017  1
  O  O354  1  0.37527931  0.82920286  0.19377380  1
  O  O355  1  0.37773731  0.83067489  0.70155963  1
  O  O356  1  0.70756705  0.33206162  0.19553335  1
  O  O357  1  0.71251991  0.33740644  0.69216179  1
  O  O358  1  0.71413761  0.83551453  0.19296607  1
  O  O359  1  0.71196626  0.83392954  0.69610101  1
  O  O360  1  0.20566845  0.41757410  0.19489569  1
  O  O361  1  0.20804284  0.41767978  0.69866361  1
  O  O362  1  0.20700671  0.91319350  0.19212007  1
  O  O363  1  0.20611195  0.92402211  0.68866663  1
  O  O364  1  0.54229718  0.41735545  0.19707656  1
  O  O365  1  0.54230806  0.41614273  0.69378103  1
  O  O366  1  0.54764502  0.90918829  0.19925578  1
  O  O367  1  0.54763799  0.91377973  0.69594313  1
  O  O368  1  0.87650727  0.41922736  0.19058318  1
  O  O369  1  0.87556404  0.41895061  0.69380217  1
  O  O370  1  0.87807879  0.91724759  0.19307759  1
  O  O371  1  0.87807227  0.91611395  0.69452430  1
  O  O372  1  0.04188249  0.16615614  0.19001720  1
  O  O373  1  0.04673882  0.16965561  0.70123053  1
  O  O374  1  0.04303909  0.66586166  0.19210159  1
  O  O375  1  0.04277764  0.66584263  0.69556970  1
  O  O376  1  0.37467011  0.17321541  0.19372368  1
  O  O377  1  0.38131120  0.16663159  0.70102102  1
  O  O378  1  0.37883954  0.65799815  0.19613927  1
  O  O379  1  0.37300608  0.66594257  0.69468319  1
  O  O380  1  0.71189459  0.16590914  0.19405309  1
  O  O381  1  0.71714955  0.16526800  0.69915121  1
  O  O382  1  0.70808329  0.66884199  0.19334269  1
  O  O383  1  0.69869000  0.66723870  0.69205458  1
  O  O384  1  0.11871454  0.08346428  0.30099190  1
  O  O385  1  0.11894535  0.07640322  0.80709991  1
  O  O386  1  0.11997268  0.58348539  0.30357895  1
  O  O387  1  0.12043952  0.58231696  0.80767264  1
  O  O388  1  0.44719608  0.09491604  0.30285406  1
  O  O389  1  0.46490046  0.08429707  0.81007481  1
  O  O390  1  0.45373711  0.58118645  0.30604148  1
  O  O391  1  0.45460957  0.58420375  0.80282671  1
  O  O392  1  0.79426855  0.08387212  0.30169220  1
  O  O393  1  0.79535132  0.08204454  0.80393090  1
  O  O394  1  0.79025296  0.58386663  0.29893449  1
  O  O395  1  0.78619175  0.57546985  0.80516849  1
  O  O396  1  0.28427755  0.33712894  0.30448948  1
  O  O397  1  0.28694202  0.33690749  0.81009700  1
  O  O398  1  0.28249487  0.83288145  0.30615269  1
  O  O399  1  0.29737246  0.82920680  0.81190159  1
  O  O400  1  0.62352587  0.33560818  0.30232978  1
  O  O401  1  0.62397908  0.33578380  0.80662486  1
  O  O402  1  0.62554548  0.82935363  0.30183973  1
  O  O403  1  0.62921169  0.83461509  0.80703379  1
  O  O404  1  0.96113290  0.33053730  0.30132158  1
  O  O405  1  0.95433463  0.33545167  0.80295173  1
  O  O406  1  0.95684829  0.83532092  0.30123411  1
  O  O407  1  0.95618169  0.83281034  0.80612694  1
  O  O408  1  0.11853226  0.41676004  0.30278783  1
  O  O409  1  0.11855024  0.41951784  0.80591219  1
  O  O410  1  0.12073376  0.91844942  0.30001479  1
  O  O411  1  0.11600943  0.92041040  0.80661304  1
  O  O412  1  0.45432938  0.41783562  0.30829353  1
  O  O413  1  0.45653426  0.41663841  0.80050694  1
  O  O414  1  0.44785525  0.90514552  0.30579733  1
  O  O415  1  0.46426066  0.91725132  0.80318451  1
  O  O416  1  0.79413726  0.41922771  0.30714230  1
  O  O417  1  0.79100006  0.41528493  0.80400394  1
  O  O418  1  0.79427948  0.91577428  0.30467761  1
  O  O419  1  0.79498662  0.91892870  0.80443618  1
  O  O420  1  0.28477005  0.17261467  0.30656207  1
  O  O421  1  0.28608983  0.16581500  0.79798328  1
  O  O422  1  0.28288063  0.65993860  0.30468042  1
  O  O423  1  0.28787795  0.66471195  0.81093447  1
  O  O424  1  0.62847801  0.16714807  0.30747044  1
  O  O425  1  0.62464018  0.16224197  0.80416754  1
  O  O426  1  0.62380714  0.66140086  0.30780287  1
  O  O427  1  0.63005050  0.66689970  0.80852641  1
  O  O428  1  0.95685863  0.16456805  0.30069652  1
  O  O429  1  0.95473905  0.16683643  0.80341616  1
  O  O430  1  0.95990892  0.67011723  0.30580718  1
  O  O431  1  0.96355328  0.66629404  0.80635067  1
  F  F432  1  0.04375360  -0.00022717  0.19655473  1
  F  F433  1  0.04406658  -0.00135404  0.70045822  1
  F  F434  1  0.04474903  0.49958936  0.19974104  1
  F  F435  1  0.04546977  0.50118793  0.70319140  1
  F  F436  1  0.36173841  -0.00188866  0.19838170  1
  F  F437  1  0.38396355  0.00579979  0.70247018  1
  F  F438  1  0.37719818  0.49867090  0.20401650  1
  F  F439  1  0.37233215  0.50020133  0.70246289  1
  F  F440  1  0.71468929  0.00025392  0.20046332  1
  F  F441  1  0.71501964  -0.00203489  0.70194979  1
  F  F442  1  0.70976009  0.49749272  0.20132622  1
  F  F443  1  0.71128684  0.49875284  0.70076972  1
  F  F444  1  0.21077239  0.25353217  0.20064822  1
  F  F445  1  0.21147795  0.25938387  0.70109777  1
  F  F446  1  0.20349501  0.74791462  0.19827354  1
  F  F447  1  0.21502507  0.73740664  0.70141314  1
  F  F448  1  0.54521500  0.25160319  0.20543501  1
  F  F449  1  0.54159369  0.25108125  0.70311646  1
  F  F450  1  0.54515200  0.74316549  0.20221897  1
  F  F451  1  0.54681971  0.74988085  0.70664826  1
  F  F452  1  0.88119160  0.24236631  0.19392095  1
  F  F453  1  0.88176861  0.25247198  0.69968739  1
  F  F454  1  0.87952275  0.75053475  0.20017505  1
  F  F455  1  0.88327367  0.75831927  0.69867708  1
  F  F456  1  0.28360084  -0.00259776  0.29890441  1
  F  F457  1  0.28557483  0.00451258  0.79953178  1
  F  F458  1  0.28386422  0.49930443  0.29827685  1
  F  F459  1  0.28594836  0.50065643  0.80113895  1
  F  F460  1  0.63905920  0.00101262  0.30271832  1
  F  F461  1  0.62680732  0.00101535  0.79706772  1
  F  F462  1  0.62086850  0.49883087  0.29809328  1
  F  F463  1  0.62394854  0.49696445  0.79855506  1
  F  F464  1  0.95565096  0.00023947  0.29367141  1
  F  F465  1  0.95364069  0.00047762  0.79575787  1
  F  F466  1  0.95895287  0.49828828  0.29696638  1
  F  F467  1  0.95395459  0.49925454  0.79913902  1
  F  F468  1  0.11760185  0.24983158  0.29340584  1
  F  F469  1  0.11375481  0.26399693  0.80658344  1
  F  F470  1  0.11850813  0.74918650  0.29605391  1
  F  F471  1  0.11530709  0.74169911  0.80291481  1
  F  F472  1  0.45164963  0.25513471  0.29905740  1
  F  F473  1  0.45461737  0.25209993  0.80103694  1
  F  F474  1  0.45638926  0.74507125  0.29955308  1
  F  F475  1  0.45686083  0.74603600  0.80070895  1
  F  F476  1  0.79154355  0.24660719  0.29616498  1
  F  F477  1  0.80042825  0.25108062  0.80066759  1
  F  F478  1  0.79025069  0.75013622  0.29529113  1
  F  F479  1  0.78690946  0.75981116  0.80138264  1
