# generated using pymatgen
data_K24Na3Li5Mg64Fe17Si79(O5F)48
_symmetry_space_group_name_H-M   'P 1'
_cell_length_a   16.09072267
_cell_length_b   18.59463553
_cell_length_c   20.55708963
_cell_angle_alpha   90.01403969
_cell_angle_beta   100.01541183
_cell_angle_gamma   89.97262993
_symmetry_Int_Tables_number   1
_chemical_formula_structural   K24Na3Li5Mg64Fe17Si79(O5F)48
_chemical_formula_sum   'K24 Na3 Li5 Mg64 Fe17 Si79 O240 F48'
_cell_volume   6056.97300789
_cell_formula_units_Z   1
loop_
 _symmetry_equiv_pos_site_id
 _symmetry_equiv_pos_as_xyz
  1  'x, y, z'
loop_
 _atom_site_type_symbol
 _atom_site_label
 _atom_site_symmetry_multiplicity
 _atom_site_fract_x
 _atom_site_fract_y
 _atom_site_fract_z
 _atom_site_occupancy
  K  K0  1  -0.00361296  0.00380210  0.00718535  1
  K  K1  1  0.00627864  0.01152844  0.48639494  1
  K  K2  1  0.01232117  0.49854912  0.00799208  1
  K  K3  1  -0.00187788  0.49112467  0.49099935  1
  K  K4  1  0.32474611  0.00154919  0.00371322  1
  K  K5  1  0.31918358  -0.00034961  0.49101423  1
  K  K6  1  0.33008491  0.50369735  -0.00136698  1
  K  K7  1  0.33241595  0.48854613  0.50293890  1
  K  K8  1  0.68887691  0.00318935  0.00954350  1
  K  K9  1  0.67598642  0.00103391  0.49430188  1
  K  K10  1  0.67222802  0.49620948  0.00081120  1
  K  K11  1  0.67554513  0.48677046  0.49933277  1
  K  K12  1  0.16091439  0.25537074  -0.00091127  1
  K  K13  1  0.15957810  0.25345431  0.49156427  1
  K  K14  1  0.16805205  0.74338240  0.00590672  1
  K  K15  1  0.16247272  0.74551784  0.49165098  1
  K  K16  1  0.50251416  0.25832056  0.00236605  1
  K  K17  1  0.50917745  0.26317007  0.49783143  1
  K  K18  1  0.49973827  0.74709116  0.00349939  1
  K  K19  1  0.50072028  0.75172006  0.49622939  1
  K  K20  1  0.84023055  0.24374938  0.01230264  1
  K  K21  1  0.83948446  0.25800035  0.49303755  1
  K  K22  1  0.83416430  0.75546870  0.00438216  1
  K  K23  1  0.83079533  0.74226780  0.48998491  1
  Na  Na24  1  0.49216871  0.49720674  0.73956985  1
  Na  Na25  1  0.49856316  0.83178118  0.75328969  1
  Na  Na26  1  -0.00032092  0.57375464  0.24798911  1
  Li  Li27  1  0.00164635  0.25392872  0.24739521  1
  Li  Li28  1  0.66655178  0.74854586  0.24389264  1
  Li  Li29  1  0.33132595  0.41552990  0.74748746  1
  Li  Li30  1  0.17278535  0.33735479  0.75114283  1
  Li  Li31  1  0.00047977  0.41409305  0.24706809  1
  Mg  Mg32  1  0.00269239  0.25304389  0.75062443  1
  Mg  Mg33  1  0.50071661  -0.00029640  0.25219083  1
  Mg  Mg34  1  0.49781535  -0.00038269  0.75110669  1
  Mg  Mg35  1  0.83279255  0.49880347  0.74450167  1
  Mg  Mg36  1  0.16888172  0.49693359  0.75339734  1
  Mg  Mg37  1  0.50115541  0.50083569  0.24498124  1
  Mg  Mg38  1  0.83491673  0.49956624  0.24525224  1
  Mg  Mg39  1  0.33300980  0.24920524  0.25382652  1
  Mg  Mg40  1  0.83570653  0.00058941  0.25136974  1
  Mg  Mg41  1  0.66284937  0.75093635  0.75084144  1
  Mg  Mg42  1  0.67007072  0.24983259  0.24539591  1
  Mg  Mg43  1  0.33069646  0.25426246  0.74933090  1
  Mg  Mg44  1  0.66505169  0.25340774  0.74380872  1
  Mg  Mg45  1  -0.00072733  0.74827893  0.75388848  1
  Mg  Mg46  1  0.33520626  0.74950746  0.25271608  1
  Mg  Mg47  1  0.00152225  0.74611657  0.25233558  1
  Mg  Mg48  1  0.16476617  0.00134958  0.75546658  1
  Mg  Mg49  1  0.16457288  0.00076929  0.25419150  1
  Mg  Mg50  1  0.16695288  0.49617190  0.25054612  1
  Mg  Mg51  1  0.33301620  0.74879028  0.75166723  1
  Mg  Mg52  1  0.83174838  0.00004115  0.75464200  1
  Mg  Mg53  1  0.83249630  0.33585582  0.74433272  1
  Mg  Mg54  1  0.00015276  0.91511499  0.75629551  1
  Mg  Mg55  1  0.16638995  0.16856861  0.75591779  1
  Mg  Mg56  1  0.33131528  0.58002969  0.74898300  1
  Mg  Mg57  1  0.50062828  0.83335009  0.24907977  1
  Mg  Mg58  1  0.33620318  0.58447750  0.24969603  1
  Mg  Mg59  1  0.00221296  0.41535249  0.74802287  1
  Mg  Mg60  1  0.67067573  0.08393676  0.24920663  1
  Mg  Mg61  1  0.00181531  0.08789843  0.25543819  1
  Mg  Mg62  1  0.16685742  0.83340261  0.75357475  1
  Mg  Mg63  1  0.33165801  0.08375906  0.25394306  1
  Mg  Mg64  1  0.49665715  0.66549725  0.74659347  1
  Mg  Mg65  1  0.33454526  0.41438159  0.25166850  1
  Mg  Mg66  1  0.16911948  0.66323669  0.25248297  1
  Mg  Mg67  1  0.83914100  0.16572882  0.25111624  1
  Mg  Mg68  1  0.66733025  0.91410260  0.25000311  1
  Mg  Mg69  1  0.00096310  0.58250306  0.74981496  1
  Mg  Mg70  1  0.00220745  0.91443877  0.25406458  1
  Mg  Mg71  1  0.33148130  0.91465545  0.25271874  1
  Mg  Mg72  1  0.83687510  0.33379355  0.24335885  1
  Mg  Mg73  1  0.50204193  0.66806211  0.24563520  1
  Mg  Mg74  1  0.33124221  0.08563221  0.75300014  1
  Mg  Mg75  1  0.49643140  0.33664393  0.74445954  1
  Mg  Mg76  1  0.16460522  0.33184890  0.25310135  1
  Mg  Mg77  1  0.50161877  0.16599096  0.25076600  1
  Mg  Mg78  1  0.83042838  0.66683939  0.24675864  1
  Mg  Mg79  1  0.83182626  0.83516182  0.75500215  1
  Mg  Mg80  1  0.33234626  0.91661998  0.75152949  1
  Mg  Mg81  1  0.83138411  0.66568385  0.74865301  1
  Mg  Mg82  1  0.16405123  0.16574842  0.25506357  1
  Mg  Mg83  1  0.66159262  0.58273287  0.74432797  1
  Mg  Mg84  1  0.83207789  0.16726960  0.74980079  1
  Mg  Mg85  1  0.16934401  0.83343329  0.25503162  1
  Mg  Mg86  1  0.83054327  0.83074114  0.25032573  1
  Mg  Mg87  1  0.66448300  0.41576704  0.74258568  1
  Mg  Mg88  1  0.66610235  0.91671404  0.75436931  1
  Mg  Mg89  1  0.16666608  0.66350847  0.75290987  1
  Mg  Mg90  1  0.66641393  0.58683877  0.24396037  1
  Mg  Mg91  1  0.66443033  0.08511466  0.74999741  1
  Mg  Mg92  1  0.00137945  0.08555351  0.75506563  1
  Mg  Mg93  1  0.49727134  0.16719354  0.74859930  1
  Mg  Mg94  1  0.66743102  0.41546511  0.24337288  1
  Mg  Mg95  1  0.50112486  0.33385532  0.24769932  1
  Fe  Fe96  1  0.14373290  0.58092381  0.89125123  1
  Fe  Fe97  1  0.19557877  0.08557061  0.11337531  1
  Fe  Fe98  1  0.86543978  0.08136154  0.11153850  1
  Fe  Fe99  1  0.86547853  0.41925533  0.60526906  1
  Fe  Fe100  1  0.80962157  0.08193934  0.39150656  1
  Fe  Fe101  1  0.13953712  0.08335486  0.89486760  1
  Fe  Fe102  1  0.31468084  0.82832107  0.39481657  1
  Fe  Fe103  1  0.69050538  0.66660382  0.10621815  1
  Fe  Fe104  1  0.69220573  0.33490990  0.10461527  1
  Fe  Fe105  1  0.31404184  0.33507092  0.39254388  1
  Fe  Fe106  1  0.52219405  0.41938825  0.60104084  1
  Fe  Fe107  1  0.14465295  0.08975668  0.39699531  1
  Fe  Fe108  1  0.80749668  0.91808308  0.89451310  1
  Fe  Fe109  1  0.69310262  0.32848695  0.60202496  1
  Fe  Fe110  1  0.36042945  0.67058496  0.11026780  1
  Fe  Fe111  1  0.02926123  0.17616418  0.11137471  1
  Fe  Fe112  1  0.13814467  0.91277286  0.39648692  1
  Si  Si113  1  0.47990423  0.91952156  0.38889615  1
  Si  Si114  1  0.14573553  0.58142620  0.38673876  1
  Si  Si115  1  0.52822239  0.08468326  0.11666504  1
  Si  Si116  1  0.64322610  0.33230894  0.38076330  1
  Si  Si117  1  0.63613313  0.17080950  0.88337910  1
  Si  Si118  1  0.68950736  0.67435577  0.61239851  1
  Si  Si119  1  0.63885592  0.33577370  0.88241842  1
  Si  Si120  1  0.03358699  0.33325816  0.61305043  1
  Si  Si121  1  0.86013474  0.90898003  0.11576486  1
  Si  Si122  1  0.68684704  0.83614631  0.11353186  1
  Si  Si123  1  0.19481719  0.58013898  0.11416406  1
  Si  Si124  1  0.19376721  0.41472666  0.11583176  1
  Si  Si125  1  0.31158695  0.33204625  0.88424034  1
  Si  Si126  1  0.85853835  0.58688844  0.10924489  1
  Si  Si127  1  0.68837608  0.15644366  0.61146851  1
  Si  Si128  1  0.52511733  0.58022031  0.10797398  1
  Si  Si129  1  0.96880982  0.66173917  0.88677725  1
  Si  Si130  1  0.68989135  0.16433164  0.10942771  1
  Si  Si131  1  0.63898333  0.83319990  0.38362904  1
  Si  Si132  1  0.35145906  0.83452355  0.61630029  1
  Si  Si133  1  0.97015073  0.34003181  0.37979969  1
  Si  Si134  1  0.97739721  0.82820852  0.89055346  1
  Si  Si135  1  0.14487958  0.41214178  0.88770984  1
  Si  Si136  1  0.51927263  0.07972454  0.61458513  1
  Si  Si137  1  0.68895373  0.83941649  0.61570741  1
  Si  Si138  1  0.18755366  0.91702182  0.11534917  1
  Si  Si139  1  0.51867689  0.41733406  0.10964632  1
  Si  Si140  1  0.64102580  0.66805949  0.38203700  1
  Si  Si141  1  0.86058376  0.91524063  0.61777524  1
  Si  Si142  1  0.02604383  0.34123743  0.11474748  1
  Si  Si143  1  0.85615080  0.59146501  0.60999300  1
  Si  Si144  1  0.03066266  0.66317854  0.11711199  1
  Si  Si145  1  0.19708719  0.41622270  0.61848763  1
  Si  Si146  1  0.36581500  0.16580920  0.11572266  1
  Si  Si147  1  0.19122299  0.58129320  0.61445267  1
  Si  Si148  1  0.47801741  0.08320198  0.38567746  1
  Si  Si149  1  0.63486947  0.66484527  0.88317879  1
  Si  Si150  1  0.63814962  0.83158241  0.88981434  1
  Si  Si151  1  0.35452708  0.16506364  0.61504662  1
  Si  Si152  1  0.52371294  0.92175151  0.11525346  1
  Si  Si153  1  0.31592358  0.65740371  0.39023296  1
  Si  Si154  1  0.47246921  0.92030226  0.88668404  1
  Si  Si155  1  0.80498040  0.41949395  0.38021714  1
  Si  Si156  1  0.35752744  0.33072257  0.11458666  1
  Si  Si157  1  0.35692297  0.83963886  0.11285828  1
  Si  Si158  1  0.80300171  0.09065663  0.88664312  1
  Si  Si159  1  0.80590506  0.58323972  0.38250990  1
  Si  Si160  1  0.02507172  0.16769323  0.61696962  1
  Si  Si161  1  0.35714588  0.32885012  0.61081503  1
  Si  Si162  1  0.31166887  0.16898930  0.89014549  1
  Si  Si163  1  0.52039516  0.91702228  0.61667510  1
  Si  Si164  1  0.97381118  0.33654960  0.88458028  1
  Si  Si165  1  0.19030271  0.08323865  0.61860009  1
  Si  Si166  1  0.80036063  0.58345573  0.88119229  1
  Si  Si167  1  0.80585282  0.41795943  0.88182893  1
  Si  Si168  1  0.02814882  0.82608556  0.11758526  1
  Si  Si169  1  0.14557707  0.90939179  0.89089683  1
  Si  Si170  1  0.63897977  0.16744449  0.38576796  1
  Si  Si171  1  0.31988255  0.16707807  0.39312226  1
  Si  Si172  1  0.02582627  0.83281374  0.61771927  1
  Si  Si173  1  0.31171379  0.66905284  0.88689886  1
  Si  Si174  1  0.02715728  0.66819657  0.61485293  1
  Si  Si175  1  0.18903760  0.91874566  0.61797210  1
  Si  Si176  1  0.80661114  0.91064216  0.38743705  1
  Si  Si177  1  0.96767682  0.82592937  0.38901275  1
  Si  Si178  1  0.14171252  0.41663093  0.38900297  1
  Si  Si179  1  0.47474414  0.08406749  0.88680350  1
  Si  Si180  1  0.31275316  0.83280931  0.88680534  1
  Si  Si181  1  0.97219534  0.17513413  0.39373076  1
  Si  Si182  1  0.52143229  0.59400243  0.60772948  1
  Si  Si183  1  0.47056439  0.58182546  0.88167765  1
  Si  Si184  1  0.86061528  0.42219898  0.10846865  1
  Si  Si185  1  0.35250953  0.67026603  0.61282055  1
  Si  Si186  1  0.48265543  0.42035438  0.38368675  1
  Si  Si187  1  0.96684753  0.17146091  0.88676506  1
  Si  Si188  1  0.48257942  0.58127366  0.38318704  1
  Si  Si189  1  0.97401900  0.66225410  0.38385804  1
  Si  Si190  1  0.86156025  0.08058298  0.61759913  1
  Si  Si191  1  0.47163475  0.41570369  0.88205555  1
  O  O192  1  0.29791532  0.10775243  0.08249549  1
  O  O193  1  0.27078788  0.11500466  0.58839461  1
  O  O194  1  0.26755513  0.61177274  0.07716574  1
  O  O195  1  0.26744935  0.62228486  0.58348946  1
  O  O196  1  0.61114703  0.10579362  0.08560015  1
  O  O197  1  0.60406082  0.10472494  0.58663868  1
  O  O198  1  0.60969098  0.59394065  0.07670492  1
  O  O199  1  0.60103077  0.63521447  0.57924554  1
  O  O200  1  0.94574256  0.11617816  0.06669559  1
  O  O201  1  0.93643044  0.12392980  0.58884120  1
  O  O202  1  0.94878511  0.61360341  0.08787343  1
  O  O203  1  0.93448883  0.63509403  0.58353950  1
  O  O204  1  0.10953527  0.37034322  0.08309276  1
  O  O205  1  0.11925506  0.36214015  0.58722082  1
  O  O206  1  0.10948627  0.85917695  0.08875497  1
  O  O207  1  0.10108759  0.87562867  0.58942783  1
  O  O208  1  0.43634919  0.36441820  0.08330576  1
  O  O209  1  0.42917360  0.35737464  0.57179689  1
  O  O210  1  0.43943108  0.87474112  0.08473178  1
  O  O211  1  0.43609805  0.86713130  0.59084010  1
  O  O212  1  0.78524507  0.37120999  0.06930217  1
  O  O213  1  0.78284597  0.35881791  0.56381688  1
  O  O214  1  0.77346963  0.86254129  0.08673928  1
  O  O215  1  0.76713295  0.88035344  0.58797319  1
  O  O216  1  0.27313903  0.37844141  0.08523662  1
  O  O217  1  0.27552282  0.38235971  0.58712322  1
  O  O218  1  0.27382558  0.89114442  0.08717076  1
  O  O219  1  0.26818977  0.88437135  0.58735160  1
  O  O220  1  0.59516496  0.39252488  0.07326402  1
  O  O221  1  0.60570051  0.38442232  0.55853375  1
  O  O222  1  0.60801113  0.89466041  0.08694836  1
  O  O223  1  0.60047796  0.88219515  0.58585149  1
  O  O224  1  0.95159969  0.40111412  0.08702640  1
  O  O225  1  0.96025680  0.38369955  0.57302408  1
  O  O226  1  0.93950605  0.86788432  0.08835508  1
  O  O227  1  0.93320755  0.86891067  0.58840173  1
  O  O228  1  0.12499647  0.15673258  0.07554649  1
  O  O229  1  0.10318656  0.12689962  0.58937833  1
  O  O230  1  0.10801361  0.62629235  0.08589195  1
  O  O231  1  0.10191179  0.62512335  0.58517179  1
  O  O232  1  0.45528139  0.14440358  0.08976202  1
  O  O233  1  0.43594297  0.12946417  0.58657535  1
  O  O234  1  0.45326761  0.63717680  0.07516994  1
  O  O235  1  0.43545826  0.64445849  0.58250046  1
  O  O236  1  0.76668900  0.13371375  0.07622784  1
  O  O237  1  0.76840716  0.11318919  0.58730067  1
  O  O238  1  0.78699283  0.64026965  0.07004479  1
  O  O239  1  0.77083370  0.64146101  0.58364399  1
  O  O240  1  0.05932300  0.13855387  0.43152210  1
  O  O241  1  0.04119720  0.11894871  0.92146868  1
  O  O242  1  0.06434126  0.62099846  0.41256362  1
  O  O243  1  0.04467157  0.61111163  0.92168295  1
  O  O244  1  0.39496402  0.10458721  0.41670176  1
  O  O245  1  0.39603352  0.11802728  0.91724330  1
  O  O246  1  0.39707383  0.60141511  0.41319765  1
  O  O247  1  0.39424576  0.61797475  0.91489128  1
  O  O248  1  0.71229407  0.11546686  0.42299550  1
  O  O249  1  0.71938875  0.12349066  0.91312280  1
  O  O250  1  0.73050519  0.62608872  0.41310791  1
  O  O251  1  0.72048200  0.61798962  0.91059614  1
  O  O252  1  0.22091073  0.37085367  0.42855488  1
  O  O253  1  0.22760862  0.35938930  0.91378440  1
  O  O254  1  0.22529010  0.85220489  0.43509779  1
  O  O255  1  0.22937004  0.85795167  0.91641361  1
  O  O256  1  0.56393017  0.36726251  0.40986648  1
  O  O257  1  0.56192605  0.37388484  0.91349228  1
  O  O258  1  0.56252678  0.86778134  0.41746717  1
  O  O259  1  0.55161032  0.86596985  0.91230465  1
  O  O260  1  0.89346737  0.38014856  0.41193039  1
  O  O261  1  0.89495167  0.37674788  0.91230470  1
  O  O262  1  0.87852322  0.84907547  0.41324665  1
  O  O263  1  0.90574575  0.86446237  0.92559226  1
  O  O264  1  0.05514793  0.38586136  0.41257443  1
  O  O265  1  0.06215120  0.37733033  0.91583899  1
  O  O266  1  0.04158205  0.87530217  0.42832101  1
  O  O267  1  0.06858335  0.86712386  0.91782077  1
  O  O268  1  0.40458818  0.40022432  0.41937558  1
  O  O269  1  0.39472507  0.38155561  0.91691679  1
  O  O270  1  0.40512001  0.89405599  0.42641595  1
  O  O271  1  0.39054132  0.88817205  0.91601087  1
  O  O272  1  0.72821894  0.37892730  0.40977901  1
  O  O273  1  0.72745133  0.37923144  0.91084067  1
  O  O274  1  0.72308863  0.87917635  0.41595765  1
  O  O275  1  0.71772173  0.87556539  0.92973996  1
  O  O276  1  0.24249503  0.14404398  0.42920825  1
  O  O277  1  0.23548267  0.14049550  0.92483322  1
  O  O278  1  0.23348266  0.62424298  0.41989574  1
  O  O279  1  0.23343185  0.64570192  0.92180603  1
  O  O280  1  0.55165601  0.14241670  0.41235323  1
  O  O281  1  0.55766547  0.13420328  0.91354023  1
  O  O282  1  0.56130551  0.63547853  0.41419894  1
  O  O283  1  0.55777015  0.62598228  0.91231428  1
  O  O284  1  0.89645189  0.14304183  0.42978794  1
  O  O285  1  0.87740672  0.14973084  0.91023778  1
  O  O286  1  0.89721985  0.62110013  0.41449274  1
  O  O287  1  0.88157585  0.63376148  0.91132851  1
  O  O288  1  0.15899209  -0.00723834  0.08075645  1
  O  O289  1  0.17529519  0.00085523  0.59036664  1
  O  O290  1  0.17917147  0.49684957  0.08663330  1
  O  O291  1  0.18037771  0.49889688  0.58531312  1
  O  O292  1  0.49999457  0.00393922  0.08761441  1
  O  O293  1  0.49859766  -0.00224517  0.58503511  1
  O  O294  1  0.48731988  0.49869484  0.08541720  1
  O  O295  1  0.50267414  0.51733762  0.57242243  1
  O  O296  1  0.84755592  -0.01440165  0.07937224  1
  O  O297  1  0.86129646  -0.00256276  0.58925436  1
  O  O298  1  0.84142839  0.50486435  0.07866713  1
  O  O299  1  0.84362725  0.51557771  0.57284904  1
  O  O300  1  -0.00428573  0.26778624  0.07558342  1
  O  O301  1  0.01825810  0.24855825  0.58565581  1
  O  O302  1  0.01567206  0.74472664  0.08485683  1
  O  O303  1  0.02593979  0.75141354  0.58690268  1
  O  O304  1  0.34302373  0.24818430  0.08639072  1
  O  O305  1  0.33295654  0.24486459  0.58399575  1
  O  O306  1  0.33672454  0.76374042  0.07530517  1
  O  O307  1  0.33283616  0.75339177  0.58527503  1
  O  O308  1  0.65883599  0.24131947  0.07567230  1
  O  O309  1  0.67100946  0.23097996  0.57326167  1
  O  O310  1  0.65696130  0.76122390  0.07677454  1
  O  O311  1  0.68073286  0.75811487  0.58417254  1
  O  O312  1  0.15716105  0.00077684  0.43886391  1
  O  O313  1  0.16316298  -0.01269622  0.92418533  1
  O  O314  1  0.15077182  0.50062599  0.41921795  1
  O  O315  1  0.16706813  0.48798446  0.92610284  1
  O  O316  1  0.51007206  0.00265069  0.41300870  1
  O  O317  1  0.49240952  0.00207172  0.91731944  1
  O  O318  1  0.51593479  0.50149057  0.40923535  1
  O  O319  1  0.48390148  0.49918130  0.91010093  1
  O  O320  1  0.83121447  -0.01376930  0.42462440  1
  O  O321  1  0.82481112  0.01423164  0.92249136  1
  O  O322  1  0.80867079  0.50124411  0.41250578  1
  O  O323  1  0.81387007  0.50113039  0.91063526  1
  O  O324  1  0.35699365  0.24432378  0.42210198  1
  O  O325  1  0.33660096  0.25130822  0.91644368  1
  O  O326  1  0.34417003  0.73290546  0.42606367  1
  O  O327  1  0.34096186  0.75191859  0.91268736  1
  O  O328  1  0.65744097  0.25116917  0.41159879  1
  O  O329  1  0.64802993  0.25306296  0.91247976  1
  O  O330  1  0.65403746  0.75029963  0.41241643  1
  O  O331  1  0.64360640  0.74631119  0.91452897  1
  O  O332  1  0.97998858  0.26140375  0.41636579  1
  O  O333  1  0.98348198  0.25464361  0.91392275  1
  O  O334  1  0.98314438  0.74230770  0.41856510  1
  O  O335  1  0.98762772  0.74402492  0.91515093  1
  O  O336  1  0.21420298  0.08298764  0.20522627  1
  O  O337  1  0.20986395  0.08286000  0.69887430  1
  O  O338  1  0.21415874  0.58268452  0.19481734  1
  O  O339  1  0.20773379  0.58610402  0.69425088  1
  O  O340  1  0.54508336  0.08273550  0.19723521  1
  O  O341  1  0.53889803  0.08203645  0.69539245  1
  O  O342  1  0.54213556  0.58323573  0.18972425  1
  O  O343  1  0.54502223  0.59354041  0.68763737  1
  O  O344  1  0.88220691  0.08152639  0.20302370  1
  O  O345  1  0.87751018  0.08156637  0.69826934  1
  O  O346  1  0.86479461  0.58528854  0.18868035  1
  O  O347  1  0.87547433  0.58786137  0.69113987  1
  O  O348  1  0.05010695  0.33431587  0.19360087  1
  O  O349  1  0.04041331  0.33297638  0.69289927  1
  O  O350  1  0.04472701  0.82831572  0.19782766  1
  O  O351  1  0.04228869  0.83286764  0.69835583  1
  O  O352  1  0.37881210  0.33236493  0.19479577  1
  O  O353  1  0.37879016  0.32589618  0.69061358  1
  O  O354  1  0.37786778  0.83576369  0.19369431  1
  O  O355  1  0.36398687  0.83365319  0.69566267  1
  O  O356  1  0.71092791  0.33330462  0.19595726  1
  O  O357  1  0.71306340  0.33228053  0.69540814  1
  O  O358  1  0.70831915  0.83650453  0.19375618  1
  O  O359  1  0.70744007  0.83552216  0.69574348  1
  O  O360  1  0.21473023  0.41478371  0.19563528  1
  O  O361  1  0.20822709  0.42013625  0.69710658  1
  O  O362  1  0.20885745  0.91618963  0.19598604  1
  O  O363  1  0.20701482  0.91697045  0.69863154  1
  O  O364  1  0.54127623  0.41511708  0.19076719  1
  O  O365  1  0.54933402  0.40758233  0.69113245  1
  O  O366  1  0.54169448  0.91880741  0.19568650  1
  O  O367  1  0.54608387  0.92304448  0.69575855  1
  O  O368  1  0.86730999  0.41900992  0.18784393  1
  O  O369  1  0.87988132  0.41814108  0.69773549  1
  O  O370  1  0.87769370  0.91181030  0.19677179  1
  O  O371  1  0.87822915  0.91482520  0.69809232  1
  O  O372  1  0.04508918  0.16664697  0.20178317  1
  O  O373  1  0.04144797  0.16674712  0.69714890  1
  O  O374  1  0.05090474  0.67002001  0.19615373  1
  O  O375  1  0.04189948  0.66858571  0.69517145  1
  O  O376  1  0.38025782  0.16689942  0.19674280  1
  O  O377  1  0.37485170  0.16410586  0.69571378  1
  O  O378  1  0.37884582  0.66800318  0.20195675  1
  O  O379  1  0.37120640  0.66840258  0.69300644  1
  O  O380  1  0.70719563  0.16589988  0.19081714  1
  O  O381  1  0.70756253  0.16268087  0.69264463  1
  O  O382  1  0.71101453  0.66687441  0.19659934  1
  O  O383  1  0.70880736  0.67057407  0.69282968  1
  O  O384  1  0.12206943  0.08162505  0.30581964  1
  O  O385  1  0.12115239  0.08298836  0.80259505  1
  O  O386  1  0.13595404  0.58108309  0.30777191  1
  O  O387  1  0.12012305  0.58342782  0.79961676  1
  O  O388  1  0.45895305  0.08317373  0.30499298  1
  O  O389  1  0.45596034  0.08377889  0.80607714  1
  O  O390  1  0.46208539  0.58293651  0.30288882  1
  O  O391  1  0.45098486  0.58805531  0.80251481  1
  O  O392  1  0.78737383  0.08256995  0.30028217  1
  O  O393  1  0.78600875  0.08543976  0.80525699  1
  O  O394  1  0.78825817  0.58358565  0.30301010  1
  O  O395  1  0.78657868  0.58406681  0.80057167  1
  O  O396  1  0.29234077  0.33375481  0.30120479  1
  O  O397  1  0.29288731  0.33047282  0.80541236  1
  O  O398  1  0.29209224  0.83139792  0.30219837  1
  O  O399  1  0.29082894  0.83448225  0.80623886  1
  O  O400  1  0.62338538  0.33298371  0.30058582  1
  O  O401  1  0.62202559  0.33256469  0.80263090  1
  O  O402  1  0.61965614  0.83688854  0.30439686  1
  O  O403  1  0.63281938  0.83350755  0.81012713  1
  O  O404  1  0.95120079  0.33572404  0.30127552  1
  O  O405  1  0.95604044  0.33487699  0.80419182  1
  O  O406  1  0.95641938  0.82895313  0.30832739  1
  O  O407  1  0.95707346  0.83178551  0.80893418  1
  O  O408  1  0.13449882  0.41700633  0.30983626  1
  O  O409  1  0.12094196  0.41874979  0.80796300  1
  O  O410  1  0.12260248  0.91380461  0.30358348  1
  O  O411  1  0.12449985  0.91318659  0.80931893  1
  O  O412  1  0.46113375  0.41763539  0.30263356  1
  O  O413  1  0.45304248  0.40869005  0.80384687  1
  O  O414  1  0.45911407  0.91660299  0.30795750  1
  O  O415  1  0.45028759  0.92530503  0.80730831  1
  O  O416  1  0.78618732  0.41885389  0.30066550  1
  O  O417  1  0.78914683  0.41789129  0.80182244  1
  O  O418  1  0.78881097  0.91453081  0.30664968  1
  O  O419  1  0.78821708  0.91740954  0.80211470  1
  O  O420  1  0.29852439  0.16637643  0.31173463  1
  O  O421  1  0.29247780  0.16595265  0.80911723  1
  O  O422  1  0.29360338  0.66279336  0.30960152  1
  O  O423  1  0.28890738  0.66808377  0.80596834  1
  O  O424  1  0.62411712  0.16628181  0.30476280  1
  O  O425  1  0.61984956  0.16810894  0.80279500  1
  O  O426  1  0.62057173  0.66329890  0.30301148  1
  O  O427  1  0.62051941  0.66622677  0.80280568  1
  O  O428  1  0.95376849  0.16422405  0.31427648  1
  O  O429  1  0.95364135  0.16843932  0.80554977  1
  O  O430  1  0.95226703  0.66847490  0.30510730  1
  O  O431  1  0.95369229  0.66476479  0.80522040  1
  F  F432  1  0.04238975  -0.00286125  0.20402381  1
  F  F433  1  0.04287993  -0.00358444  0.70518657  1
  F  F434  1  0.05727793  0.49202864  0.19613120  1
  F  F435  1  0.04425633  0.50010971  0.70032522  1
  F  F436  1  0.37972292  -0.00103138  0.20603532  1
  F  F437  1  0.37534466  0.00115720  0.70259746  1
  F  F438  1  0.37920683  0.49892862  0.20139762  1
  F  F439  1  0.35977719  0.50535800  0.69148900  1
  F  F440  1  0.71145365  -0.00304078  0.20138728  1
  F  F441  1  0.71037432  0.00111492  0.70277055  1
  F  F442  1  0.71007437  0.50078111  0.19856279  1
  F  F443  1  0.71308633  0.50345754  0.69529828  1
  F  F444  1  0.21488149  0.24702348  0.20496851  1
  F  F445  1  0.21298357  0.24171387  0.70234263  1
  F  F446  1  0.21319165  0.74709779  0.20493186  1
  F  F447  1  0.20858195  0.75044501  0.70439988  1
  F  F448  1  0.54541627  0.24872686  0.20112349  1
  F  F449  1  0.54391187  0.24564099  0.69911155  1
  F  F450  1  0.53912691  0.75250587  0.19884480  1
  F  F451  1  0.54806437  0.74565010  0.69842740  1
  F  F452  1  0.87274413  0.24745857  0.19871216  1
  F  F453  1  0.87968535  0.24802050  0.70163831  1
  F  F454  1  0.88085309  0.75053534  0.20127100  1
  F  F455  1  0.87822715  0.75234477  0.70396285  1
  F  F456  1  0.29148084  -0.00299029  0.30271270  1
  F  F457  1  0.28749656  0.00000775  0.80028606  1
  F  F458  1  0.29240742  0.50029028  0.29701453  1
  F  F459  1  0.28473707  0.50833415  0.80400765  1
  F  F460  1  0.62268136  -0.00054176  0.29792375  1
  F  F461  1  0.61951878  0.00256358  0.79994084  1
  F  F462  1  0.62160087  0.49979283  0.29226204  1
  F  F463  1  0.63224113  0.50042872  0.79535433  1
  F  F464  1  0.95463039  -0.00567236  0.30290797  1
  F  F465  1  0.95393518  -0.00076318  0.80113733  1
  F  F466  1  0.94331287  0.49440114  0.30375106  1
  F  F467  1  0.95236081  0.50278364  0.79669986  1
  F  F468  1  0.13150164  0.25096639  0.30520025  1
  F  F469  1  0.11753208  0.24663299  0.80223918  1
  F  F470  1  0.12345366  0.74641282  0.30211147  1
  F  F471  1  0.12007271  0.74976295  0.79988001  1
  F  F472  1  0.45860421  0.25095286  0.29729999  1
  F  F473  1  0.45509220  0.24811268  0.79640684  1
  F  F474  1  0.45864928  0.75177279  0.30018629  1
  F  F475  1  0.44957896  0.74095670  0.80043787  1
  F  F476  1  0.78739245  0.24938389  0.29707929  1
  F  F477  1  0.78614765  0.24948957  0.79549468  1
  F  F478  1  0.79228410  0.74945494  0.29952026  1
  F  F479  1  0.78636454  0.74866821  0.79728117  1
