# generated using pymatgen
data_K24Na3Li5Mg64Fe17Si79(O5F)48
_symmetry_space_group_name_H-M   'P 1'
_cell_length_a   16.09328976
_cell_length_b   18.59912792
_cell_length_c   20.57100360
_cell_angle_alpha   90.02099498
_cell_angle_beta   100.02921454
_cell_angle_gamma   89.96063852
_symmetry_Int_Tables_number   1
_chemical_formula_structural   K24Na3Li5Mg64Fe17Si79(O5F)48
_chemical_formula_sum   'K24 Na3 Li5 Mg64 Fe17 Si79 O240 F48'
_cell_volume   6063.24518797
_cell_formula_units_Z   1
loop_
 _symmetry_equiv_pos_site_id
 _symmetry_equiv_pos_as_xyz
  1  'x, y, z'
loop_
 _atom_site_type_symbol
 _atom_site_label
 _atom_site_symmetry_multiplicity
 _atom_site_fract_x
 _atom_site_fract_y
 _atom_site_fract_z
 _atom_site_occupancy
  K  K0  1  0.00148481  -0.00682982  -0.00781601  1
  K  K1  1  -0.00494313  -0.00494869  0.50716608  1
  K  K2  1  0.00042303  0.50822751  0.00254088  1
  K  K3  1  0.00104959  0.50312250  0.50308945  1
  K  K4  1  0.34245128  -0.01110114  -0.00299441  1
  K  K5  1  0.33024995  0.00168579  0.50079781  1
  K  K6  1  0.33982685  0.51090779  -0.00231802  1
  K  K7  1  0.33568797  0.50188533  0.50059909  1
  K  K8  1  0.67083273  0.00526261  -0.00328311  1
  K  K9  1  0.67233042  -0.00224688  0.49660924  1
  K  K10  1  0.65940545  0.51229867  -0.00124495  1
  K  K11  1  0.66680134  0.49857265  0.49505977  1
  K  K12  1  0.16413380  0.24726407  -0.00876338  1
  K  K13  1  0.16330498  0.25269801  0.50709979  1
  K  K14  1  0.17683909  0.75361490  -0.00290803  1
  K  K15  1  0.15220690  0.74106391  0.50360243  1
  K  K16  1  0.50921810  0.25163477  -0.00061778  1
  K  K17  1  0.49596118  0.26209677  0.50332988  1
  K  K18  1  0.49577989  0.73793968  0.00671801  1
  K  K19  1  0.49489352  0.75419234  0.49695132  1
  K  K20  1  0.83315604  0.23900159  -0.00517966  1
  K  K21  1  0.83674663  0.24700215  0.50327105  1
  K  K22  1  0.82433121  0.74487898  0.00794443  1
  K  K23  1  0.83974724  0.75973014  0.49691209  1
  Na  Na24  1  0.15865671  -0.00001683  0.74495068  1
  Na  Na25  1  0.16693412  0.32986991  0.74756859  1
  Na  Na26  1  0.83375849  0.16793939  0.74978710  1
  Li  Li27  1  0.00521590  0.75183438  0.74495613  1
  Li  Li28  1  -0.00415770  0.74721557  0.25416014  1
  Li  Li29  1  0.50335761  0.33648479  0.25944687  1
  Li  Li30  1  0.66278572  0.91088674  0.23888428  1
  Li  Li31  1  -0.00203755  0.08143809  0.74357404  1
  Mg  Mg32  1  0.33479660  0.25165863  0.25280645  1
  Mg  Mg33  1  0.83144973  0.50314844  0.25296334  1
  Mg  Mg34  1  0.33489923  0.74981199  0.24738029  1
  Mg  Mg35  1  0.16427990  0.50116223  0.25280984  1
  Mg  Mg36  1  0.16789380  -0.00176779  0.24784487  1
  Mg  Mg37  1  0.83064696  -0.00283618  0.24557519  1
  Mg  Mg38  1  0.66813138  0.75007175  0.75139018  1
  Mg  Mg39  1  0.83845553  0.00028767  0.74904488  1
  Mg  Mg40  1  0.33082786  0.75038610  0.75137363  1
  Mg  Mg41  1  0.33313429  0.24756179  0.75072688  1
  Mg  Mg42  1  0.50302817  -0.00136233  0.24381762  1
  Mg  Mg43  1  0.49936754  0.50140009  0.75387626  1
  Mg  Mg44  1  0.83389698  0.50024279  0.75094106  1
  Mg  Mg45  1  0.16856636  0.49929112  0.75087341  1
  Mg  Mg46  1  -0.00019215  0.24558703  0.74810656  1
  Mg  Mg47  1  -0.00125890  0.24887263  0.25379371  1
  Mg  Mg48  1  0.49776350  0.49710192  0.25402737  1
  Mg  Mg49  1  0.66446375  0.25056681  0.25089044  1
  Mg  Mg50  1  0.66749139  0.25027792  0.75081790  1
  Mg  Mg51  1  0.66802127  0.75192664  0.24758634  1
  Mg  Mg52  1  0.50182995  0.00192953  0.75152309  1
  Mg  Mg53  1  0.33244623  0.41444496  0.75149669  1
  Mg  Mg54  1  0.66443610  0.41695475  0.75187675  1
  Mg  Mg55  1  0.16649389  0.66599689  0.74893904  1
  Mg  Mg56  1  0.33337296  0.58361886  0.25294419  1
  Mg  Mg57  1  0.83663081  0.66711176  0.74891428  1
  Mg  Mg58  1  0.83216977  0.66782504  0.25014091  1
  Mg  Mg59  1  0.50460680  0.16617671  0.75227922  1
  Mg  Mg60  1  0.66557346  0.08148650  0.24648525  1
  Mg  Mg61  1  -0.00016515  0.08340815  0.25175518  1
  Mg  Mg62  1  0.50223867  0.83435195  0.24284753  1
  Mg  Mg63  1  0.66700936  0.58598907  0.25267471  1
  Mg  Mg64  1  0.16360416  0.66735323  0.25440566  1
  Mg  Mg65  1  0.83341001  0.33497688  0.25435675  1
  Mg  Mg66  1  0.83494380  0.16525724  0.25203280  1
  Mg  Mg67  1  0.66572072  0.58542393  0.75183115  1
  Mg  Mg68  1  0.49954552  0.16907144  0.24737012  1
  Mg  Mg69  1  0.16219728  0.83323892  0.74867214  1
  Mg  Mg70  1  0.33056879  0.91754637  0.74941481  1
  Mg  Mg71  1  -0.00094917  0.58807454  0.25153583  1
  Mg  Mg72  1  0.83285645  0.83242264  0.24656404  1
  Mg  Mg73  1  0.50035572  0.33544026  0.75304581  1
  Mg  Mg74  1  0.67084227  0.91700825  0.75058911  1
  Mg  Mg75  1  0.16693268  0.83211312  0.24751316  1
  Mg  Mg76  1  -0.00187591  0.91627316  0.74533094  1
  Mg  Mg77  1  0.16256594  0.16445477  0.74888825  1
  Mg  Mg78  1  0.16655603  0.16482228  0.25149596  1
  Mg  Mg79  1  0.00183106  0.58490900  0.74992637  1
  Mg  Mg80  1  0.00051495  0.91300291  0.24734290  1
  Mg  Mg81  1  0.49985723  0.66386468  0.25107932  1
  Mg  Mg82  1  0.33259114  0.58538288  0.75219505  1
  Mg  Mg83  1  0.66427392  0.41484082  0.25577335  1
  Mg  Mg84  1  0.67212543  0.08615975  0.75026240  1
  Mg  Mg85  1  0.83795519  0.83177175  0.74685996  1
  Mg  Mg86  1  0.33639298  0.91453802  0.24382627  1
  Mg  Mg87  1  0.50078793  0.83550602  0.75018120  1
  Mg  Mg88  1  0.00134629  0.41439536  0.75135858  1
  Mg  Mg89  1  0.33645142  0.41516837  0.25433952  1
  Mg  Mg90  1  0.83317240  0.33352116  0.75037452  1
  Mg  Mg91  1  0.49787799  0.66666728  0.75237332  1
  Mg  Mg92  1  0.00019691  0.41697745  0.25312802  1
  Mg  Mg93  1  0.33417061  0.08398509  0.24756473  1
  Mg  Mg94  1  0.16706835  0.33351378  0.25312473  1
  Mg  Mg95  1  0.33259723  0.08279927  0.75206573  1
  Fe  Fe96  1  0.52059276  0.42358107  0.61365492  1
  Fe  Fe97  1  0.14138837  0.58235000  0.39148612  1
  Fe  Fe98  1  0.36233540  0.82947410  0.10456401  1
  Fe  Fe99  1  0.02333969  0.83297217  0.60790684  1
  Fe  Fe100  1  0.68853864  0.66309258  0.10795339  1
  Fe  Fe101  1  0.69618640  0.83667676  0.10421265  1
  Fe  Fe102  1  0.96901102  0.66877840  0.39165848  1
  Fe  Fe103  1  0.47542047  0.58249708  0.89318073  1
  Fe  Fe104  1  0.30159489  0.67029379  0.89278861  1
  Fe  Fe105  1  0.52784981  0.92430682  0.10212432  1
  Fe  Fe106  1  0.85545413  0.08534489  0.60893038  1
  Fe  Fe107  1  0.64947883  0.16521473  0.89195733  1
  Fe  Fe108  1  0.19881339  0.58157126  0.61027088  1
  Fe  Fe109  1  0.79872836  0.58466830  0.39385785  1
  Fe  Fe110  1  0.97655548  0.16479434  0.39216344  1
  Fe  Fe111  1  0.47785602  0.41294128  0.39430826  1
  Fe  Fe112  1  0.47098135  0.58653544  0.39217321  1
  Si  Si113  1  0.36099024  0.84024194  0.61438238  1
  Si  Si114  1  0.35690506  0.32667364  0.61511064  1
  Si  Si115  1  0.52749614  0.08247950  0.61394375  1
  Si  Si116  1  0.18743776  0.41701348  0.11660485  1
  Si  Si117  1  0.02857284  0.66899033  0.11484815  1
  Si  Si118  1  0.35296547  0.17170326  0.11348317  1
  Si  Si119  1  0.35428836  0.65838346  0.11342758  1
  Si  Si120  1  0.85971154  0.41599041  0.11666612  1
  Si  Si121  1  0.02834080  0.16825768  0.61034387  1
  Si  Si122  1  0.97326305  0.66529810  0.88417408  1
  Si  Si123  1  0.97920020  0.33560444  0.38857234  1
  Si  Si124  1  0.03264413  0.83497774  0.11292332  1
  Si  Si125  1  0.19516782  0.91767538  0.61099593  1
  Si  Si126  1  0.63233582  0.67471862  0.38881553  1
  Si  Si127  1  0.14402782  0.41394265  0.38710251  1
  Si  Si128  1  0.69424793  0.16973319  0.11527105  1
  Si  Si129  1  0.63995620  0.16083099  0.38249128  1
  Si  Si130  1  0.13493590  0.57854683  0.89015253  1
  Si  Si131  1  0.47619238  0.91794634  0.88379619  1
  Si  Si132  1  0.52175376  0.57328587  0.11552158  1
  Si  Si133  1  0.97686548  0.16857882  0.88622927  1
  Si  Si134  1  0.30208066  0.67256359  0.38760197  1
  Si  Si135  1  0.64755007  0.33520609  0.88989598  1
  Si  Si136  1  0.02254690  0.33370182  0.61558033  1
  Si  Si137  1  0.47406177  0.08304414  0.38178939  1
  Si  Si138  1  0.30454864  0.16251193  0.88705344  1
  Si  Si139  1  0.97834028  0.83951764  0.38399794  1
  Si  Si140  1  0.81059186  0.91777733  0.38054954  1
  Si  Si141  1  0.85734969  0.57865329  0.61594604  1
  Si  Si142  1  0.52999239  0.91710570  0.61489789  1
  Si  Si143  1  0.85914762  0.08393344  0.11348565  1
  Si  Si144  1  0.18908447  0.58122786  0.11635537  1
  Si  Si145  1  0.02398081  0.33123575  0.11680345  1
  Si  Si146  1  0.64445886  0.83711429  0.88463110  1
  Si  Si147  1  0.02568479  0.16706401  0.11489626  1
  Si  Si148  1  0.30910393  0.32890135  0.88724112  1
  Si  Si149  1  0.69127930  0.82869205  0.61476016  1
  Si  Si150  1  0.14023530  0.41415813  0.88694293  1
  Si  Si151  1  0.52136464  0.40894688  0.11955117  1
  Si  Si152  1  0.47401381  0.08432944  0.88837845  1
  Si  Si153  1  0.19017019  0.08396437  0.11339645  1
  Si  Si154  1  0.14647015  0.91598108  0.38243488  1
  Si  Si155  1  0.19430576  0.91887354  0.10963529  1
  Si  Si156  1  0.13614694  0.08613120  0.88468361  1
  Si  Si157  1  0.30877132  0.16356628  0.38469055  1
  Si  Si158  1  0.69040885  0.33780592  0.61486001  1
  Si  Si159  1  0.85034813  0.91637881  0.60852013  1
  Si  Si160  1  0.80341812  0.08126366  0.38429180  1
  Si  Si161  1  0.02187021  0.66122103  0.61245603  1
  Si  Si162  1  0.19306348  0.41341521  0.61341420  1
  Si  Si163  1  0.36517777  0.67609555  0.61308004  1
  Si  Si164  1  0.35026654  0.33405544  0.11636892  1
  Si  Si165  1  0.47704543  0.91886247  0.38231524  1
  Si  Si166  1  0.13520980  0.91991676  0.88385984  1
  Si  Si167  1  0.36078262  0.16094784  0.61632784  1
  Si  Si168  1  0.80968641  0.41201598  0.39098672  1
  Si  Si169  1  0.64695910  0.32368631  0.38951766  1
  Si  Si170  1  0.52032090  0.09474790  0.10938385  1
  Si  Si171  1  0.64491267  0.67124902  0.88764201  1
  Si  Si172  1  0.52513841  0.59176261  0.61572192  1
  Si  Si173  1  0.86474077  0.58101959  0.11133658  1
  Si  Si174  1  0.31181359  0.83561728  0.38242844  1
  Si  Si175  1  0.68471228  0.17326740  0.61093543  1
  Si  Si176  1  0.81381193  0.91295808  0.88446376  1
  Si  Si177  1  0.19454997  0.08547243  0.61491936  1
  Si  Si178  1  0.69418154  0.66390674  0.61611481  1
  Si  Si179  1  0.80938037  0.58685943  0.88559610  1
  Si  Si180  1  0.97299538  0.33282974  0.88795318  1
  Si  Si181  1  0.85807936  0.41374722  0.61634128  1
  Si  Si182  1  0.30474114  0.84181859  0.88586029  1
  Si  Si183  1  0.81591777  0.07622884  0.88873489  1
  Si  Si184  1  0.86850019  0.91794557  0.10845322  1
  Si  Si185  1  0.30281299  0.32852679  0.38906113  1
  Si  Si186  1  0.80979787  0.42133063  0.88674561  1
  Si  Si187  1  0.14596145  0.07853401  0.38677747  1
  Si  Si188  1  0.69244665  0.33563448  0.11705131  1
  Si  Si189  1  0.64341347  0.83671795  0.38115138  1
  Si  Si190  1  0.97646890  0.82967469  0.88303048  1
  Si  Si191  1  0.47563099  0.41010780  0.89186483  1
  O  O192  1  0.27060859  0.11983349  0.08461709  1
  O  O193  1  0.27597941  0.11614836  0.58339369  1
  O  O194  1  0.27195652  0.60552846  0.08640604  1
  O  O195  1  0.29086296  0.62459183  0.57771640  1
  O  O196  1  0.60252183  0.13443254  0.08424600  1
  O  O197  1  0.59856253  0.12467021  0.58097165  1
  O  O198  1  0.59478146  0.60198168  0.07799660  1
  O  O199  1  0.61209252  0.61452786  0.58759833  1
  O  O200  1  0.93626310  0.12662290  0.08480030  1
  O  O201  1  0.94947302  0.12176612  0.57367034  1
  O  O202  1  0.94497974  0.62063016  0.08334593  1
  O  O203  1  0.94004173  0.60529479  0.58802684  1
  O  O204  1  0.10111382  0.37029140  0.08678223  1
  O  O205  1  0.10252740  0.37048171  0.58877810  1
  O  O206  1  0.11251516  0.86701446  0.08109093  1
  O  O207  1  0.11743947  0.87101116  0.57283335  1
  O  O208  1  0.43541383  0.36161116  0.08947437  1
  O  O209  1  0.42935677  0.36283795  0.58085002  1
  O  O210  1  0.44600692  0.86052889  0.06099941  1
  O  O211  1  0.44266548  0.87419077  0.58523309  1
  O  O212  1  0.76660790  0.38014913  0.08738556  1
  O  O213  1  0.77893363  0.36030918  0.58859307  1
  O  O214  1  0.79471696  0.86826681  0.07073656  1
  O  O215  1  0.76851432  0.86043193  0.58271142  1
  O  O216  1  0.26688058  0.38379174  0.08476374  1
  O  O217  1  0.26355495  0.36090600  0.58676329  1
  O  O218  1  0.27064211  0.89399020  0.07440668  1
  O  O219  1  0.28277440  0.89279299  0.58268013  1
  O  O220  1  0.59951710  0.37104798  0.08758592  1
  O  O221  1  0.61921544  0.39459646  0.58275487  1
  O  O222  1  0.62365642  0.90877485  0.06746518  1
  O  O223  1  0.60556356  0.87594662  0.58517173  1
  O  O224  1  0.93275682  0.36884445  0.08744261  1
  O  O225  1  0.93823763  0.38255521  0.58484696  1
  O  O226  1  0.95522982  0.88971393  0.08238938  1
  O  O227  1  0.92680768  0.88776921  0.57358327  1
  O  O228  1  0.10477505  0.13157899  0.08470338  1
  O  O229  1  0.11407458  0.13651531  0.58374100  1
  O  O230  1  0.10779203  0.63183186  0.08409548  1
  O  O231  1  0.09895720  0.63089192  0.57856032  1
  O  O232  1  0.43808485  0.14971080  0.08469417  1
  O  O233  1  0.43645188  0.12090940  0.58485314  1
  O  O234  1  0.43347824  0.61728874  0.08820437  1
  O  O235  1  0.45688760  0.65653659  0.59095293  1
  O  O236  1  0.77050209  0.12781806  0.08532609  1
  O  O237  1  0.76093952  0.14641813  0.57583348  1
  O  O238  1  0.77946721  0.61737896  0.07333956  1
  O  O239  1  0.77509845  0.62983359  0.58801663  1
  O  O240  1  0.06854040  0.10226864  0.42192725  1
  O  O241  1  0.06744105  0.13122815  0.92114907  1
  O  O242  1  0.04704351  0.59950548  0.42727112  1
  O  O243  1  0.04940693  0.61022315  0.91595548  1
  O  O244  1  0.39304143  0.11468761  0.41236310  1
  O  O245  1  0.39028926  0.11649593  0.91608932  1
  O  O246  1  0.37195723  0.61592893  0.42274032  1
  O  O247  1  0.39520215  0.62131180  0.93590924  1
  O  O248  1  0.71393935  0.10246935  0.40937324  1
  O  O249  1  0.74497622  0.10915081  0.92789015  1
  O  O250  1  0.70044360  0.61627896  0.42401781  1
  O  O251  1  0.73156529  0.62385097  0.91467298  1
  O  O252  1  0.21142999  0.34753535  0.41174261  1
  O  O253  1  0.22918393  0.36943846  0.91410824  1
  O  O254  1  0.22936044  0.86599457  0.41212722  1
  O  O255  1  0.23035606  0.88922563  0.91356984  1
  O  O256  1  0.56860323  0.34752299  0.42366357  1
  O  O257  1  0.56287427  0.36299350  0.91800292  1
  O  O258  1  0.56366342  0.87419063  0.41263281  1
  O  O259  1  0.56288114  0.87190709  0.91167740  1
  O  O260  1  0.89459932  0.36195655  0.41626539  1
  O  O261  1  0.89668214  0.37597903  0.91747350  1
  O  O262  1  0.89664097  0.87409196  0.41351542  1
  O  O263  1  0.89537933  0.86182611  0.91469955  1
  O  O264  1  0.05552473  0.39381692  0.41366225  1
  O  O265  1  0.06485977  0.37101971  0.91789775  1
  O  O266  1  0.06107456  0.89387278  0.41013829  1
  O  O267  1  0.06191883  0.87572935  0.91640215  1
  O  O268  1  0.37827485  0.37809324  0.42500579  1
  O  O269  1  0.39860394  0.36708312  0.92138483  1
  O  O270  1  0.39539945  0.88628405  0.41221876  1
  O  O271  1  0.39474037  0.88537484  0.91082090  1
  O  O272  1  0.73320544  0.36933112  0.41941593  1
  O  O273  1  0.72802102  0.39105042  0.91620650  1
  O  O274  1  0.72795345  0.88569554  0.40921245  1
  O  O275  1  0.72916091  0.88487503  0.91270788  1
  O  O276  1  0.23046159  0.12797281  0.41466457  1
  O  O277  1  0.22826192  0.12351359  0.91783925  1
  O  O278  1  0.21480486  0.66086909  0.41519413  1
  O  O279  1  0.21240370  0.62537310  0.92745548  1
  O  O280  1  0.55570742  0.13321823  0.41138671  1
  O  O281  1  0.55358219  0.13084925  0.92445649  1
  O  O282  1  0.54472121  0.66423880  0.41673837  1
  O  O283  1  0.57318289  0.63853031  0.92353066  1
  O  O284  1  0.87559314  0.13606148  0.41908808  1
  O  O285  1  0.90353155  0.12288167  0.91563030  1
  O  O286  1  0.87813959  0.64940261  0.43264867  1
  O  O287  1  0.89214994  0.63510194  0.91616628  1
  O  O288  1  0.16945560  0.00312054  0.08409027  1
  O  O289  1  0.18029470  0.00300302  0.58610087  1
  O  O290  1  0.16662173  0.49857924  0.08768280  1
  O  O291  1  0.18728556  0.48823864  0.57349506  1
  O  O292  1  0.49651531  0.02089955  0.07124372  1
  O  O293  1  0.52194392  -0.00077315  0.58448468  1
  O  O294  1  0.50196539  0.48933322  0.08843212  1
  O  O295  1  0.48967364  0.51683575  0.58346978  1
  O  O296  1  0.85513895  0.00332461  0.08163272  1
  O  O297  1  0.81851244  -0.00661744  0.57626747  1
  O  O298  1  0.86571621  0.49574643  0.08445495  1
  O  O299  1  0.83541416  0.49600048  0.58850653  1
  O  O300  1  0.01685483  0.24943427  0.08565597  1
  O  O301  1  0.01394062  0.25288801  0.58235490  1
  O  O302  1  0.01514497  0.75178644  0.08448676  1
  O  O303  1  -0.00630331  0.73870350  0.57998774  1
  O  O304  1  0.32662837  0.25282413  0.08469815  1
  O  O305  1  0.34964948  0.24250920  0.58720418  1
  O  O306  1  0.33355850  0.73401887  0.07621397  1
  O  O307  1  0.34585214  0.75927908  0.58418376  1
  O  O308  1  0.69295790  0.25308191  0.08712412  1
  O  O309  1  0.66166298  0.25712144  0.58603305  1
  O  O310  1  0.66614698  0.74869972  0.06305630  1
  O  O311  1  0.67424994  0.74591694  0.58733378  1
  O  O312  1  0.17583217  -0.00350090  0.41093060  1
  O  O313  1  0.13451266  0.00288778  0.91350053  1
  O  O314  1  0.18301990  0.48831774  0.41752706  1
  O  O315  1  0.14590482  0.49474213  0.92052720  1
  O  O316  1  0.49096560  0.00151225  0.41268035  1
  O  O317  1  0.48854318  -0.00005336  0.91339824  1
  O  O318  1  0.50934167  0.50062578  0.43253224  1
  O  O319  1  0.49007204  0.48708482  0.92755800  1
  O  O320  1  0.82432511  -0.00067698  0.41227675  1
  O  O321  1  0.83710158  -0.00717283  0.91652100  1
  O  O322  1  0.82356424  0.48893774  0.42666034  1
  O  O323  1  0.82590693  0.50434797  0.91514943  1
  O  O324  1  0.32419408  0.24431546  0.41493509  1
  O  O325  1  0.31186430  0.24562381  0.91724502  1
  O  O326  1  0.33589635  0.75570899  0.41162423  1
  O  O327  1  0.30932128  0.76625115  0.92358891  1
  O  O328  1  0.66956095  0.23909721  0.41396334  1
  O  O329  1  0.67406306  0.25915391  0.92565990  1
  O  O330  1  0.66395207  0.75768547  0.41490269  1
  O  O331  1  0.66507795  0.75533085  0.91174479  1
  O  O332  1  1.00881532  0.25853628  0.42117032  1
  O  O333  1  0.97720984  0.25119697  0.91999181  1
  O  O334  1  1.00329415  0.76403181  0.41978115  1
  O  O335  1  0.99327971  0.74718409  0.91305751  1
  O  O336  1  0.20907973  0.08472840  0.19390196  1
  O  O337  1  0.21682905  0.08891933  0.69401656  1
  O  O338  1  0.20817029  0.58225123  0.19620200  1
  O  O339  1  0.21258344  0.58117104  0.70212702  1
  O  O340  1  0.54002487  0.08885139  0.19008222  1
  O  O341  1  0.54393388  0.08148922  0.69416558  1
  O  O342  1  0.54355140  0.57804826  0.19598817  1
  O  O343  1  0.54622558  0.58787588  0.69679736  1
  O  O344  1  0.87744768  0.08399439  0.19343927  1
  O  O345  1  0.87705754  0.07752761  0.69665580  1
  O  O346  1  0.87841884  0.57988725  0.19140532  1
  O  O347  1  0.87470132  0.58073839  0.69652917  1
  O  O348  1  0.04272641  0.33094030  0.19695325  1
  O  O349  1  0.03262169  0.33306023  0.69472128  1
  O  O350  1  0.04995645  0.83867274  0.19215938  1
  O  O351  1  0.04521688  0.83499388  0.69796518  1
  O  O352  1  0.36368434  0.33185064  0.19531952  1
  O  O353  1  0.37672693  0.33002378  0.69614939  1
  O  O354  1  0.37825464  0.83270512  0.19688693  1
  O  O355  1  0.37986688  0.83790888  0.69481439  1
  O  O356  1  0.71121441  0.33396011  0.19715164  1
  O  O357  1  0.70894539  0.33675940  0.69607849  1
  O  O358  1  0.71350681  0.83136517  0.19530268  1
  O  O359  1  0.70808462  0.83190717  0.69514557  1
  O  O360  1  0.20649964  0.41451018  0.19658799  1
  O  O361  1  0.21506478  0.42168450  0.69314429  1
  O  O362  1  0.21145420  0.91860538  0.19067507  1
  O  O363  1  0.21545296  0.91010759  0.69053647  1
  O  O364  1  0.54496363  0.41268784  0.19859513  1
  O  O365  1  0.54380468  0.41860499  0.70575932  1
  O  O366  1  0.53923532  0.91858733  0.19344140  1
  O  O367  1  0.54647225  0.91767464  0.69509776  1
  O  O368  1  0.87675521  0.41470223  0.19687762  1
  O  O369  1  0.87630375  0.41726124  0.69689844  1
  O  O370  1  0.88102516  0.91853850  0.18908668  1
  O  O371  1  0.86955445  0.91345950  0.68985383  1
  O  O372  1  0.04496937  0.16594126  0.19490947  1
  O  O373  1  0.04569207  0.17023687  0.69010534  1
  O  O374  1  0.04651935  0.66613553  0.19374999  1
  O  O375  1  0.04424112  0.66016318  0.69336803  1
  O  O376  1  0.37179949  0.16831789  0.19373139  1
  O  O377  1  0.38116133  0.16221740  0.69662842  1
  O  O378  1  0.37229704  0.66420170  0.19394089  1
  O  O379  1  0.37881667  0.67385169  0.69379405  1
  O  O380  1  0.71182427  0.16815103  0.19534921  1
  O  O381  1  0.69847298  0.16902591  0.69075937  1
  O  O382  1  0.70921538  0.66599818  0.19978634  1
  O  O383  1  0.71102573  0.66593784  0.69679269  1
  O  O384  1  0.12604948  0.08227307  0.30548808  1
  O  O385  1  0.12084249  0.08993310  0.80654822  1
  O  O386  1  0.11963403  0.58199101  0.29901240  1
  O  O387  1  0.12095513  0.57984314  0.80964513  1
  O  O388  1  0.45510029  0.08377161  0.30158760  1
  O  O389  1  0.45887423  0.08497475  0.80727293  1
  O  O390  1  0.45331636  0.58233169  0.29945126  1
  O  O391  1  0.45505754  0.58471947  0.80047691  1
  O  O392  1  0.78944081  0.08309169  0.30335012  1
  O  O393  1  0.78755429  0.07440891  0.80962753  1
  O  O394  1  0.78790463  0.58240812  0.30145234  1
  O  O395  1  0.79092985  0.58478338  0.80537410  1
  O  O396  1  0.28782704  0.33017389  0.30776528  1
  O  O397  1  0.29975139  0.32975178  0.80822600  1
  O  O398  1  0.29113714  0.83731157  0.30224847  1
  O  O399  1  0.28912937  0.83693976  0.80505783  1
  O  O400  1  0.63051321  0.32900958  0.30920042  1
  O  O401  1  0.62644915  0.33408818  0.80924311  1
  O  O402  1  0.61941080  0.83267134  0.30219753  1
  O  O403  1  0.62509638  0.83604413  0.80392325  1
  O  O404  1  0.95821387  0.33336838  0.30694440  1
  O  O405  1  0.95533035  0.33515355  0.80829106  1
  O  O406  1  0.95676691  0.83931028  0.30382034  1
  O  O407  1  0.95438018  0.83223483  0.80398649  1
  O  O408  1  0.12284882  0.41375540  0.30553944  1
  O  O409  1  0.11942357  0.42005056  0.80801884  1
  O  O410  1  0.12784433  0.91703140  0.30188934  1
  O  O411  1  0.11695649  0.91186676  0.80551945  1
  O  O412  1  0.45340361  0.41592099  0.30317652  1
  O  O413  1  0.45562424  0.41346292  0.81109748  1
  O  O414  1  0.45654020  0.92022769  0.30271583  1
  O  O415  1  0.45982752  0.91797724  0.80319335  1
  O  O416  1  0.79102063  0.41443077  0.30949217  1
  O  O417  1  0.79159315  0.41949915  0.80654947  1
  O  O418  1  0.79610643  0.91817800  0.30119761  1
  O  O419  1  0.79197813  0.91261281  0.80416512  1
  O  O420  1  0.28954821  0.16406496  0.30408691  1
  O  O421  1  0.29049199  0.16476831  0.80713816  1
  O  O422  1  0.28931653  0.66936370  0.30584842  1
  O  O423  1  0.28995184  0.66866645  0.80095796  1
  O  O424  1  0.62161618  0.16461484  0.30214013  1
  O  O425  1  0.62475577  0.16610193  0.80041835  1
  O  O426  1  0.62041552  0.66975765  0.30744840  1
  O  O427  1  0.62524467  0.66906616  0.80654888  1
  O  O428  1  0.95638388  0.16536205  0.29971096  1
  O  O429  1  0.96356423  0.17278138  0.80843267  1
  O  O430  1  0.95111967  0.66454958  0.30030481  1
  O  O431  1  0.95351621  0.66178253  0.80482347  1
  F  F432  1  0.04735047  0.00282226  0.20108433  1
  F  F433  1  0.02939289  -0.00390999  0.69248001  1
  F  F434  1  0.04361603  0.49446545  0.19995225  1
  F  F435  1  0.04450891  0.49815763  0.70379325  1
  F  F436  1  0.37732832  0.00332382  0.19847433  1
  F  F437  1  0.38241702  0.00125037  0.70132395  1
  F  F438  1  0.37279034  0.49726077  0.20036871  1
  F  F439  1  0.37890785  0.49739169  0.70533527  1
  F  F440  1  0.71510433  0.00884850  0.19536395  1
  F  F441  1  0.71056793  -0.00074817  0.70246046  1
  F  F442  1  0.71124514  0.49382675  0.20364115  1
  F  F443  1  0.71185300  0.50128046  0.70527316  1
  F  F444  1  0.20982324  0.24859138  0.20345519  1
  F  F445  1  0.21954630  0.23924712  0.69912086  1
  F  F446  1  0.21253605  0.74928510  0.20072955  1
  F  F447  1  0.21275800  0.75169198  0.69990627  1
  F  F448  1  0.54746346  0.24758429  0.20018940  1
  F  F449  1  0.54347209  0.25268643  0.70371842  1
  F  F450  1  0.54377119  0.74611736  0.19974514  1
  F  F451  1  0.54721173  0.75212699  0.70412110  1
  F  F452  1  0.87808421  0.25218611  0.20188969  1
  F  F453  1  0.88122498  0.26072971  0.69939036  1
  F  F454  1  0.87443640  0.75024275  0.19868294  1
  F  F455  1  0.86947511  0.74748637  0.69796148  1
  F  F456  1  0.28952247  0.00031884  0.29437716  1
  F  F457  1  0.30039197  -0.00014009  0.80125257  1
  F  F458  1  0.28565113  0.49834207  0.29735493  1
  F  F459  1  0.28916655  0.49549944  0.80283340  1
  F  F460  1  0.61714531  0.00813021  0.29672778  1
  F  F461  1  0.62198122  -0.00041968  0.79817897  1
  F  F462  1  0.62168129  0.49895729  0.29996112  1
  F  F463  1  0.62471303  0.50369287  0.80279503  1
  F  F464  1  0.95491707  -0.00059264  0.29403679  1
  F  F465  1  0.95146949  -0.01168382  0.80266748  1
  F  F466  1  0.95362098  0.49847609  0.29669514  1
  F  F467  1  0.95389376  0.49929060  0.79930276  1
  F  F468  1  0.12143140  0.24757305  0.29842603  1
  F  F469  1  0.11850910  0.24330120  0.80122798  1
  F  F470  1  0.12648339  0.75419490  0.29773382  1
  F  F471  1  0.12785117  0.74726847  0.79897623  1
  F  F472  1  0.45161661  0.24302781  0.29963245  1
  F  F473  1  0.45560034  0.24812464  0.79920272  1
  F  F474  1  0.45485965  0.75092764  0.29508904  1
  F  F475  1  0.45568420  0.75422302  0.79839669  1
  F  F476  1  0.78834494  0.24899050  0.29755710  1
  F  F477  1  0.78365481  0.26092516  0.80271403  1
  F  F478  1  0.78917107  0.75276336  0.29957452  1
  F  F479  1  0.78849670  0.74957471  0.79847959  1
