# generated using pymatgen
data_K24Na3Li5Mg64Fe17Si79(O5F)48
_symmetry_space_group_name_H-M   'P 1'
_cell_length_a   16.07879780
_cell_length_b   18.57041378
_cell_length_c   20.54586327
_cell_angle_alpha   89.99295472
_cell_angle_beta   100.01189612
_cell_angle_gamma   90.01111627
_symmetry_Int_Tables_number   1
_chemical_formula_structural   K24Na3Li5Mg64Fe17Si79(O5F)48
_chemical_formula_sum   'K24 Na3 Li5 Mg64 Fe17 Si79 O240 F48'
_cell_volume   6041.36517482
_cell_formula_units_Z   1
loop_
 _symmetry_equiv_pos_site_id
 _symmetry_equiv_pos_as_xyz
  1  'x, y, z'
loop_
 _atom_site_type_symbol
 _atom_site_label
 _atom_site_symmetry_multiplicity
 _atom_site_fract_x
 _atom_site_fract_y
 _atom_site_fract_z
 _atom_site_occupancy
  K  K0  1  -0.00561362  0.00987072  -0.00809731  1
  K  K1  1  0.00280764  0.00527910  0.51019910  1
  K  K2  1  -0.00369797  0.50334520  -0.00596270  1
  K  K3  1  0.00796939  0.50410007  0.50739980  1
  K  K4  1  0.33026540  -0.00989880  -0.01056169  1
  K  K5  1  0.33191281  0.00889433  0.50855280  1
  K  K6  1  0.32858274  0.50432214  -0.00057825  1
  K  K7  1  0.32681377  0.50079866  0.50926793  1
  K  K8  1  0.67434040  -0.00341933  -0.00391542  1
  K  K9  1  0.67179659  0.01430672  0.50996450  1
  K  K10  1  0.66944791  0.50374663  -0.00101151  1
  K  K11  1  0.66806393  0.49894421  0.50356764  1
  K  K12  1  0.15987723  0.24987229  -0.00065297  1
  K  K13  1  0.16686635  0.24290338  0.50886855  1
  K  K14  1  0.17229893  0.74351075  -0.00939150  1
  K  K15  1  0.16442295  0.74110353  0.50956073  1
  K  K16  1  0.50715667  0.25117315  -0.00368048  1
  K  K17  1  0.50174939  0.24586859  0.51210113  1
  K  K18  1  0.50075672  0.74477259  -0.00192813  1
  K  K19  1  0.50172866  0.74302477  0.50511411  1
  K  K20  1  0.82613069  0.24542235  -0.00685697  1
  K  K21  1  0.84138147  0.24540884  0.50797770  1
  K  K22  1  0.82646576  0.74583183  -0.00048455  1
  K  K23  1  0.83649931  0.74744365  0.50353374  1
  Na  Na24  1  0.83196818  0.50100582  0.75360463  1
  Na  Na25  1  0.16547551  0.66840305  0.74822874  1
  Na  Na26  1  0.66483419  0.58158058  0.24110165  1
  Li  Li27  1  0.16531757  -0.00001291  0.75401967  1
  Li  Li28  1  0.49780092  0.49782778  0.75331916  1
  Li  Li29  1  0.33387088  0.58226911  0.24743820  1
  Li  Li30  1  0.00098743  0.58227877  0.24758475  1
  Li  Li31  1  0.83478719  0.16811437  0.25337818  1
  Mg  Mg32  1  0.66571175  0.74741463  0.74648932  1
  Mg  Mg33  1  0.50020688  0.00039458  0.74684847  1
  Mg  Mg34  1  0.83292664  0.00119312  0.74982280  1
  Mg  Mg35  1  0.00097599  0.74627974  0.25268128  1
  Mg  Mg36  1  0.16559211  0.00016545  0.25887161  1
  Mg  Mg37  1  0.16977376  0.50237953  0.24811331  1
  Mg  Mg38  1  0.83728480  0.50087467  0.24831212  1
  Mg  Mg39  1  -0.00114401  0.24992289  0.25400886  1
  Mg  Mg40  1  0.66914134  0.74880569  0.24616780  1
  Mg  Mg41  1  0.33014638  0.74936739  0.74599480  1
  Mg  Mg42  1  0.49990224  0.00134354  0.25066257  1
  Mg  Mg43  1  0.33306988  0.25043008  0.74919765  1
  Mg  Mg44  1  0.33461812  0.74735570  0.25155950  1
  Mg  Mg45  1  0.33314226  0.25210834  0.25270660  1
  Mg  Mg46  1  0.83357234  0.00168602  0.25156601  1
  Mg  Mg47  1  0.50007766  0.50074268  0.24635137  1
  Mg  Mg48  1  0.16625870  0.49982688  0.75003334  1
  Mg  Mg49  1  0.67021037  0.25079803  0.25044119  1
  Mg  Mg50  1  -0.00070930  0.75069767  0.74977754  1
  Mg  Mg51  1  -0.00061855  0.25048850  0.75155567  1
  Mg  Mg52  1  0.66458539  0.25085250  0.75012475  1
  Mg  Mg53  1  -0.00080448  0.91470291  0.25441419  1
  Mg  Mg54  1  0.33191298  0.41961020  0.24914491  1
  Mg  Mg55  1  0.33200185  0.08498097  0.25623441  1
  Mg  Mg56  1  0.16687828  0.83264208  0.25530566  1
  Mg  Mg57  1  0.33380324  0.41688169  0.74726015  1
  Mg  Mg58  1  0.83277535  0.16440455  0.74929545  1
  Mg  Mg59  1  0.66774003  0.91561801  0.74572362  1
  Mg  Mg60  1  0.00120117  0.08225674  0.75133686  1
  Mg  Mg61  1  0.66636985  0.08578642  0.74685573  1
  Mg  Mg62  1  0.50243214  0.16458601  0.74814904  1
  Mg  Mg63  1  0.49980450  0.16772837  0.25231303  1
  Mg  Mg64  1  0.66563403  0.41745623  0.24735163  1
  Mg  Mg65  1  0.00265031  0.41839787  0.25041448  1
  Mg  Mg66  1  0.49887172  0.83371487  0.74364123  1
  Mg  Mg67  1  0.49957700  0.66482037  0.24681089  1
  Mg  Mg68  1  -0.00036738  0.08506492  0.25795384  1
  Mg  Mg69  1  0.33264003  0.08189303  0.75027155  1
  Mg  Mg70  1  0.83222472  0.33549810  0.75076918  1
  Mg  Mg71  1  0.49916237  0.33603818  0.75211657  1
  Mg  Mg72  1  0.16897707  0.33376746  0.74875110  1
  Mg  Mg73  1  0.49745600  0.66359482  0.74749800  1
  Mg  Mg74  1  0.66466789  0.58057484  0.75102582  1
  Mg  Mg75  1  0.83666392  0.66484629  0.75187966  1
  Mg  Mg76  1  0.66892561  0.08598080  0.25149787  1
  Mg  Mg77  1  0.16498693  0.83732399  0.74971933  1
  Mg  Mg78  1  0.50133982  0.83461526  0.24978750  1
  Mg  Mg79  1  0.00231993  0.91760154  0.74910776  1
  Mg  Mg80  1  0.83004396  0.83245561  0.24799082  1
  Mg  Mg81  1  0.00223673  0.58527646  0.75014425  1
  Mg  Mg82  1  0.32963666  0.91648134  0.74881087  1
  Mg  Mg83  1  0.00108174  0.41745971  0.75139526  1
  Mg  Mg84  1  0.66240620  0.41820372  0.75143616  1
  Mg  Mg85  1  0.33380207  0.58073841  0.74769494  1
  Mg  Mg86  1  0.83597380  0.83349987  0.74961532  1
  Mg  Mg87  1  0.16793432  0.66364728  0.25036141  1
  Mg  Mg88  1  0.33334047  0.91553268  0.25411566  1
  Mg  Mg89  1  0.49962792  0.33599156  0.24751670  1
  Mg  Mg90  1  0.66681132  0.91605875  0.24864459  1
  Mg  Mg91  1  0.16560351  0.16532009  0.25813365  1
  Mg  Mg92  1  0.83393810  0.33275318  0.25048109  1
  Mg  Mg93  1  0.16740702  0.33609252  0.25013902  1
  Mg  Mg94  1  0.83365278  0.66379628  0.24634958  1
  Mg  Mg95  1  0.16752244  0.16374394  0.75025197  1
  Fe  Fe96  1  0.52242694  0.41201462  0.10786761  1
  Fe  Fe97  1  0.68828969  0.83463965  0.10695273  1
  Fe  Fe98  1  0.19418761  0.42105375  0.10953248  1
  Fe  Fe99  1  0.47169573  0.42259634  0.88850096  1
  Fe  Fe100  1  0.63856772  0.16351398  0.89027278  1
  Fe  Fe101  1  0.68908115  0.66290314  0.10399084  1
  Fe  Fe102  1  0.85715042  0.08164462  0.60936729  1
  Fe  Fe103  1  0.81163252  0.08061377  0.89024020  1
  Fe  Fe104  1  0.98040471  0.66555854  0.89204100  1
  Fe  Fe105  1  0.18880619  0.58054744  0.60695308  1
  Fe  Fe106  1  0.97621206  0.83447013  0.89040401  1
  Fe  Fe107  1  0.80045006  0.41713420  0.89013760  1
  Fe  Fe108  1  0.52812943  0.08101447  0.60620754  1
  Fe  Fe109  1  0.14000576  0.41307391  0.88805206  1
  Fe  Fe110  1  0.30996042  0.32998232  0.88997907  1
  Fe  Fe111  1  0.14242655  0.08277535  0.39886919  1
  Fe  Fe112  1  0.14227821  0.92274243  0.89010993  1
  Si  Si113  1  0.97413642  0.66367438  0.38562074  1
  Si  Si114  1  0.80894207  0.58369370  0.38456073  1
  Si  Si115  1  0.31241023  0.66661987  0.88216264  1
  Si  Si116  1  0.52114735  0.08995500  0.11694209  1
  Si  Si117  1  0.31119641  0.82881140  0.38894568  1
  Si  Si118  1  0.31146946  0.33781813  0.38824277  1
  Si  Si119  1  0.85977353  0.58341436  0.61235292  1
  Si  Si120  1  0.97379108  0.33776227  0.38809840  1
  Si  Si121  1  0.64166159  0.83542754  0.38707956  1
  Si  Si122  1  0.86621689  0.41319300  0.11636366  1
  Si  Si123  1  0.02372247  0.83539799  0.61075241  1
  Si  Si124  1  0.51194077  0.58071396  0.10855138  1
  Si  Si125  1  0.64217144  0.33260477  0.38617477  1
  Si  Si126  1  0.47674842  0.58931353  0.88442965  1
  Si  Si127  1  0.98060240  0.17078340  0.88791213  1
  Si  Si128  1  0.14823199  0.57921056  0.88707381  1
  Si  Si129  1  0.35956724  0.66792811  0.60846752  1
  Si  Si130  1  0.69255211  0.17651287  0.60580440  1
  Si  Si131  1  0.01746669  0.67006443  0.60791272  1
  Si  Si132  1  0.69108283  0.34130844  0.61210567  1
  Si  Si133  1  0.52342371  0.41723385  0.61388558  1
  Si  Si134  1  0.35982114  0.32726302  0.11447281  1
  Si  Si135  1  0.86495558  0.58021294  0.11251485  1
  Si  Si136  1  0.35921308  0.33129897  0.61144564  1
  Si  Si137  1  0.85947479  0.08276704  0.12050149  1
  Si  Si138  1  0.02714970  0.83394129  0.11968112  1
  Si  Si139  1  0.69841266  0.33286093  0.11312792  1
  Si  Si140  1  0.35806554  0.67343560  0.11443763  1
  Si  Si141  1  0.02685151  0.67046455  0.11768739  1
  Si  Si142  1  0.19176710  0.91660749  0.61318098  1
  Si  Si143  1  0.35798731  0.16520656  0.61115726  1
  Si  Si144  1  0.52708783  0.91062337  0.60696246  1
  Si  Si145  1  0.86301754  0.41631620  0.61320574  1
  Si  Si146  1  0.52118802  0.92521275  0.11333684  1
  Si  Si147  1  0.85329928  0.91264553  0.60928522  1
  Si  Si148  1  0.14211343  0.41740020  0.38751096  1
  Si  Si149  1  0.63769273  0.67148284  0.88168968  1
  Si  Si150  1  0.97262511  0.82911239  0.38793635  1
  Si  Si151  1  0.96907155  0.33440128  0.88763174  1
  Si  Si152  1  0.80615395  0.41857514  0.38582367  1
  Si  Si153  1  0.14313798  0.90888986  0.39341830  1
  Si  Si154  1  0.14380063  0.58375027  0.38500129  1
  Si  Si155  1  0.02446322  0.33016112  0.61250552  1
  Si  Si156  1  0.69203536  0.16635185  0.11770695  1
  Si  Si157  1  0.19009504  0.08030657  0.12092940  1
  Si  Si158  1  0.69150634  0.65832757  0.61269514  1
  Si  Si159  1  0.46815771  0.07785042  0.88504817  1
  Si  Si160  1  0.52424200  0.58282334  0.61383695  1
  Si  Si161  1  0.47640939  0.08389879  0.38794953  1
  Si  Si162  1  0.80299042  0.59110348  0.88901162  1
  Si  Si163  1  0.19009798  0.59195084  0.11283164  1
  Si  Si164  1  0.14649615  0.09086639  0.88701040  1
  Si  Si165  1  0.80696896  0.08324996  0.38666176  1
  Si  Si166  1  0.47398718  0.91324812  0.88066212  1
  Si  Si167  1  0.35681239  0.83453923  0.61059750  1
  Si  Si168  1  0.69200971  0.82380498  0.61132888  1
  Si  Si169  1  0.80569206  0.91022771  0.88411261  1
  Si  Si170  1  0.97170045  0.17112246  0.39200685  1
  Si  Si171  1  0.31269109  0.16444187  0.88462435  1
  Si  Si172  1  0.19117999  0.91579886  0.12090704  1
  Si  Si173  1  0.31170164  0.66357215  0.38579846  1
  Si  Si174  1  0.64226284  0.16661137  0.38737399  1
  Si  Si175  1  0.02434040  0.16441627  0.12003952  1
  Si  Si176  1  0.47994399  0.58380552  0.38465280  1
  Si  Si177  1  0.30961500  0.83093907  0.88574842  1
  Si  Si178  1  0.63885617  0.83510357  0.87895128  1
  Si  Si179  1  0.02724791  0.16456367  0.61272761  1
  Si  Si180  1  0.19407990  0.08290861  0.61668794  1
  Si  Si181  1  0.86419332  0.91803875  0.11547176  1
  Si  Si182  1  0.64199382  0.67056653  0.38447224  1
  Si  Si183  1  0.31355441  0.17145383  0.39254680  1
  Si  Si184  1  0.35216948  0.16535663  0.11922702  1
  Si  Si185  1  0.47726817  0.41848504  0.38598946  1
  Si  Si186  1  0.63521964  0.33294104  0.88837978  1
  Si  Si187  1  0.80926394  0.91756530  0.38721987  1
  Si  Si188  1  0.47489693  0.91694948  0.38786843  1
  Si  Si189  1  0.35833676  0.83835581  0.11694846  1
  Si  Si190  1  0.19079040  0.41163646  0.60775202  1
  Si  Si191  1  0.02896811  0.32855268  0.11586639  1
  O  O192  1  0.27313765  0.10991725  0.09210398  1
  O  O193  1  0.26768105  0.12338903  0.58363979  1
  O  O194  1  0.27107190  0.62989401  0.08534106  1
  O  O195  1  0.27667804  0.62709146  0.57063855  1
  O  O196  1  0.60290536  0.12240586  0.08829302  1
  O  O197  1  0.60622521  0.13642772  0.57001867  1
  O  O198  1  0.59457871  0.60232473  0.07771442  1
  O  O199  1  0.60289801  0.61704055  0.58052106  1
  O  O200  1  0.93934557  0.11789795  0.09068950  1
  O  O201  1  0.94819745  0.11950312  0.57378560  1
  O  O202  1  0.95069069  0.61456588  0.08865559  1
  O  O203  1  0.92482083  0.63151483  0.57586823  1
  O  O204  1  0.10670933  0.35425987  0.08210840  1
  O  O205  1  0.10296733  0.36462451  0.58089597  1
  O  O206  1  0.11285048  0.86185859  0.09336852  1
  O  O207  1  0.10182480  0.87596792  0.58103077  1
  O  O208  1  0.44816957  0.33341512  0.08758554  1
  O  O209  1  0.43662689  0.37175872  0.58101831  1
  O  O210  1  0.43478765  0.87730504  0.08681613  1
  O  O211  1  0.43427627  0.87194319  0.57957877  1
  O  O212  1  0.78475786  0.36207462  0.08827206  1
  O  O213  1  0.76857009  0.38259751  0.58238314  1
  O  O214  1  0.78770946  0.86975316  0.07874514  1
  O  O215  1  0.77032609  0.85972613  0.58085466  1
  O  O216  1  0.29149882  0.38606152  0.08170327  1
  O  O217  1  0.26945942  0.37018184  0.57909210  1
  O  O218  1  0.27366514  0.88740267  0.09129853  1
  O  O219  1  0.26811291  0.87729358  0.58007742  1
  O  O220  1  0.62175648  0.38210281  0.07778114  1
  O  O221  1  0.60297576  0.38504666  0.58033712  1
  O  O222  1  0.59783586  0.90119861  0.07819691  1
  O  O223  1  0.59968335  0.85965179  0.58029835  1
  O  O224  1  0.94517327  0.37696977  0.08761612  1
  O  O225  1  0.93596485  0.37306151  0.57957857  1
  O  O226  1  0.95304832  0.89191308  0.09209764  1
  O  O227  1  0.93492656  0.87725566  0.58031465  1
  O  O228  1  0.10587204  0.12843908  0.09219545  1
  O  O229  1  0.10967657  0.12934843  0.58590897  1
  O  O230  1  0.11107868  0.64858770  0.08739166  1
  O  O231  1  0.08714855  0.63046066  0.57208441  1
  O  O232  1  0.43713466  0.13967092  0.09062033  1
  O  O233  1  0.42465778  0.12612920  0.57229376  1
  O  O234  1  0.43535144  0.64115743  0.08141386  1
  O  O235  1  0.44196025  0.63212492  0.58067560  1
  O  O236  1  0.77166304  0.12648874  0.09173408  1
  O  O237  1  0.76910088  0.14377877  0.57247229  1
  O  O238  1  0.78454438  0.62295422  0.07326215  1
  O  O239  1  0.76451799  0.61546906  0.58069583  1
  O  O240  1  0.05484442  0.13105138  0.43157339  1
  O  O241  1  0.06516760  0.12230296  0.91778164  1
  O  O242  1  0.06656671  0.62539998  0.41424938  1
  O  O243  1  0.07136033  0.60362046  0.92452224  1
  O  O244  1  0.40408686  0.12841089  0.41779534  1
  O  O245  1  0.37697802  0.09537630  0.90875750  1
  O  O246  1  0.40053022  0.62050767  0.41494000  1
  O  O247  1  0.39380233  0.61742129  0.91597252  1
  O  O248  1  0.72788567  0.12069257  0.41635371  1
  O  O249  1  0.72390592  0.10486047  0.93332583  1
  O  O250  1  0.73304051  0.62947898  0.41200706  1
  O  O251  1  0.71366592  0.61812947  0.91457437  1
  O  O252  1  0.23202876  0.37560272  0.41727554  1
  O  O253  1  0.21055826  0.33898140  0.92210173  1
  O  O254  1  0.23040633  0.86088925  0.41852664  1
  O  O255  1  0.23727629  0.86175855  0.92334993  1
  O  O256  1  0.56458907  0.37280957  0.41564317  1
  O  O257  1  0.54578272  0.34618584  0.91378500  1
  O  O258  1  0.56408932  0.87535227  0.41729958  1
  O  O259  1  0.55517962  0.86146975  0.90848880  1
  O  O260  1  0.89866420  0.38246742  0.41668317  1
  O  O261  1  0.88373413  0.34652999  0.91870383  1
  O  O262  1  0.89648241  0.87245215  0.41675853  1
  O  O263  1  0.86692745  0.84449533  0.91274875  1
  O  O264  1  0.06498660  0.37732114  0.41801506  1
  O  O265  1  0.03743557  0.39493823  0.91817728  1
  O  O266  1  0.06444033  0.86533861  0.41875421  1
  O  O267  1  0.05000861  0.90449924  0.93022571  1
  O  O268  1  0.39799981  0.38382006  0.41750720  1
  O  O269  1  0.38031405  0.40252306  0.92822423  1
  O  O270  1  0.39763556  0.87611058  0.41688003  1
  O  O271  1  0.39599958  0.87949266  0.91225569  1
  O  O272  1  0.73137917  0.37465849  0.41625136  1
  O  O273  1  0.70059181  0.39555904  0.92101927  1
  O  O274  1  0.73050002  0.87837127  0.41607860  1
  O  O275  1  0.71272974  0.89233798  0.90736066  1
  O  O276  1  0.24339946  0.13500893  0.42906908  1
  O  O277  1  0.22402081  0.14882702  0.91192718  1
  O  O278  1  0.23373986  0.62524211  0.41637894  1
  O  O279  1  0.22773412  0.63880688  0.90873214  1
  O  O280  1  0.56622000  0.12427898  0.41627804  1
  O  O281  1  0.53951319  0.13144922  0.92197945  1
  O  O282  1  0.56738016  0.62870867  0.41703977  1
  O  O283  1  0.55048416  0.65196774  0.90872707  1
  O  O284  1  0.88902173  0.13254072  0.41643069  1
  O  O285  1  0.90522269  0.14123197  0.92357639  1
  O  O286  1  0.90072656  0.62041237  0.41802722  1
  O  O287  1  0.87728644  0.64629864  0.92130791  1
  O  O288  1  0.17053373  -0.00202918  0.09304282  1
  O  O289  1  0.18416438  0.00041738  0.58491443  1
  O  O290  1  0.16887721  0.51515054  0.07713940  1
  O  O291  1  0.17798943  0.48714683  0.56798459  1
  O  O292  1  0.49580475  0.00892598  0.08890812  1
  O  O293  1  0.52664225  -0.01318724  0.56940558  1
  O  O294  1  0.47777777  0.50237975  0.08015790  1
  O  O295  1  0.50823238  0.50027414  0.58399632  1
  O  O296  1  0.84814169  0.00174430  0.08905996  1
  O  O297  1  0.83292532  -0.01123275  0.57186799  1
  O  O298  1  0.85711324  0.49500795  0.08674669  1
  O  O299  1  0.86131417  0.49970950  0.58386890  1
  O  O300  1  0.00753585  0.24485799  0.08963350  1
  O  O301  1  0.01543230  0.24779543  0.58248026  1
  O  O302  1  0.00108485  0.75343213  0.09102755  1
  O  O303  1  0.01174124  0.75430181  0.57788129  1
  O  O304  1  0.32151334  0.24469307  0.09245350  1
  O  O305  1  0.34954910  0.24877555  0.58147021  1
  O  O306  1  0.34313654  0.75756039  0.08596593  1
  O  O307  1  0.35153365  0.75246482  0.58030592  1
  O  O308  1  0.68474805  0.24782375  0.08699548  1
  O  O309  1  0.68169757  0.26149781  0.57811420  1
  O  O310  1  0.65871025  0.75076139  0.06218086  1
  O  O311  1  0.68479762  0.74073057  0.58164977  1
  O  O312  1  0.15546866  -0.01398096  0.42965772  1
  O  O313  1  0.17686422  0.01585192  0.92332353  1
  O  O314  1  0.14973475  0.50086711  0.41576255  1
  O  O315  1  0.18517301  0.50272484  0.91789275  1
  O  O316  1  0.48097195  0.00039154  0.41580103  1
  O  O317  1  0.49227375  -0.00584760  0.91148913  1
  O  O318  1  0.49242674  0.50111100  0.41544477  1
  O  O319  1  0.51141158  0.51510156  0.91917311  1
  O  O320  1  0.81966105  0.00027807  0.41709185  1
  O  O321  1  0.83971491  -0.01463472  0.91873562  1
  O  O322  1  0.80650292  0.50129094  0.41569865  1
  O  O323  1  0.82756738  0.51193922  0.92022748  1
  O  O324  1  0.32802333  0.25585812  0.41856477  1
  O  O325  1  0.35542682  0.23682071  0.91756831  1
  O  O326  1  0.32697680  0.74625011  0.41753299  1
  O  O327  1  0.33303282  0.74840617  0.91313243  1
  O  O328  1  0.64984350  0.24948457  0.41657433  1
  O  O329  1  0.67216705  0.25586615  0.91983348  1
  O  O330  1  0.65069199  0.75298388  0.41771923  1
  O  O331  1  0.66372689  0.75418367  0.90728859  1
  O  O332  1  0.97354055  0.25607559  0.41896468  1
  O  O333  1  1.00607667  0.25332719  0.91279427  1
  O  O334  1  0.97602526  0.74632540  0.41733457  1
  O  O335  1  1.02018103  0.75151132  0.93063017  1
  O  O336  1  0.21055434  0.08197254  0.20162241  1
  O  O337  1  0.21303427  0.08370735  0.69589513  1
  O  O338  1  0.20769230  0.58690732  0.19327081  1
  O  O339  1  0.21479474  0.57575826  0.69596035  1
  O  O340  1  0.54159967  0.08634497  0.19790137  1
  O  O341  1  0.54374931  0.08042720  0.69716033  1
  O  O342  1  0.52854387  0.58422671  0.18940534  1
  O  O343  1  0.54352464  0.58775333  0.69261911  1
  O  O344  1  0.88030847  0.08151413  0.20046004  1
  O  O345  1  0.87937642  0.08344880  0.70015733  1
  O  O346  1  0.87619088  0.58202650  0.19288024  1
  O  O347  1  0.87807104  0.58858393  0.69089835  1
  O  O348  1  0.04510402  0.33045361  0.19735668  1
  O  O349  1  0.04125336  0.33098381  0.69216830  1
  O  O350  1  0.04544503  0.83392913  0.20085788  1
  O  O351  1  0.04220611  0.83466446  0.69006442  1
  O  O352  1  0.37564362  0.33031417  0.19686222  1
  O  O353  1  0.37688820  0.33116183  0.69080896  1
  O  O354  1  0.37700129  0.83690512  0.19782725  1
  O  O355  1  0.37594264  0.83537646  0.69069793  1
  O  O356  1  0.71209372  0.33157216  0.19457898  1
  O  O357  1  0.70708042  0.33567413  0.69150077  1
  O  O358  1  0.70970699  0.83631427  0.20052413  1
  O  O359  1  0.70806840  0.82971306  0.69115123  1
  O  O360  1  0.21163872  0.41661665  0.20190828  1
  O  O361  1  0.20948920  0.41402807  0.68760220  1
  O  O362  1  0.21055742  0.91697095  0.20195594  1
  O  O363  1  0.21293534  0.91411165  0.69202662  1
  O  O364  1  0.54545580  0.41544885  0.20039940  1
  O  O365  1  0.54335103  0.41211574  0.69251371  1
  O  O366  1  0.54023664  0.92065140  0.19498805  1
  O  O367  1  0.54326270  0.91406603  0.68770189  1
  O  O368  1  0.88152186  0.41378134  0.19715221  1
  O  O369  1  0.88272343  0.40971144  0.69178071  1
  O  O370  1  0.87810612  0.91707787  0.19721079  1
  O  O371  1  0.87096977  0.91616236  0.68949877  1
  O  O372  1  0.04361723  0.16525453  0.20055103  1
  O  O373  1  0.04240680  0.16587512  0.69307940  1
  O  O374  1  0.04713872  0.67108927  0.19776979  1
  O  O375  1  0.03205057  0.66961861  0.68711584  1
  O  O376  1  0.37442562  0.16423005  0.20032212  1
  O  O377  1  0.37728439  0.16439684  0.69161215  1
  O  O378  1  0.37822008  0.67437002  0.19442288  1
  O  O379  1  0.37602060  0.66794912  0.68876259  1
  O  O380  1  0.70567411  0.16663351  0.19758640  1
  O  O381  1  0.70840484  0.17139990  0.68647565  1
  O  O382  1  0.71785694  0.67597605  0.19472350  1
  O  O383  1  0.70845479  0.66290921  0.69223182  1
  O  O384  1  0.12283592  0.08263095  0.30681416  1
  O  O385  1  0.12249332  0.08801466  0.80661569  1
  O  O386  1  0.12921390  0.58331316  0.30583239  1
  O  O387  1  0.12121395  0.57732636  0.80694604  1
  O  O388  1  0.45750929  0.08349752  0.30738825  1
  O  O389  1  0.45549647  0.08002611  0.80399208  1
  O  O390  1  0.46374655  0.58468291  0.30552487  1
  O  O391  1  0.45459883  0.58815549  0.80403159  1
  O  O392  1  0.78738342  0.08031147  0.30713685  1
  O  O393  1  0.78491279  0.08321296  0.79768866  1
  O  O394  1  0.79951877  0.58200247  0.30586657  1
  O  O395  1  0.78257090  0.59387775  0.80822570  1
  O  O396  1  0.29222478  0.33393438  0.30818469  1
  O  O397  1  0.28939589  0.33219887  0.79638913  1
  O  O398  1  0.29277441  0.83254240  0.30847107  1
  O  O399  1  0.29173303  0.83310677  0.80477750  1
  O  O400  1  0.62471872  0.33100331  0.30631117  1
  O  O401  1  0.62084069  0.33204795  0.80588945  1
  O  O402  1  0.62133192  0.83749261  0.30701686  1
  O  O403  1  0.62027959  0.83336483  0.79811265  1
  O  O404  1  0.95807017  0.33530351  0.30798900  1
  O  O405  1  0.95460227  0.33336279  0.80557461  1
  O  O406  1  0.95596824  0.83213984  0.30765026  1
  O  O407  1  0.95462620  0.83542612  0.79684009  1
  O  O408  1  0.12344431  0.41520016  0.30778712  1
  O  O409  1  0.12257185  0.41426437  0.79531688  1
  O  O410  1  0.12490969  0.91338729  0.31221656  1
  O  O411  1  0.12136983  0.91776640  0.79911219  1
  O  O412  1  0.45595285  0.41523942  0.30634236  1
  O  O413  1  0.45142246  0.41626350  0.79773559  1
  O  O414  1  0.45730867  0.91735729  0.30727728  1
  O  O415  1  0.45641716  0.91463199  0.79994067  1
  O  O416  1  0.78993372  0.41566160  0.30601794  1
  O  O417  1  0.78022003  0.40920862  0.79998693  1
  O  O418  1  0.79115227  0.91802134  0.30700517  1
  O  O419  1  0.78729468  0.91474724  0.80201477  1
  O  O420  1  0.29230886  0.16775193  0.31145445  1
  O  O421  1  0.29240896  0.16542803  0.80314961  1
  O  O422  1  0.29053532  0.66897769  0.30655306  1
  O  O423  1  0.30236356  0.66805380  0.80282201  1
  O  O424  1  0.62319560  0.16646408  0.30718066  1
  O  O425  1  0.62223064  0.16608982  0.79759145  1
  O  O426  1  0.61870054  0.67568346  0.30565125  1
  O  O427  1  0.62016270  0.66922182  0.80093097  1
  O  O428  1  0.96251658  0.16862369  0.31214616  1
  O  O429  1  0.95927717  0.16754111  0.80676962  1
  O  O430  1  0.95502410  0.66776909  0.30637880  1
  O  O431  1  0.95671182  0.66783717  0.79913518  1
  F  F432  1  0.04582152  -0.00209837  0.20851687  1
  F  F433  1  0.03704854  0.00190793  0.69701128  1
  F  F434  1  0.04916058  0.49633010  0.20285216  1
  F  F435  1  0.04337617  0.50167846  0.69598776  1
  F  F436  1  0.37651079  0.00100908  0.20678617  1
  F  F437  1  0.37829957  -0.00151391  0.69797470  1
  F  F438  1  0.37888885  0.49820059  0.20385825  1
  F  F439  1  0.37335281  0.50042613  0.69471022  1
  F  F440  1  0.71120836  0.00175596  0.20330096  1
  F  F441  1  0.70955804  -0.00232509  0.69619952  1
  F  F442  1  0.72159317  0.48843113  0.19816560  1
  F  F443  1  0.69638396  0.50123683  0.69411228  1
  F  F444  1  0.21169198  0.24618858  0.20797821  1
  F  F445  1  0.21072495  0.24577651  0.69758178  1
  F  F446  1  0.21316316  0.75335683  0.20566425  1
  F  F447  1  0.21555812  0.76181137  0.69478886  1
  F  F448  1  0.54641417  0.24788279  0.20550418  1
  F  F449  1  0.54309562  0.25175366  0.69796689  1
  F  F450  1  0.54348001  0.75411857  0.20173503  1
  F  F451  1  0.54402694  0.74955097  0.69546223  1
  F  F452  1  0.88170721  0.25130564  0.20542110  1
  F  F453  1  0.87911440  0.24976536  0.70145344  1
  F  F454  1  0.88247910  0.75186424  0.20369547  1
  F  F455  1  0.87248353  0.75057065  0.69669824  1
  F  F456  1  0.29039395  -0.00098934  0.30481497  1
  F  F457  1  0.29524973  -0.00207919  0.79809981  1
  F  F458  1  0.28766468  0.49854725  0.30312543  1
  F  F459  1  0.28937012  0.49790094  0.79625312  1
  F  F460  1  0.62057537  0.00085548  0.29895221  1
  F  F461  1  0.62043345  -0.00527155  0.79429188  1
  F  F462  1  0.61929439  0.49299368  0.30262082  1
  F  F463  1  0.62078969  0.50135230  0.79789885  1
  F  F464  1  0.95432740  -0.00213189  0.30379614  1
  F  F465  1  0.95389880  -0.00166946  0.79794857  1
  F  F466  1  0.95440953  0.49474750  0.30151860  1
  F  F467  1  0.96532302  0.50100261  0.79803865  1
  F  F468  1  0.12251704  0.25193965  0.30267435  1
  F  F469  1  0.12122801  0.24883805  0.79329314  1
  F  F470  1  0.12374810  0.74932786  0.30306185  1
  F  F471  1  0.11752948  0.75999613  0.79766224  1
  F  F472  1  0.45571525  0.24993493  0.30086395  1
  F  F473  1  0.45422007  0.24692936  0.79293832  1
  F  F474  1  0.45537148  0.75326124  0.29988499  1
  F  F475  1  0.45422641  0.75225453  0.79071570  1
  F  F476  1  0.78652440  0.25463183  0.30249059  1
  F  F477  1  0.78641792  0.24826956  0.79324319  1
  F  F478  1  0.79116385  0.75158294  0.30213621  1
  F  F479  1  0.78414107  0.75052316  0.79271448  1
