# generated using pymatgen
data_K24Na3Li5Mg64Fe17Si79(O5F)48
_symmetry_space_group_name_H-M   'P 1'
_cell_length_a   16.11352387
_cell_length_b   18.61342144
_cell_length_c   20.57941777
_cell_angle_alpha   89.95463144
_cell_angle_beta   100.03025911
_cell_angle_gamma   90.04504809
_symmetry_Int_Tables_number   1
_chemical_formula_structural   K24Na3Li5Mg64Fe17Si79(O5F)48
_chemical_formula_sum   'K24 Na3 Li5 Mg64 Fe17 Si79 O240 F48'
_cell_volume   6077.99788606
_cell_formula_units_Z   1
loop_
 _symmetry_equiv_pos_site_id
 _symmetry_equiv_pos_as_xyz
  1  'x, y, z'
loop_
 _atom_site_type_symbol
 _atom_site_label
 _atom_site_symmetry_multiplicity
 _atom_site_fract_x
 _atom_site_fract_y
 _atom_site_fract_z
 _atom_site_occupancy
  K  K0  1  0.00914223  0.00517936  -0.00785137  1
  K  K1  1  -0.00165381  -0.00175541  0.50093669  1
  K  K2  1  0.00026901  0.48739101  -0.00882557  1
  K  K3  1  0.00811931  0.48814472  0.51168407  1
  K  K4  1  0.32085097  0.01461341  -0.00320606  1
  K  K5  1  0.34437392  0.00327729  0.49931787  1
  K  K6  1  0.33374150  0.49398552  -0.00346336  1
  K  K7  1  0.31880734  0.50025651  0.50586018  1
  K  K8  1  0.65467839  0.01243461  -0.00163646  1
  K  K9  1  0.66565700  0.01437431  0.50245411  1
  K  K10  1  0.67144521  0.49153159  -0.00449960  1
  K  K11  1  0.67917831  0.50332000  0.50673428  1
  K  K12  1  0.16151073  0.25429517  -0.01701237  1
  K  K13  1  0.15866421  0.25267534  0.51270767  1
  K  K14  1  0.17181421  0.75401172  0.00036178  1
  K  K15  1  0.17451593  0.73446810  0.49720861  1
  K  K16  1  0.49061720  0.24539699  -0.00315825  1
  K  K17  1  0.50906814  0.25053460  0.50690221  1
  K  K18  1  0.48584866  0.74550746  -0.00362837  1
  K  K19  1  0.49541193  0.75394415  0.49925654  1
  K  K20  1  0.83294391  0.25935781  -0.01226157  1
  K  K21  1  0.83602829  0.25934454  0.50965225  1
  K  K22  1  0.83434344  0.74938358  -0.00541111  1
  K  K23  1  0.83178005  0.74819073  0.50602377  1
  Na  Na24  1  0.66897174  0.25162031  0.75201349  1
  Na  Na25  1  0.16748026  0.83083884  0.24632063  1
  Na  Na26  1  0.83217571  0.16715633  0.25353655  1
  Li  Li27  1  0.49873553  0.00139266  0.25697349  1
  Li  Li28  1  0.01123242  0.25061424  0.75189196  1
  Li  Li29  1  0.15475322  0.17693273  0.75203929  1
  Li  Li30  1  0.15907775  0.32086301  0.75343541  1
  Li  Li31  1  -0.00069095  0.57839102  0.74569342  1
  Mg  Mg32  1  -0.00180073  0.24823668  0.25037778  1
  Mg  Mg33  1  0.49728150  0.49986151  0.75416054  1
  Mg  Mg34  1  0.16821757  -0.00212035  0.24722309  1
  Mg  Mg35  1  0.66669028  0.24885006  0.25299979  1
  Mg  Mg36  1  0.33292123  0.75272586  0.24942670  1
  Mg  Mg37  1  0.33259948  0.74710273  0.75141129  1
  Mg  Mg38  1  0.66756138  0.75010197  0.75032191  1
  Mg  Mg39  1  -0.00097866  0.74773988  0.74742147  1
  Mg  Mg40  1  0.66658738  0.75048560  0.25014508  1
  Mg  Mg41  1  0.83186917  -0.00037182  0.24959449  1
  Mg  Mg42  1  0.83472100  0.00494902  0.74624039  1
  Mg  Mg43  1  0.33390369  0.24879302  0.24719252  1
  Mg  Mg44  1  0.32624514  0.25038294  0.75512165  1
  Mg  Mg45  1  0.16307403  0.49733678  0.74553613  1
  Mg  Mg46  1  0.83467490  0.50119023  0.74883825  1
  Mg  Mg47  1  0.16640405  0.49768900  0.24829332  1
  Mg  Mg48  1  0.50043694  0.49861209  0.24695256  1
  Mg  Mg49  1  0.00121874  0.74848283  0.24860004  1
  Mg  Mg50  1  0.83385580  0.49859397  0.25179324  1
  Mg  Mg51  1  0.49953188  0.00312646  0.75293793  1
  Mg  Mg52  1  0.16572589  0.00379312  0.74946159  1
  Mg  Mg53  1  0.00157412  0.09103362  0.74614317  1
  Mg  Mg54  1  0.33085968  0.08717604  0.75618216  1
  Mg  Mg55  1  0.49924032  0.33331080  0.75484999  1
  Mg  Mg56  1  0.16706931  0.33351546  0.24727036  1
  Mg  Mg57  1  0.50014480  0.83493696  0.75268512  1
  Mg  Mg58  1  0.83432454  0.33545754  0.74781746  1
  Mg  Mg59  1  0.66816496  0.08684092  0.74922475  1
  Mg  Mg60  1  0.50288894  0.16343534  0.25424155  1
  Mg  Mg61  1  0.16588485  0.83357805  0.75016236  1
  Mg  Mg62  1  0.83441008  0.83350516  0.24820940  1
  Mg  Mg63  1  0.33626826  0.08171835  0.25177938  1
  Mg  Mg64  1  0.00147712  0.91466287  0.24546347  1
  Mg  Mg65  1  0.66706355  0.91791586  0.74888680  1
  Mg  Mg66  1  0.33158708  0.41483465  0.24498430  1
  Mg  Mg67  1  0.00241163  0.58211240  0.25094720  1
  Mg  Mg68  1  0.83262191  0.33326921  0.25278233  1
  Mg  Mg69  1  0.33166331  0.58450049  0.24783550  1
  Mg  Mg70  1  0.66690515  0.41724658  0.75304588  1
  Mg  Mg71  1  0.49954173  0.66628162  0.24806150  1
  Mg  Mg72  1  0.49987706  0.66476097  0.75162507  1
  Mg  Mg73  1  0.49949215  0.83760913  0.25062576  1
  Mg  Mg74  1  0.83754277  0.17170673  0.74599763  1
  Mg  Mg75  1  0.66711809  0.58328057  0.24883287  1
  Mg  Mg76  1  0.83336862  0.66564266  0.74901691  1
  Mg  Mg77  1  0.50115978  0.33435077  0.24883766  1
  Mg  Mg78  1  0.33249549  0.58184437  0.75270088  1
  Mg  Mg79  1  -0.00000412  0.41733048  0.74850870  1
  Mg  Mg80  1  0.16515099  0.16480792  0.24861994  1
  Mg  Mg81  1  -0.00141878  0.08159760  0.24864020  1
  Mg  Mg82  1  0.33354860  0.91655964  0.75258483  1
  Mg  Mg83  1  0.66467863  0.08280496  0.25437900  1
  Mg  Mg84  1  0.66764435  0.41474712  0.25124809  1
  Mg  Mg85  1  0.83220093  0.83541404  0.74684739  1
  Mg  Mg86  1  0.49914137  0.16652109  0.75344859  1
  Mg  Mg87  1  0.16705417  0.66372987  0.24978902  1
  Mg  Mg88  1  0.00101554  0.41283200  0.25257935  1
  Mg  Mg89  1  0.16328627  0.66273367  0.74970808  1
  Mg  Mg90  1  -0.00045190  0.91820631  0.74822752  1
  Mg  Mg91  1  0.83463421  0.66510730  0.25071529  1
  Mg  Mg92  1  0.33623305  0.91847117  0.24959765  1
  Mg  Mg93  1  0.66481496  0.91667639  0.25267199  1
  Mg  Mg94  1  0.66743221  0.58614226  0.75253646  1
  Mg  Mg95  1  0.32978118  0.41481270  0.75113834  1
  Fe  Fe96  1  0.18878914  0.91744719  0.10754985  1
  Fe  Fe97  1  0.19285178  0.41587817  0.10689549  1
  Fe  Fe98  1  0.48070356  0.58643306  0.89356570  1
  Fe  Fe99  1  0.47797445  0.91861709  0.39097155  1
  Fe  Fe100  1  0.80688319  0.41967756  0.89063394  1
  Fe  Fe101  1  0.13953358  0.57858009  0.38851983  1
  Fe  Fe102  1  0.64559757  0.17186701  0.39375032  1
  Fe  Fe103  1  0.47477379  0.08471665  0.89362915  1
  Fe  Fe104  1  0.81207576  0.42076215  0.39062975  1
  Fe  Fe105  1  0.53219890  0.41495313  0.10954178  1
  Fe  Fe106  1  0.86101673  0.08407073  0.60626094  1
  Fe  Fe107  1  0.69305773  0.17510830  0.60873413  1
  Fe  Fe108  1  0.02380362  0.32618438  0.61349001  1
  Fe  Fe109  1  0.19376400  0.58345200  0.61078904  1
  Fe  Fe110  1  0.68757208  0.66461687  0.61074937  1
  Fe  Fe111  1  0.47960592  0.41199324  0.89252236  1
  Fe  Fe112  1  0.13812842  0.08723681  0.88655371  1
  Si  Si113  1  0.01650581  0.82812065  0.10921542  1
  Si  Si114  1  0.70023778  0.32875998  0.11324564  1
  Si  Si115  1  0.36187803  0.83620273  0.11068898  1
  Si  Si116  1  0.64305138  0.66242301  0.38343732  1
  Si  Si117  1  0.19591654  0.41403138  0.61085094  1
  Si  Si118  1  0.36390774  0.32689916  0.11039032  1
  Si  Si119  1  0.52412170  0.92058060  0.61741010  1
  Si  Si120  1  0.97901317  0.83428456  0.38311167  1
  Si  Si121  1  0.30204901  0.66351920  0.88889744  1
  Si  Si122  1  0.35799328  0.67053611  0.11418143  1
  Si  Si123  1  0.30815710  0.32938849  0.38333672  1
  Si  Si124  1  0.81262617  0.58889000  0.38578642  1
  Si  Si125  1  0.13410322  0.58373171  0.88351265  1
  Si  Si126  1  0.03169872  0.15852370  0.60799082  1
  Si  Si127  1  0.52562263  0.08058730  0.11793301  1
  Si  Si128  1  0.02376243  0.33091625  0.11350424  1
  Si  Si129  1  0.30674375  0.82910316  0.88555385  1
  Si  Si130  1  0.14252015  0.08085071  0.38450302  1
  Si  Si131  1  0.85720951  0.57925350  0.11525332  1
  Si  Si132  1  0.18963167  0.58804129  0.11043565  1
  Si  Si133  1  0.64601987  0.82820152  0.38809235  1
  Si  Si134  1  0.64515111  0.16187883  0.88848363  1
  Si  Si135  1  0.68954583  0.16358223  0.11567607  1
  Si  Si136  1  0.97239782  0.67028166  0.88336775  1
  Si  Si137  1  0.13631261  0.41976774  0.88304334  1
  Si  Si138  1  0.30917709  0.83397594  0.38710868  1
  Si  Si139  1  0.68652288  0.34768370  0.61273216  1
  Si  Si140  1  0.01868600  0.16783988  0.11417988  1
  Si  Si141  1  0.97284607  0.33553386  0.88561829  1
  Si  Si142  1  0.85700156  0.42151567  0.61113773  1
  Si  Si143  1  0.30807421  0.17302629  0.89358064  1
  Si  Si144  1  0.36072081  0.32958586  0.61734989  1
  Si  Si145  1  0.64657402  0.83867050  0.88513025  1
  Si  Si146  1  0.97797639  0.15880831  0.38493250  1
  Si  Si147  1  0.52507812  0.08453203  0.61458025  1
  Si  Si148  1  0.85700365  0.07924652  0.11368157  1
  Si  Si149  1  0.20050855  0.07957215  0.61518620  1
  Si  Si150  1  0.46863314  0.41690433  0.38362857  1
  Si  Si151  1  0.97007362  0.16884720  0.88523497  1
  Si  Si152  1  0.52267900  0.58068014  0.61499672  1
  Si  Si153  1  0.85692217  0.91569936  0.11122551  1
  Si  Si154  1  0.36028956  0.83469208  0.61667683  1
  Si  Si155  1  0.19286371  0.91576187  0.61493781  1
  Si  Si156  1  0.02687333  0.67187980  0.61197065  1
  Si  Si157  1  0.18483735  0.08753140  0.11277117  1
  Si  Si158  1  0.80931751  0.58917320  0.88942957  1
  Si  Si159  1  0.64001818  0.34214274  0.38932951  1
  Si  Si160  1  0.81178978  0.91103204  0.38492544  1
  Si  Si161  1  0.85286594  0.91407531  0.61128741  1
  Si  Si162  1  0.52344841  0.58696308  0.11212135  1
  Si  Si163  1  0.80951882  0.07496401  0.38723353  1
  Si  Si164  1  0.47495773  0.58294398  0.38311766  1
  Si  Si165  1  0.47548555  0.91164192  0.88970785  1
  Si  Si166  1  0.64111988  0.32756164  0.89006104  1
  Si  Si167  1  0.14131640  0.91759631  0.38268646  1
  Si  Si168  1  0.86119235  0.58786558  0.61228845  1
  Si  Si169  1  0.01976267  0.66437114  0.11266199  1
  Si  Si170  1  0.97459689  0.83367768  0.88290720  1
  Si  Si171  1  0.97236886  0.67035649  0.38523689  1
  Si  Si172  1  0.02337304  0.83606646  0.61398175  1
  Si  Si173  1  0.36377331  0.67004778  0.61372192  1
  Si  Si174  1  0.64521411  0.67580349  0.88939244  1
  Si  Si175  1  0.51949467  0.41949302  0.61785313  1
  Si  Si176  1  0.36004763  0.16566658  0.61752939  1
  Si  Si177  1  0.53044017  0.91428030  0.11508828  1
  Si  Si178  1  0.14246074  0.91539447  0.88551788  1
  Si  Si179  1  0.86306189  0.41425654  0.11736944  1
  Si  Si180  1  0.31095377  0.66743585  0.38632950  1
  Si  Si181  1  0.69315490  0.83256849  0.11355905  1
  Si  Si182  1  0.35759676  0.16130366  0.11656565  1
  Si  Si183  1  0.69334730  0.66668420  0.11440731  1
  Si  Si184  1  0.68566459  0.83441530  0.61317204  1
  Si  Si185  1  0.30533248  0.16548113  0.38436291  1
  Si  Si186  1  0.80944028  0.08335613  0.88505527  1
  Si  Si187  1  0.47300512  0.08965131  0.39094849  1
  Si  Si188  1  0.30383124  0.33957094  0.88759861  1
  Si  Si189  1  0.81154005  0.92031579  0.88341252  1
  Si  Si190  1  0.14189593  0.40727996  0.38705402  1
  Si  Si191  1  0.97620715  0.32426396  0.38832162  1
  O  O192  1  0.27002772  0.11825708  0.08729003  1
  O  O193  1  0.27996495  0.11454093  0.58448756  1
  O  O194  1  0.26974691  0.62868861  0.08398867  1
  O  O195  1  0.28405200  0.62582291  0.57647478  1
  O  O196  1  0.60117095  0.12021599  0.08506417  1
  O  O197  1  0.59856661  0.11335374  0.57806789  1
  O  O198  1  0.60415125  0.62688594  0.08565766  1
  O  O199  1  0.60093113  0.59896329  0.57808012  1
  O  O200  1  0.93626218  0.11687077  0.08454306  1
  O  O201  1  0.96134096  0.10008666  0.57405508  1
  O  O202  1  0.93768660  0.61208103  0.08477949  1
  O  O203  1  0.94284435  0.62323822  0.58486425  1
  O  O204  1  0.10075591  0.35392486  0.07742768  1
  O  O205  1  0.11552450  0.36557463  0.57881494  1
  O  O206  1  0.09474166  0.85536532  0.07666083  1
  O  O207  1  0.10402728  0.87291058  0.58570317  1
  O  O208  1  0.44805400  0.34761573  0.08172974  1
  O  O209  1  0.44325167  0.36246245  0.58885085  1
  O  O210  1  0.44681502  0.86704290  0.08400189  1
  O  O211  1  0.43979797  0.87201301  0.58853619  1
  O  O212  1  0.78777260  0.35791364  0.08925635  1
  O  O213  1  0.76327261  0.38639374  0.58125543  1
  O  O214  1  0.77018272  0.87041612  0.08302237  1
  O  O215  1  0.77276469  0.85831906  0.58648170  1
  O  O216  1  0.28628913  0.37764097  0.07652612  1
  O  O217  1  0.27931853  0.37702457  0.58365292  1
  O  O218  1  0.28271641  0.88158131  0.07299721  1
  O  O219  1  0.27158402  0.87651322  0.58657366  1
  O  O220  1  0.62744020  0.38170325  0.07752550  1
  O  O221  1  0.60255032  0.39985130  0.58550122  1
  O  O222  1  0.60781792  0.87712686  0.08243639  1
  O  O223  1  0.60754313  0.89243936  0.58881271  1
  O  O224  1  0.94541824  0.38721834  0.08755068  1
  O  O225  1  0.92626002  0.38114130  0.57650909  1
  O  O226  1  0.93102149  0.87619172  0.07900556  1
  O  O227  1  0.93752922  0.88145553  0.58454353  1
  O  O228  1  0.10367546  0.14229993  0.08659977  1
  O  O229  1  0.12006616  0.12817084  0.58354889  1
  O  O230  1  0.10416793  0.63831801  0.08458038  1
  O  O231  1  0.10264425  0.64394415  0.57663029  1
  O  O232  1  0.43519502  0.12057147  0.08815709  1
  O  O233  1  0.43931355  0.13185259  0.58722196  1
  O  O234  1  0.43921306  0.63705592  0.08613517  1
  O  O235  1  0.44829017  0.63991611  0.58758633  1
  O  O236  1  0.76766120  0.12170927  0.08735980  1
  O  O237  1  0.77987605  0.14730918  0.56652136  1
  O  O238  1  0.77206231  0.62717302  0.08641333  1
  O  O239  1  0.78133893  0.63489177  0.57485601  1
  O  O240  1  0.06174688  0.10990400  0.41576567  1
  O  O241  1  0.04667733  0.12050588  0.92422970  1
  O  O242  1  0.04474915  0.61656549  0.41984757  1
  O  O243  1  0.05515625  0.62140422  0.91339728  1
  O  O244  1  0.38311794  0.11399453  0.41644507  1
  O  O245  1  0.39202842  0.13036990  0.93160179  1
  O  O246  1  0.40148022  0.62537383  0.41347063  1
  O  O247  1  0.38214918  0.61891994  0.92572702  1
  O  O248  1  0.73508012  0.10648403  0.42163769  1
  O  O249  1  0.72766351  0.10904862  0.91648123  1
  O  O250  1  0.72512160  0.61303634  0.41195065  1
  O  O251  1  0.73065409  0.62899285  0.91772164  1
  O  O252  1  0.22578424  0.35661952  0.41253004  1
  O  O253  1  0.22060719  0.37405947  0.91408148  1
  O  O254  1  0.21998480  0.86348165  0.40940276  1
  O  O255  1  0.22670830  0.86517469  0.91284071  1
  O  O256  1  0.54994483  0.36784498  0.41343854  1
  O  O257  1  0.55773101  0.33849325  0.92345671  1
  O  O258  1  0.57304879  0.85932647  0.42407048  1
  O  O259  1  0.56340554  0.86442989  0.91516495  1
  O  O260  1  0.90049876  0.35604220  0.42130708  1
  O  O261  1  0.90480310  0.36896934  0.92752146  1
  O  O262  1  0.89747020  0.86403503  0.41287181  1
  O  O263  1  0.89400434  0.86918290  0.91223723  1
  O  O264  1  0.06496044  0.36721686  0.41588490  1
  O  O265  1  0.06149142  0.37996132  0.91491793  1
  O  O266  1  0.05941040  0.88619059  0.41302811  1
  O  O267  1  0.06098848  0.87748965  0.91263109  1
  O  O268  1  0.38794032  0.38225725  0.41269652  1
  O  O269  1  0.38084775  0.38858326  0.92467039  1
  O  O270  1  0.38504679  0.88150891  0.42754842  1
  O  O271  1  0.39733020  0.86762833  0.91554434  1
  O  O272  1  0.70810416  0.40435567  0.41710549  1
  O  O273  1  0.71775366  0.37902464  0.92638076  1
  O  O274  1  0.73601732  0.87089619  0.41472234  1
  O  O275  1  0.72842019  0.89080524  0.91306560  1
  O  O276  1  0.22230768  0.13420488  0.41268618  1
  O  O277  1  0.23062115  0.14114935  0.92635193  1
  O  O278  1  0.23857864  0.63093320  0.42044007  1
  O  O279  1  0.21713033  0.63281341  0.91514276  1
  O  O280  1  0.54363300  0.14826745  0.42180420  1
  O  O281  1  0.57396520  0.13512235  0.93010872  1
  O  O282  1  0.56311224  0.62626531  0.41150836  1
  O  O283  1  0.56744164  0.65533752  0.92525993  1
  O  O284  1  0.89854541  0.12030449  0.41098806  1
  O  O285  1  0.88592988  0.13798984  0.91494928  1
  O  O286  1  0.88080658  0.65467000  0.40865600  1
  O  O287  1  0.89236198  0.64145214  0.91587851  1
  O  O288  1  0.15994168  0.01179153  0.07659783  1
  O  O289  1  0.18528534  -0.00322411  0.58311537  1
  O  O290  1  0.17262423  0.51124390  0.07442930  1
  O  O291  1  0.18349537  0.49214606  0.57321799  1
  O  O292  1  0.52039816  -0.00232118  0.08785410  1
  O  O293  1  0.50099862  0.00092134  0.58833942  1
  O  O294  1  0.50564217  0.50958208  0.07888208  1
  O  O295  1  0.48612184  0.49985987  0.59065132  1
  O  O296  1  0.84470839  -0.00240451  0.08104786  1
  O  O297  1  0.82758706  -0.01099379  0.57538266  1
  O  O298  1  0.83997049  0.49656461  0.08836642  1
  O  O299  1  0.85032001  0.50546195  0.58296182  1
  O  O300  1  -0.00767979  0.24916809  0.08769729  1
  O  O301  1  0.01241772  0.23574709  0.57092995  1
  O  O302  1  -0.00730199  0.74449957  0.08255334  1
  O  O303  1  0.00608210  0.75550203  0.58302738  1
  O  O304  1  0.34373512  0.24225604  0.08665470  1
  O  O305  1  0.34556220  0.24738583  0.58665696  1
  O  O306  1  0.34911467  0.75200814  0.08352369  1
  O  O307  1  0.35261289  0.75400880  0.58544890  1
  O  O308  1  0.68604676  0.24530423  0.08479684  1
  O  O309  1  0.66297293  0.27006811  0.57965044  1
  O  O310  1  0.68686387  0.74943714  0.08506315  1
  O  O311  1  0.65480403  0.75852924  0.57946298  1
  O  O312  1  0.16348597  -0.00110474  0.41429843  1
  O  O313  1  0.15831235  -0.00830446  0.92119208  1
  O  O314  1  0.15995604  0.48484654  0.42094727  1
  O  O315  1  0.14579040  0.50242330  0.91565025  1
  O  O316  1  0.49714100  0.01194688  0.42535664  1
  O  O317  1  0.48768863  -0.01193590  0.92633081  1
  O  O318  1  0.48197579  0.50019538  0.41181047  1
  O  O319  1  0.51968430  0.49987053  0.92832111  1
  O  O320  1  0.83032114  -0.00862072  0.41559026  1
  O  O321  1  0.83329157  0.00068697  0.91448715  1
  O  O322  1  0.84775636  0.51486582  0.41992418  1
  O  O323  1  0.82614330  0.51368196  0.92755062  1
  O  O324  1  0.32714626  0.24753823  0.41260570  1
  O  O325  1  0.31727461  0.25787055  0.91884492  1
  O  O326  1  0.32247650  0.75020646  0.41522467  1
  O  O327  1  0.31327402  0.74782528  0.91648842  1
  O  O328  1  0.66960406  0.26616810  0.42402321  1
  O  O329  1  0.67629540  0.24414435  0.90866815  1
  O  O330  1  0.66283542  0.74342045  0.41302571  1
  O  O331  1  0.67474661  0.75898554  0.91397662  1
  O  O332  1  0.99365949  0.24036737  0.41416837  1
  O  O333  1  0.98610833  0.25175404  0.91300876  1
  O  O334  1  0.99938418  0.75295992  0.41143914  1
  O  O335  1  0.98877369  0.75259733  0.91450094  1
  O  O336  1  0.20535858  0.08546641  0.19374571  1
  O  O337  1  0.22022785  0.07330120  0.69393572  1
  O  O338  1  0.21001029  0.58335264  0.19120434  1
  O  O339  1  0.21253068  0.58510677  0.70196794  1
  O  O340  1  0.54402307  0.08258937  0.19719170  1
  O  O341  1  0.54376343  0.08285128  0.69513296  1
  O  O342  1  0.54345933  0.58599277  0.19328014  1
  O  O343  1  0.54436582  0.58517606  0.69567377  1
  O  O344  1  0.87953079  0.07426266  0.19280118  1
  O  O345  1  0.88036310  0.08325527  0.69845785  1
  O  O346  1  0.87659236  0.58275294  0.19562103  1
  O  O347  1  0.87100554  0.58748883  0.69221565  1
  O  O348  1  0.04381568  0.33178497  0.19456331  1
  O  O349  1  0.04221062  0.33486317  0.70080276  1
  O  O350  1  0.02944453  0.83029596  0.18917787  1
  O  O351  1  0.04283484  0.83472686  0.69444677  1
  O  O352  1  0.37663544  0.33132330  0.19223903  1
  O  O353  1  0.37533171  0.33056572  0.69698068  1
  O  O354  1  0.37743380  0.83339382  0.19129309  1
  O  O355  1  0.37670756  0.83413111  0.69708583  1
  O  O356  1  0.71069420  0.33023781  0.19388776  1
  O  O357  1  0.70987454  0.34625920  0.69210617  1
  O  O358  1  0.71145269  0.83217618  0.19394532  1
  O  O359  1  0.70675286  0.83465373  0.69438404  1
  O  O360  1  0.21065215  0.41587567  0.19921647  1
  O  O361  1  0.21511071  0.42213661  0.69038242  1
  O  O362  1  0.21739606  0.92326558  0.19720352  1
  O  O363  1  0.21073731  0.91404880  0.69525057  1
  O  O364  1  0.54714307  0.41734914  0.20168140  1
  O  O365  1  0.54173866  0.41820040  0.69775145  1
  O  O366  1  0.55106062  0.90907980  0.19408731  1
  O  O367  1  0.54184846  0.91715796  0.69779965  1
  O  O368  1  0.88064817  0.41702276  0.19745854  1
  O  O369  1  0.87560917  0.42090051  0.69139810  1
  O  O370  1  0.87481657  0.91487731  0.19174529  1
  O  O371  1  0.87444307  0.91557507  0.69234443  1
  O  O372  1  0.03955772  0.16500583  0.19464647  1
  O  O373  1  0.04216317  0.16284498  0.68709338  1
  O  O374  1  0.03834431  0.66482774  0.19278221  1
  O  O375  1  0.04619556  0.67384296  0.69200108  1
  O  O376  1  0.37678888  0.16386875  0.19699334  1
  O  O377  1  0.37460537  0.16544069  0.69720681  1
  O  O378  1  0.37686720  0.66744912  0.19468039  1
  O  O379  1  0.37677072  0.67036949  0.69443656  1
  O  O380  1  0.70201117  0.16412838  0.19465968  1
  O  O381  1  0.71726922  0.16004839  0.69810513  1
  O  O382  1  0.71145716  0.66721589  0.19491526  1
  O  O383  1  0.71044327  0.66878240  0.70248584  1
  O  O384  1  0.12373706  0.08162073  0.30405293  1
  O  O385  1  0.11875287  0.08026462  0.79677429  1
  O  O386  1  0.12257097  0.58018844  0.29667620  1
  O  O387  1  0.12076725  0.58458522  0.80441412  1
  O  O388  1  0.45351419  0.08879444  0.31025398  1
  O  O389  1  0.45358400  0.08138084  0.80196804  1
  O  O390  1  0.45691864  0.58339260  0.30248353  1
  O  O391  1  0.45471530  0.58626656  0.80103478  1
  O  O392  1  0.78702077  0.07176552  0.30739678  1
  O  O393  1  0.78959019  0.07956027  0.80564731  1
  O  O394  1  0.79104620  0.58541820  0.30439679  1
  O  O395  1  0.79147418  0.58663747  0.80892903  1
  O  O396  1  0.29149989  0.33038984  0.30297245  1
  O  O397  1  0.29237696  0.33603403  0.80806872  1
  O  O398  1  0.30173545  0.83306042  0.30761593  1
  O  O399  1  0.29026363  0.83158640  0.80506194  1
  O  O400  1  0.62201033  0.33597200  0.30784943  1
  O  O401  1  0.61931619  0.34125244  0.81055347  1
  O  O402  1  0.62678651  0.83058138  0.30690590  1
  O  O403  1  0.62533986  0.83701981  0.80481096  1
  O  O404  1  0.95867194  0.32973951  0.30725990  1
  O  O405  1  0.95100772  0.34278349  0.80680038  1
  O  O406  1  0.95806342  0.83367315  0.30254187  1
  O  O407  1  0.95594157  0.83403264  0.80266996  1
  O  O408  1  0.12265628  0.41153591  0.30598376  1
  O  O409  1  0.11896918  0.42450647  0.80440168  1
  O  O410  1  0.11699320  0.92268266  0.30373000  1
  O  O411  1  0.12388802  0.91453511  0.80466182  1
  O  O412  1  0.45123558  0.41768772  0.30314344  1
  O  O413  1  0.45273698  0.41717515  0.80066654  1
  O  O414  1  0.45571678  0.91499770  0.30028596  1
  O  O415  1  0.45727399  0.91429161  0.80877630  1
  O  O416  1  0.78906229  0.41847164  0.29854632  1
  O  O417  1  0.78828730  0.42078977  0.79980346  1
  O  O418  1  0.79215803  0.91191691  0.30415906  1
  O  O419  1  0.79130988  0.91760589  0.80331352  1
  O  O420  1  0.28739508  0.16633524  0.30386642  1
  O  O421  1  0.29820691  0.16651897  0.81378842  1
  O  O422  1  0.29260817  0.66572451  0.30536388  1
  O  O423  1  0.28919697  0.66717519  0.80824554  1
  O  O424  1  0.62315441  0.16678771  0.30216050  1
  O  O425  1  0.61754443  0.15484172  0.80937457  1
  O  O426  1  0.62383458  0.66543043  0.30277467  1
  O  O427  1  0.62331255  0.67142514  0.80865391  1
  O  O428  1  0.96785279  0.16211152  0.30558839  1
  O  O429  1  0.95443043  0.16318002  0.80595724  1
  O  O430  1  0.95600056  0.66716668  0.30393061  1
  O  O431  1  0.95284350  0.67317755  0.80408555  1
  F  F432  1  0.04384826  -0.00025833  0.19895252  1
  F  F433  1  0.04649352  -0.00656966  0.69787205  1
  F  F434  1  0.04255021  0.49591705  0.20086134  1
  F  F435  1  0.04491872  0.49897812  0.69635828  1
  F  F436  1  0.37572510  0.00330300  0.20161667  1
  F  F437  1  0.37979179  -0.00567594  0.70328173  1
  F  F438  1  0.37819092  0.50181342  0.19998250  1
  F  F439  1  0.37675672  0.50180889  0.70141855  1
  F  F440  1  0.71175654  -0.00356833  0.20117524  1
  F  F441  1  0.71089145  -0.00170375  0.70166540  1
  F  F442  1  0.71238729  0.50368518  0.20014401  1
  F  F443  1  0.71020552  0.50635081  0.70323041  1
  F  F444  1  0.21138472  0.24817325  0.20089566  1
  F  F445  1  0.21479031  0.24643874  0.70308553  1
  F  F446  1  0.21741665  0.73829068  0.19843431  1
  F  F447  1  0.21253971  0.75106594  0.70331473  1
  F  F448  1  0.54432460  0.25010113  0.20363446  1
  F  F449  1  0.53240970  0.24962694  0.70300928  1
  F  F450  1  0.54725681  0.74975558  0.20160728  1
  F  F451  1  0.54425712  0.75238389  0.70519021  1
  F  F452  1  0.88260328  0.25795647  0.20101480  1
  F  F453  1  0.87127542  0.25472536  0.69578995  1
  F  F454  1  0.87663192  0.74839440  0.20105482  1
  F  F455  1  0.87721502  0.75244716  0.70010728  1
  F  F456  1  0.28664260  0.00352722  0.30099353  1
  F  F457  1  0.28793457  -0.00398300  0.80082620  1
  F  F458  1  0.29003197  0.50094143  0.29639902  1
  F  F459  1  0.28633022  0.49916973  0.79963134  1
  F  F460  1  0.62616133  -0.00339093  0.30067751  1
  F  F461  1  0.62208301  -0.00237266  0.79819942  1
  F  F462  1  0.62095193  0.50499419  0.29775233  1
  F  F463  1  0.62124423  0.50417442  0.79916670  1
  F  F464  1  0.95429678  -0.00409477  0.29577894  1
  F  F465  1  0.95397105  -0.00511376  0.79784934  1
  F  F466  1  0.95644519  0.49940902  0.29813278  1
  F  F467  1  0.95256380  0.50179920  0.79605520  1
  F  F468  1  0.12218991  0.24868959  0.29564150  1
  F  F469  1  0.11975338  0.24685386  0.80675059  1
  F  F470  1  0.11655918  0.74001192  0.29869906  1
  F  F471  1  0.12025512  0.75127974  0.79783389  1
  F  F472  1  0.45252028  0.25168333  0.29665596  1
  F  F473  1  0.45211056  0.24860337  0.80142140  1
  F  F474  1  0.45659780  0.74875404  0.29562886  1
  F  F475  1  0.45386779  0.75163451  0.79932308  1
  F  F476  1  0.78359900  0.25864087  0.30298061  1
  F  F477  1  0.80308308  0.25243080  0.80159163  1
  F  F478  1  0.78845555  0.75038492  0.29629797  1
  F  F479  1  0.78977909  0.75557170  0.79876174  1
