# generated using pymatgen
data_K24Na3Li5Mg64Fe17Si79(O5F)48
_symmetry_space_group_name_H-M   'P 1'
_cell_length_a   16.09535627
_cell_length_b   18.58891559
_cell_length_c   20.55957630
_cell_angle_alpha   89.97891176
_cell_angle_beta   99.99637226
_cell_angle_gamma   90.02990857
_symmetry_Int_Tables_number   1
_chemical_formula_structural   K24Na3Li5Mg64Fe17Si79(O5F)48
_chemical_formula_sum   'K24 Na3 Li5 Mg64 Fe17 Si79 O240 F48'
_cell_volume   6057.94101266
_cell_formula_units_Z   1
loop_
 _symmetry_equiv_pos_site_id
 _symmetry_equiv_pos_as_xyz
  1  'x, y, z'
loop_
 _atom_site_type_symbol
 _atom_site_label
 _atom_site_symmetry_multiplicity
 _atom_site_fract_x
 _atom_site_fract_y
 _atom_site_fract_z
 _atom_site_occupancy
  K  K0  1  0.00931173  0.00002659  0.00872436  1
  K  K1  1  0.00403521  0.00001825  0.49538294  1
  K  K2  1  -0.00215009  0.51926255  0.00794577  1
  K  K3  1  0.00687502  0.50736117  0.49283443  1
  K  K4  1  0.33969820  -0.01152591  0.00488601  1
  K  K5  1  0.33855629  -0.00285126  0.49470143  1
  K  K6  1  0.32581208  0.50542662  0.00643184  1
  K  K7  1  0.32932131  0.50497278  0.49521225  1
  K  K8  1  0.67142816  -0.00773422  0.00737431  1
  K  K9  1  0.66040880  0.00034389  0.48660292  1
  K  K10  1  0.67681640  0.50895331  0.00297220  1
  K  K11  1  0.66239755  0.50354748  0.49913102  1
  K  K12  1  0.16695232  0.24380823  0.00804658  1
  K  K13  1  0.16803174  0.24426366  0.49047335  1
  K  K14  1  0.17530122  0.75448177  0.01176101  1
  K  K15  1  0.16090449  0.74715044  0.49164935  1
  K  K16  1  0.49733862  0.24194157  0.00252963  1
  K  K17  1  0.48616148  0.24288128  0.49411656  1
  K  K18  1  0.49585312  0.75956344  0.00587722  1
  K  K19  1  0.49688524  0.74317017  0.49428012  1
  K  K20  1  0.83991743  0.25146912  0.00646890  1
  K  K21  1  0.83408456  0.23996301  0.49193784  1
  K  K22  1  0.82942844  0.74513588  0.00344047  1
  K  K23  1  0.83346621  0.76008760  0.49656710  1
  Na  Na24  1  0.16316701  0.50059904  0.25098244  1
  Na  Na25  1  0.16743766  0.83445745  0.24356302  1
  Na  Na26  1  0.16634814  0.16370646  0.25229962  1
  Li  Li27  1  0.16948551  -0.00056339  0.24872901  1
  Li  Li28  1  0.33182054  0.75530162  0.74720625  1
  Li  Li29  1  0.33272887  0.07217216  0.74302265  1
  Li  Li30  1  0.66680352  0.91347291  0.24508025  1
  Li  Li31  1  0.33030393  0.91345544  0.75054999  1
  Mg  Mg32  1  0.32951567  0.24781716  0.25015100  1
  Mg  Mg33  1  -0.00048486  0.24896864  0.25628008  1
  Mg  Mg34  1  -0.00024610  0.75066820  0.25302737  1
  Mg  Mg35  1  0.50341074  -0.00163434  0.24985606  1
  Mg  Mg36  1  0.66638513  0.24783253  0.74915148  1
  Mg  Mg37  1  0.00010570  0.75114774  0.75691639  1
  Mg  Mg38  1  0.00431260  0.24843438  0.75247703  1
  Mg  Mg39  1  0.66461626  0.75018588  0.74967556  1
  Mg  Mg40  1  0.49071792  -0.00224113  0.74724465  1
  Mg  Mg41  1  0.83364772  0.00016345  0.75131903  1
  Mg  Mg42  1  0.66527107  0.25059608  0.25326427  1
  Mg  Mg43  1  0.16908768  0.50142573  0.74959479  1
  Mg  Mg44  1  0.50233675  0.50149819  0.74263450  1
  Mg  Mg45  1  0.82976101  -0.00099048  0.24823220  1
  Mg  Mg46  1  0.83403628  0.50177958  0.75452495  1
  Mg  Mg47  1  0.83098614  0.50028133  0.25515287  1
  Mg  Mg48  1  0.66783775  0.75142705  0.24880761  1
  Mg  Mg49  1  0.33541380  0.24756840  0.74530147  1
  Mg  Mg50  1  0.33369659  0.75126356  0.24524761  1
  Mg  Mg51  1  0.17544181  -0.00132665  0.75594241  1
  Mg  Mg52  1  0.49610226  0.49911735  0.24790147  1
  Mg  Mg53  1  0.33243841  0.07937685  0.24888897  1
  Mg  Mg54  1  0.83538274  0.16566029  0.25349376  1
  Mg  Mg55  1  0.66729832  0.58548065  0.74936955  1
  Mg  Mg56  1  0.16457053  0.66675794  0.24933455  1
  Mg  Mg57  1  0.83315842  0.66586219  0.25426175  1
  Mg  Mg58  1  0.17080223  0.33382487  0.74778392  1
  Mg  Mg59  1  0.17418401  0.16251506  0.75289943  1
  Mg  Mg60  1  0.83596467  0.33364749  0.75260607  1
  Mg  Mg61  1  0.16925491  0.66872162  0.75171880  1
  Mg  Mg62  1  0.49385358  0.16226407  0.74566099  1
  Mg  Mg63  1  0.49772878  0.16519278  0.25075481  1
  Mg  Mg64  1  0.66393137  0.08249152  0.74928966  1
  Mg  Mg65  1  0.16380816  0.33317997  0.25010886  1
  Mg  Mg66  1  0.00142578  0.58645979  0.75654419  1
  Mg  Mg67  1  0.32905582  0.58494218  0.24642227  1
  Mg  Mg68  1  0.66733893  0.41503184  0.74784821  1
  Mg  Mg69  1  0.00263857  0.08289695  0.25185088  1
  Mg  Mg70  1  0.49131802  0.83322072  0.74846047  1
  Mg  Mg71  1  0.49750910  0.33367274  0.25014926  1
  Mg  Mg72  1  0.83476560  0.83507582  0.75415992  1
  Mg  Mg73  1  0.33563569  0.41573692  0.74293002  1
  Mg  Mg74  1  0.50256061  0.83511689  0.24641892  1
  Mg  Mg75  1  -0.00108191  0.58548705  0.25272824  1
  Mg  Mg76  1  0.32718354  0.41627528  0.24765947  1
  Mg  Mg77  1  0.83507288  0.66583637  0.75458398  1
  Mg  Mg78  1  0.66274600  0.91603631  0.74920038  1
  Mg  Mg79  1  0.33413171  0.58703687  0.74475628  1
  Mg  Mg80  1  0.49728836  0.66734376  0.74516064  1
  Mg  Mg81  1  0.83391115  0.33453093  0.25768801  1
  Mg  Mg82  1  0.00606672  0.91713318  0.75626831  1
  Mg  Mg83  1  0.00712196  0.08294183  0.75468854  1
  Mg  Mg84  1  0.49931588  0.66568425  0.24576848  1
  Mg  Mg85  1  0.66805395  0.58342037  0.25144568  1
  Mg  Mg86  1  0.00456078  0.91893233  0.24861574  1
  Mg  Mg87  1  0.83240746  0.83576641  0.25107445  1
  Mg  Mg88  1  0.00288342  0.41609725  0.75159274  1
  Mg  Mg89  1  -0.00065981  0.41662806  0.25485739  1
  Mg  Mg90  1  0.66635670  0.08272705  0.25246257  1
  Mg  Mg91  1  0.17252130  0.83432961  0.75309835  1
  Mg  Mg92  1  0.49846053  0.33277810  0.74253595  1
  Mg  Mg93  1  0.66738677  0.41646407  0.25313403  1
  Mg  Mg94  1  0.83586368  0.16502500  0.75253801  1
  Mg  Mg95  1  0.33525693  0.91653156  0.24934438  1
  Fe  Fe96  1  0.80779099  0.41506415  0.39493186  1
  Fe  Fe97  1  0.97172270  0.67859795  0.39472804  1
  Fe  Fe98  1  0.36202600  0.83505272  0.10742453  1
  Fe  Fe99  1  0.97936471  0.67149104  0.89653688  1
  Fe  Fe100  1  0.69584532  0.83148422  0.11018619  1
  Fe  Fe101  1  0.47502272  0.08026686  0.38846703  1
  Fe  Fe102  1  0.13806890  0.41433833  0.39248884  1
  Fe  Fe103  1  0.15077716  0.91587259  0.89360211  1
  Fe  Fe104  1  0.98231874  0.15757017  0.39311815  1
  Fe  Fe105  1  0.35715044  0.32899590  0.60447851  1
  Fe  Fe106  1  0.18862650  0.92113352  0.10730584  1
  Fe  Fe107  1  0.52484035  0.58602754  0.60592507  1
  Fe  Fe108  1  0.15318840  0.08856174  0.89470079  1
  Fe  Fe109  1  0.14100920  0.58825015  0.39412427  1
  Fe  Fe110  1  0.80783915  0.58449864  0.39506448  1
  Fe  Fe111  1  0.18609598  0.58487954  0.10742241  1
  Fe  Fe112  1  0.80193965  0.58350510  0.89361000  1
  Si  Si113  1  0.01582994  0.67109335  0.11251859  1
  Si  Si114  1  0.35362194  0.83621991  0.61366560  1
  Si  Si115  1  0.80296791  0.08213838  0.38884009  1
  Si  Si116  1  0.02029941  0.16875239  0.11580261  1
  Si  Si117  1  0.80480560  0.91771287  0.38420917  1
  Si  Si118  1  0.63533210  0.83749827  0.88384943  1
  Si  Si119  1  0.35696466  0.16827719  0.11260599  1
  Si  Si120  1  0.18872996  0.07887667  0.61508659  1
  Si  Si121  1  0.69208184  0.33281935  0.11607278  1
  Si  Si122  1  0.69998384  0.33019471  0.61530221  1
  Si  Si123  1  0.52426919  0.41213092  0.11400551  1
  Si  Si124  1  0.14776801  0.41267198  0.88490455  1
  Si  Si125  1  0.86275160  0.58168100  0.61766629  1
  Si  Si126  1  0.18688186  0.91517862  0.61496090  1
  Si  Si127  1  0.01832386  0.83277372  0.11425217  1
  Si  Si128  1  0.85975563  0.91943689  0.61711886  1
  Si  Si129  1  0.52295650  0.91374631  0.61316474  1
  Si  Si130  1  0.14991494  0.91987541  0.38297666  1
  Si  Si131  1  0.47292518  0.58359517  0.88100472  1
  Si  Si132  1  0.63197249  0.67172609  0.88603667  1
  Si  Si133  1  0.48173094  0.91248198  0.38830914  1
  Si  Si134  1  0.63937105  0.32797022  0.88294073  1
  Si  Si135  1  0.19033724  0.42168073  0.61146670  1
  Si  Si136  1  0.14738067  0.07849169  0.38815887  1
  Si  Si137  1  0.47057675  0.08088125  0.88272801  1
  Si  Si138  1  0.86305633  0.41603791  0.61759074  1
  Si  Si139  1  0.85722872  0.58049272  0.11775653  1
  Si  Si140  1  0.53041181  0.92356297  0.11010574  1
  Si  Si141  1  0.98017789  0.84809881  0.38927276  1
  Si  Si142  1  0.35614967  0.33261248  0.11264483  1
  Si  Si143  1  0.30604399  0.33035251  0.38571752  1
  Si  Si144  1  0.80471258  0.08494616  0.88567001  1
  Si  Si145  1  0.85814508  0.41586220  0.11773512  1
  Si  Si146  1  0.18875014  0.58748597  0.61468796  1
  Si  Si147  1  0.14600198  0.57895545  0.88792259  1
  Si  Si148  1  0.85739264  0.08456236  0.11444372  1
  Si  Si149  1  0.69259951  0.16408663  0.61505125  1
  Si  Si150  1  0.31489862  0.83297599  0.38394101  1
  Si  Si151  1  0.86136396  0.91949805  0.11123244  1
  Si  Si152  1  0.31170815  0.16492959  0.38624621  1
  Si  Si153  1  0.31008711  0.67046331  0.38555537  1
  Si  Si154  1  0.80282322  0.91848597  0.88576073  1
  Si  Si155  1  0.46850514  0.91585836  0.88318111  1
  Si  Si156  1  0.46826518  0.58229998  0.38045451  1
  Si  Si157  1  0.36340685  0.66174496  0.10728878  1
  Si  Si158  1  0.64256712  0.82647736  0.38379270  1
  Si  Si159  1  0.18745708  0.41078849  0.11035522  1
  Si  Si160  1  0.97168649  0.32823165  0.39291280  1
  Si  Si161  1  0.35466852  0.15860469  0.60988472  1
  Si  Si162  1  0.02735569  0.16815158  0.61622734  1
  Si  Si163  1  0.63404024  0.66236637  0.38505822  1
  Si  Si164  1  0.48107608  0.42127709  0.88070849  1
  Si  Si165  1  0.53209472  0.41133756  0.60739955  1
  Si  Si166  1  0.02459867  0.66757741  0.61840821  1
  Si  Si167  1  0.52882215  0.57671456  0.11356574  1
  Si  Si168  1  0.52555523  0.07982863  0.61332529  1
  Si  Si169  1  0.97381530  0.16536310  0.88952443  1
  Si  Si170  1  0.31542528  0.17751877  0.88601605  1
  Si  Si171  1  0.31703517  0.33878785  0.88243839  1
  Si  Si172  1  0.31035522  0.82233779  0.88436999  1
  Si  Si173  1  0.02026925  0.33133732  0.11499225  1
  Si  Si174  1  0.64048246  0.17192727  0.38806503  1
  Si  Si175  1  0.80809919  0.41000432  0.88880605  1
  Si  Si176  1  0.69039163  0.66197407  0.11239946  1
  Si  Si177  1  0.63370977  0.33751457  0.38778067  1
  Si  Si178  1  0.02833154  0.33417413  0.61557065  1
  Si  Si179  1  0.97873426  0.33222009  0.88671983  1
  Si  Si180  1  0.35421756  0.67044460  0.60922644  1
  Si  Si181  1  0.02219940  0.83215522  0.61756397  1
  Si  Si182  1  0.31021548  0.65971870  0.88292045  1
  Si  Si183  1  0.52584988  0.08911052  0.11416475  1
  Si  Si184  1  0.69957679  0.67073096  0.61246309  1
  Si  Si185  1  0.69376123  0.83649837  0.61527004  1
  Si  Si186  1  0.86160516  0.08484251  0.61677380  1
  Si  Si187  1  0.69322287  0.16825885  0.11586981  1
  Si  Si188  1  0.18996312  0.08810736  0.11232862  1
  Si  Si189  1  0.63545057  0.16231127  0.88404037  1
  Si  Si190  1  0.97422153  0.84373504  0.89143324  1
  Si  Si191  1  0.46695061  0.41645659  0.38236666  1
  O  O192  1  0.26821807  0.12945034  0.08092688  1
  O  O193  1  0.27036400  0.10781541  0.58437260  1
  O  O194  1  0.28198158  0.61503845  0.07352585  1
  O  O195  1  0.26594682  0.62383412  0.58406820  1
  O  O196  1  0.60264608  0.13042527  0.08359516  1
  O  O197  1  0.60461352  0.12128376  0.58596877  1
  O  O198  1  0.61005594  0.60744040  0.08448722  1
  O  O199  1  0.61516167  0.63270125  0.57437225  1
  O  O200  1  0.93434709  0.12242596  0.08244734  1
  O  O201  1  0.93696211  0.12679304  0.58760940  1
  O  O202  1  0.93277692  0.61825953  0.08670690  1
  O  O203  1  0.94405946  0.61523361  0.58973375  1
  O  O204  1  0.10136353  0.36092837  0.08384516  1
  O  O205  1  0.10535263  0.37184957  0.58622711  1
  O  O206  1  0.10075395  0.85272183  0.08345197  1
  O  O207  1  0.09978538  0.86817920  0.58586274  1
  O  O208  1  0.43545885  0.37096409  0.08315520  1
  O  O209  1  0.45819679  0.35580940  0.57687948  1
  O  O210  1  0.44981403  0.87945293  0.07204960  1
  O  O211  1  0.43319255  0.87442250  0.58227051  1
  O  O212  1  0.76849165  0.37349636  0.08630993  1
  O  O213  1  0.78231379  0.36403317  0.58901585  1
  O  O214  1  0.78488838  0.87126610  0.07246894  1
  O  O215  1  0.76693296  0.88400419  0.58694046  1
  O  O216  1  0.26767011  0.37226162  0.07977791  1
  O  O217  1  0.26737812  0.39402675  0.57787110  1
  O  O218  1  0.26978058  0.88379726  0.06432263  1
  O  O219  1  0.26664274  0.88177694  0.58359467  1
  O  O220  1  0.60124743  0.37137521  0.08434421  1
  O  O221  1  0.61980882  0.37917312  0.58451366  1
  O  O222  1  0.61099309  0.89764599  0.07828413  1
  O  O223  1  0.60101859  0.87192012  0.58537419  1
  O  O224  1  0.93343087  0.37730680  0.08465716  1
  O  O225  1  0.94274352  0.38102317  0.58874259  1
  O  O226  1  0.94614236  0.89329929  0.08348276  1
  O  O227  1  0.93408867  0.87679976  0.58723016  1
  O  O228  1  0.10485379  0.14129305  0.08890615  1
  O  O229  1  0.10359985  0.12861746  0.58626050  1
  O  O230  1  0.08997725  0.64245377  0.07506334  1
  O  O231  1  0.10538097  0.63690847  0.58865530  1
  O  O232  1  0.43817248  0.13294571  0.08388248  1
  O  O233  1  0.43651902  0.11906013  0.58345504  1
  O  O234  1  0.44506799  0.62081319  0.08114083  1
  O  O235  1  0.42599586  0.63763222  0.57119088  1
  O  O236  1  0.76946305  0.12987244  0.08410884  1
  O  O237  1  0.77097007  0.12441937  0.58683438  1
  O  O238  1  0.76965225  0.62174020  0.08525775  1
  O  O239  1  0.78146399  0.63181908  0.58817357  1
  O  O240  1  0.07429832  0.09959647  0.43084672  1
  O  O241  1  0.05130193  0.11832700  0.92523647  1
  O  O242  1  0.05926676  0.62367717  0.43906754  1
  O  O243  1  0.06954740  0.60540948  0.92216338  1
  O  O244  1  0.38560659  0.11493225  0.42729799  1
  O  O245  1  0.39931477  0.12657930  0.91332845  1
  O  O246  1  0.38906291  0.61357457  0.41169810  1
  O  O247  1  0.38807752  0.60316592  0.91105694  1
  O  O248  1  0.72667478  0.12577211  0.41678342  1
  O  O249  1  0.72495902  0.12169693  0.91408322  1
  O  O250  1  0.70311227  0.60688866  0.42125829  1
  O  O251  1  0.70582964  0.62122600  0.92402146  1
  O  O252  1  0.22888111  0.35007670  0.42226822  1
  O  O253  1  0.23347099  0.36541567  0.91296519  1
  O  O254  1  0.23033814  0.86419457  0.41105186  1
  O  O255  1  0.23167555  0.84306397  0.91995347  1
  O  O256  1  0.54432138  0.36138257  0.41183491  1
  O  O257  1  0.56382992  0.37107735  0.91165237  1
  O  O258  1  0.56529142  0.86108576  0.41714908  1
  O  O259  1  0.55917170  0.87615256  0.91436957  1
  O  O260  1  0.88204623  0.33836267  0.41944461  1
  O  O261  1  0.89878851  0.36752485  0.91516346  1
  O  O262  1  0.89979441  0.88886430  0.41748142  1
  O  O263  1  0.88344483  0.86917900  0.91519647  1
  O  O264  1  0.03811549  0.39027455  0.42424708  1
  O  O265  1  0.06749359  0.37583133  0.91365823  1
  O  O266  1  0.06598040  0.89745985  0.41631127  1
  O  O267  1  0.04175667  0.90606127  0.91721208  1
  O  O268  1  0.38574996  0.38662070  0.41220824  1
  O  O269  1  0.39713607  0.39329988  0.90972466  1
  O  O270  1  0.39900000  0.88038946  0.41722269  1
  O  O271  1  0.39502294  0.87309703  0.91310224  1
  O  O272  1  0.70391971  0.39238931  0.42350506  1
  O  O273  1  0.73314856  0.35970838  0.91358086  1
  O  O274  1  0.73232546  0.86914790  0.41318445  1
  O  O275  1  0.72010976  0.88572079  0.91235126  1
  O  O276  1  0.22380322  0.13872885  0.41042236  1
  O  O277  1  0.23754329  0.15975868  0.92295329  1
  O  O278  1  0.23492009  0.64899535  0.42359942  1
  O  O279  1  0.23115797  0.62692051  0.91504041  1
  O  O280  1  0.56679530  0.14089606  0.42416314  1
  O  O281  1  0.56198188  0.12044356  0.91489964  1
  O  O282  1  0.54549818  0.63706868  0.40976061  1
  O  O283  1  0.54414662  0.64352687  0.90989644  1
  O  O284  1  0.88983307  0.11637114  0.42735360  1
  O  O285  1  0.88611182  0.13562326  0.91406360  1
  O  O286  1  0.87711706  0.65785647  0.43108629  1
  O  O287  1  0.89150117  0.63673393  0.93514459  1
  O  O288  1  0.16541944  0.01502771  0.07159199  1
  O  O289  1  0.16791345  -0.00268548  0.58457685  1
  O  O290  1  0.16974774  0.48787524  0.07470429  1
  O  O291  1  0.16731034  0.50536633  0.58751964  1
  O  O292  1  0.51580373  0.00911001  0.08301526  1
  O  O293  1  0.52265841  -0.00303549  0.58451100  1
  O  O294  1  0.51648982  0.49368978  0.08383762  1
  O  O295  1  0.51741424  0.49058825  0.57479254  1
  O  O296  1  0.84411106  0.00385480  0.08290076  1
  O  O297  1  0.85636645  0.00227912  0.58793983  1
  O  O298  1  0.84667997  0.49757318  0.08734357  1
  O  O299  1  0.84588402  0.49844166  0.59020902  1
  O  O300  1  0.00076219  0.25017258  0.08311628  1
  O  O301  1  0.01554224  0.25111701  0.58758423  1
  O  O302  1  -0.01577356  0.75221262  0.08584248  1
  O  O303  1  0.00520342  0.74957799  0.58924172  1
  O  O304  1  0.35138188  0.25085001  0.08164348  1
  O  O305  1  0.33658612  0.23447560  0.57137353  1
  O  O306  1  0.35904803  0.74039969  0.07368668  1
  O  O307  1  0.33738004  0.75453808  0.58250500  1
  O  O308  1  0.68677760  0.25083120  0.08490020  1
  O  O309  1  0.68698233  0.24697100  0.58698209  1
  O  O310  1  0.67178279  0.73755297  0.07435825  1
  O  O311  1  0.69959330  0.75548380  0.58585389  1
  O  O312  1  0.18363484  -0.00196405  0.41654714  1
  O  O313  1  0.19657132  0.00234553  0.92629006  1
  O  O314  1  0.17465442  0.50013544  0.43234455  1
  O  O315  1  0.16751852  0.49414012  0.91284357  1
  O  O316  1  0.50324915  -0.01117085  0.42549640  1
  O  O317  1  0.47464107  -0.00108562  0.91322938  1
  O  O318  1  0.48855025  0.49947562  0.40929501  1
  O  O319  1  0.50361613  0.50263397  0.90985955  1
  O  O320  1  0.79522985  -0.00152808  0.41552582  1
  O  O321  1  0.81590021  0.00224946  0.91408775  1
  O  O322  1  0.84768953  0.49908727  0.43608582  1
  O  O323  1  0.81031979  0.48585410  0.92551090  1
  O  O324  1  0.33571523  0.24852829  0.41164522  1
  O  O325  1  0.34833528  0.26011624  0.91249186  1
  O  O326  1  0.33925245  0.75196149  0.41440961  1
  O  O327  1  0.33922348  0.73939772  0.91151645  1
  O  O328  1  0.65869635  0.25530044  0.41487696  1
  O  O329  1  0.63909443  0.24538573  0.91250736  1
  O  O330  1  0.65490015  0.74466027  0.41499840  1
  O  O331  1  0.64721179  0.75561635  0.91310879  1
  O  O332  1  1.00920544  0.25076351  0.42323388  1
  O  O333  1  0.98654086  0.25001475  0.91600821  1
  O  O334  1  0.99698181  0.77329824  0.42856085  1
  O  O335  1  1.00301245  0.76698227  0.92453523  1
  O  O336  1  0.21817962  0.08240560  0.19048302  1
  O  O337  1  0.20585857  0.08189587  0.69442009  1
  O  O338  1  0.21346127  0.58903351  0.19681408  1
  O  O339  1  0.20909168  0.58463237  0.69519091  1
  O  O340  1  0.54678018  0.08942841  0.19390031  1
  O  O341  1  0.54506072  0.08180931  0.69364325  1
  O  O342  1  0.54420580  0.57883180  0.19384509  1
  O  O343  1  0.54786022  0.58498444  0.69828406  1
  O  O344  1  0.87163705  0.08509205  0.19403863  1
  O  O345  1  0.87678287  0.08501944  0.69713528  1
  O  O346  1  0.87222235  0.58124075  0.19723582  1
  O  O347  1  0.87960592  0.58099679  0.69800081  1
  O  O348  1  0.03658110  0.33169463  0.19451226  1
  O  O349  1  0.04495768  0.33331185  0.69644007  1
  O  O350  1  0.02821303  0.83303421  0.19380933  1
  O  O351  1  0.03826221  0.83317227  0.69745472  1
  O  O352  1  0.37635984  0.33330616  0.19270135  1
  O  O353  1  0.37851736  0.33173883  0.69713664  1
  O  O354  1  0.38279829  0.83406928  0.19921282  1
  O  O355  1  0.37736019  0.83519463  0.69219807  1
  O  O356  1  0.70611005  0.33194574  0.19577549  1
  O  O357  1  0.71463389  0.32959611  0.69626665  1
  O  O358  1  0.71433551  0.83054864  0.20024321  1
  O  O359  1  0.71053787  0.83664870  0.69579055  1
  O  O360  1  0.21167294  0.40871814  0.18974250  1
  O  O361  1  0.20915561  0.41803710  0.69291039  1
  O  O362  1  0.22092499  0.92599841  0.19450964  1
  O  O363  1  0.20448482  0.91570655  0.69399578  1
  O  O364  1  0.54227818  0.41316547  0.19409442  1
  O  O365  1  0.54770173  0.41342527  0.68974981  1
  O  O366  1  0.54243689  0.92009940  0.19067106  1
  O  O367  1  0.54266972  0.91521355  0.69338645  1
  O  O368  1  0.87391345  0.41345384  0.19730252  1
  O  O369  1  0.87942252  0.41499567  0.69848855  1
  O  O370  1  0.87293962  0.91883802  0.19176575  1
  O  O371  1  0.87536991  0.91842955  0.69734030  1
  O  O372  1  0.02982394  0.16896612  0.19428180  1
  O  O373  1  0.04279845  0.16803266  0.69647130  1
  O  O374  1  0.03833170  0.66867441  0.19254225  1
  O  O375  1  0.04345982  0.66671071  0.69867726  1
  O  O376  1  0.37687084  0.16942683  0.19238677  1
  O  O377  1  0.37735054  0.16705312  0.68975909  1
  O  O378  1  0.38062694  0.66281175  0.18880798  1
  O  O379  1  0.37809279  0.66459992  0.68921379  1
  O  O380  1  0.70928780  0.16849448  0.19584885  1
  O  O381  1  0.71131435  0.16443126  0.69579789  1
  O  O382  1  0.70670378  0.66536424  0.19300245  1
  O  O383  1  0.71129579  0.67020350  0.69340572  1
  O  O384  1  0.11597495  0.07734216  0.30999669  1
  O  O385  1  0.12491559  0.08518272  0.80189040  1
  O  O386  1  0.11506054  0.59150845  0.30386709  1
  O  O387  1  0.12605820  0.58073784  0.80664277  1
  O  O388  1  0.45843772  0.08255329  0.29732560  1
  O  O389  1  0.46105901  0.08259059  0.80343877  1
  O  O390  1  0.45451847  0.58217845  0.30007985  1
  O  O391  1  0.45575716  0.58190324  0.80074097  1
  O  O392  1  0.78843973  0.08445085  0.30803836  1
  O  O393  1  0.78754510  0.08403106  0.80492535  1
  O  O394  1  0.78531184  0.58270508  0.30150450  1
  O  O395  1  0.78648793  0.58315698  0.80042057  1
  O  O396  1  0.29001906  0.33294733  0.30476641  1
  O  O397  1  0.29307841  0.33753112  0.80235175  1
  O  O398  1  0.30260613  0.83252309  0.30518719  1
  O  O399  1  0.28991017  0.82775575  0.80521655  1
  O  O400  1  0.61949878  0.33497202  0.30628826  1
  O  O401  1  0.62323554  0.33020105  0.80243971  1
  O  O402  1  0.62073993  0.82795588  0.30463204  1
  O  O403  1  0.62070644  0.83573582  0.80332794  1
  O  O404  1  0.95390980  0.33110579  0.31035461  1
  O  O405  1  0.95979201  0.33228783  0.80593718  1
  O  O406  1  0.95704120  0.84071080  0.30886391  1
  O  O407  1  0.95394327  0.83809125  0.80910313  1
  O  O408  1  0.11638601  0.40886258  0.30204130  1
  O  O409  1  0.12670027  0.41383908  0.80428467  1
  O  O410  1  0.12122746  0.92174068  0.30501870  1
  O  O411  1  0.12465685  0.91644069  0.80074719  1
  O  O412  1  0.45346148  0.41556403  0.30177712  1
  O  O413  1  0.46275114  0.41796634  0.80050773  1
  O  O414  1  0.46569316  0.91551891  0.30800797  1
  O  O415  1  0.45943112  0.91647111  0.80389894  1
  O  O416  1  0.78515756  0.41651471  0.30166585  1
  O  O417  1  0.79083830  0.41258445  0.80749890  1
  O  O418  1  0.79210371  0.91867576  0.30502221  1
  O  O419  1  0.78628004  0.91974630  0.80485000  1
  O  O420  1  0.30411726  0.16416173  0.30678469  1
  O  O421  1  0.29261724  0.17632994  0.80613038  1
  O  O422  1  0.29395369  0.66903268  0.30514980  1
  O  O423  1  0.28862511  0.65893231  0.80330885  1
  O  O424  1  0.62243371  0.16915489  0.30691264  1
  O  O425  1  0.62212425  0.16411866  0.80373035  1
  O  O426  1  0.62070825  0.66442554  0.30404125  1
  O  O427  1  0.62226407  0.66971397  0.80519679  1
  O  O428  1  0.95317792  0.16393318  0.30187934  1
  O  O429  1  0.95692293  0.16659115  0.80806195  1
  O  O430  1  0.95237324  0.66872738  0.30232752  1
  O  O431  1  0.95488076  0.66784254  0.80316803  1
  F  F432  1  0.03328653  0.00309584  0.19641859  1
  F  F433  1  0.03732654  0.00066328  0.70104031  1
  F  F434  1  0.02431052  0.49932485  0.19786660  1
  F  F435  1  0.04559305  0.50005041  0.70524984  1
  F  F436  1  0.38471997  -0.00084391  0.19930793  1
  F  F437  1  0.38412369  0.00202891  0.69049391  1
  F  F438  1  0.37901711  0.49627541  0.19601589  1
  F  F439  1  0.37980227  0.50032056  0.69720837  1
  F  F440  1  0.71309807  0.00927207  0.19909982  1
  F  F441  1  0.71193159  0.00078567  0.70091925  1
  F  F442  1  0.70640921  0.49769911  0.19915125  1
  F  F443  1  0.71496310  0.49571393  0.70126788  1
  F  F444  1  0.21517009  0.25708337  0.19867581  1
  F  F445  1  0.21103064  0.24982028  0.70053571  1
  F  F446  1  0.21782233  0.74058857  0.19665449  1
  F  F447  1  0.20270095  0.74964204  0.69972435  1
  F  F448  1  0.54531896  0.25082139  0.20163883  1
  F  F449  1  0.54880535  0.24582379  0.69940574  1
  F  F450  1  0.54708433  0.74792158  0.19879263  1
  F  F451  1  0.54689242  0.75279967  0.69849813  1
  F  F452  1  0.87246082  0.25257742  0.20396692  1
  F  F453  1  0.88037497  0.24905805  0.70471945  1
  F  F454  1  0.87458148  0.75135816  0.20480211  1
  F  F455  1  0.87696153  0.75345690  0.70450937  1
  F  F456  1  0.30445832  -0.00088291  0.30355952  1
  F  F457  1  0.29398155  -0.00046848  0.79665987  1
  F  F458  1  0.30334785  0.49951919  0.29916060  1
  F  F459  1  0.29157209  0.49837912  0.79350966  1
  F  F460  1  0.62118035  0.00454924  0.29968004  1
  F  F461  1  0.61996664  -0.00004123  0.79626922  1
  F  F462  1  0.61601823  0.49854575  0.29632836  1
  F  F463  1  0.62269556  0.49594184  0.79613011  1
  F  F464  1  0.94909823  0.00035024  0.29621688  1
  F  F465  1  0.95088921  0.00304274  0.79952478  1
  F  F466  1  0.95092726  0.49931812  0.30102685  1
  F  F467  1  0.95675293  0.49666286  0.80135438  1
  F  F468  1  0.11740452  0.25628461  0.30061071  1
  F  F469  1  0.12377117  0.25229860  0.79809283  1
  F  F470  1  0.11776911  0.74530723  0.29938731  1
  F  F471  1  0.12102549  0.74918261  0.80007455  1
  F  F472  1  0.45423971  0.25123402  0.29595748  1
  F  F473  1  0.45987360  0.24842870  0.79555381  1
  F  F474  1  0.45799172  0.74612607  0.29472817  1
  F  F475  1  0.46040152  0.74819189  0.79594856  1
  F  F476  1  0.78391535  0.24831779  0.29985274  1
  F  F477  1  0.78817415  0.24792142  0.79955652  1
  F  F478  1  0.78696905  0.74954112  0.30120596  1
  F  F479  1  0.78464570  0.75282936  0.79868867  1
