# generated using pymatgen
data_K24Na3Li5Mg64Fe17Si79(O5F)48
_symmetry_space_group_name_H-M   'P 1'
_cell_length_a   16.09519981
_cell_length_b   18.61447368
_cell_length_c   20.56932473
_cell_angle_alpha   89.99781961
_cell_angle_beta   100.04004979
_cell_angle_gamma   90.01394684
_symmetry_Int_Tables_number   1
_chemical_formula_structural   K24Na3Li5Mg64Fe17Si79(O5F)48
_chemical_formula_sum   'K24 Na3 Li5 Mg64 Fe17 Si79 O240 F48'
_cell_volume   6068.27113137
_cell_formula_units_Z   1
loop_
 _symmetry_equiv_pos_site_id
 _symmetry_equiv_pos_as_xyz
  1  'x, y, z'
loop_
 _atom_site_type_symbol
 _atom_site_label
 _atom_site_symmetry_multiplicity
 _atom_site_fract_x
 _atom_site_fract_y
 _atom_site_fract_z
 _atom_site_occupancy
  K  K0  1  0.00447472  -0.00649396  0.00245061  1
  K  K1  1  0.00437624  -0.01762475  0.49842181  1
  K  K2  1  0.00413084  0.51738250  -0.00565102  1
  K  K3  1  -0.00161810  0.50508816  0.50339344  1
  K  K4  1  0.33356309  -0.01408774  0.00041973  1
  K  K5  1  0.32858637  -0.00664973  0.49822318  1
  K  K6  1  0.33984457  0.51047554  -0.00484353  1
  K  K7  1  0.33777809  0.50833535  0.50406844  1
  K  K8  1  0.66912161  0.00570209  0.00196391  1
  K  K9  1  0.67038794  -0.00489554  0.50007081  1
  K  K10  1  0.66644610  0.50046241  -0.00480414  1
  K  K11  1  0.65886089  0.50488346  0.50172672  1
  K  K12  1  0.16439297  0.25334467  0.00132697  1
  K  K13  1  0.17298320  0.25661614  0.50226277  1
  K  K14  1  0.15856874  0.75890753  0.00265282  1
  K  K15  1  0.15396851  0.73990093  0.50361918  1
  K  K16  1  0.51008527  0.25096808  -0.00301071  1
  K  K17  1  0.50019156  0.25867404  0.50587670  1
  K  K18  1  0.50140049  0.74776341  -0.00076136  1
  K  K19  1  0.49091456  0.73891988  0.49143911  1
  K  K20  1  0.82366603  0.25056023  -0.00162170  1
  K  K21  1  0.83084311  0.25173808  0.49751404  1
  K  K22  1  0.83664734  0.74348398  -0.00373683  1
  K  K23  1  0.84154029  0.74335398  0.51193383  1
  Na  Na24  1  0.33418184  0.74840949  0.24977282  1
  Na  Na25  1  0.83845698  0.83052562  0.75202772  1
  Na  Na26  1  0.33385324  0.57942645  0.74780206  1
  Li  Li27  1  -0.00224573  0.74582728  0.74217431  1
  Li  Li28  1  0.49772842  0.50063619  0.25475770  1
  Li  Li29  1  0.50703399  0.33959035  0.75034847  1
  Li  Li30  1  -0.00118155  0.91485689  0.24384354  1
  Li  Li31  1  -0.00272964  0.59095424  0.74211831  1
  Mg  Mg32  1  0.83786270  0.50091690  0.74644169  1
  Mg  Mg33  1  0.83758332  -0.00200969  0.24556790  1
  Mg  Mg34  1  0.16673028  -0.00148748  0.24947038  1
  Mg  Mg35  1  0.50190425  -0.00283930  0.24664981  1
  Mg  Mg36  1  0.83429138  -0.00063901  0.75156932  1
  Mg  Mg37  1  0.66472882  0.25145194  0.25476357  1
  Mg  Mg38  1  0.16439634  0.50113438  0.25282776  1
  Mg  Mg39  1  0.33101138  0.74911821  0.75057435  1
  Mg  Mg40  1  0.49901199  -0.00199834  0.75316233  1
  Mg  Mg41  1  0.00115235  0.75188105  0.24489258  1
  Mg  Mg42  1  0.50338095  0.49812465  0.75030095  1
  Mg  Mg43  1  0.00158770  0.25413814  0.74784852  1
  Mg  Mg44  1  0.66919232  0.75211957  0.75399024  1
  Mg  Mg45  1  0.66718781  0.75004431  0.24446125  1
  Mg  Mg46  1  0.16747585  0.50205056  0.74541344  1
  Mg  Mg47  1  0.33916706  0.25127181  0.75114572  1
  Mg  Mg48  1  0.16398776  -0.00152399  0.74987725  1
  Mg  Mg49  1  0.82893702  0.49909368  0.25118835  1
  Mg  Mg50  1  0.66402578  0.25224019  0.75095246  1
  Mg  Mg51  1  -0.00252352  0.24803502  0.25029753  1
  Mg  Mg52  1  0.33286444  0.25203614  0.25653891  1
  Mg  Mg53  1  0.83403459  0.83376859  0.24299043  1
  Mg  Mg54  1  0.33515787  0.08431148  0.25371073  1
  Mg  Mg55  1  0.49780024  0.66475240  0.24924699  1
  Mg  Mg56  1  0.16545585  0.66656323  0.24829206  1
  Mg  Mg57  1  0.66647892  0.41479271  0.75117686  1
  Mg  Mg58  1  0.66685645  0.08372603  0.24893506  1
  Mg  Mg59  1  0.16319253  0.66591073  0.74597307  1
  Mg  Mg60  1  -0.00171858  0.91139869  0.75062884  1
  Mg  Mg61  1  0.83257183  0.33640379  0.74846714  1
  Mg  Mg62  1  0.33521273  0.91402809  0.24859878  1
  Mg  Mg63  1  0.50096730  0.33680421  0.25801407  1
  Mg  Mg64  1  0.00130283  0.08541946  0.75092088  1
  Mg  Mg65  1  0.66710661  0.91435633  0.24327957  1
  Mg  Mg66  1  0.83140004  0.66533561  0.24468669  1
  Mg  Mg67  1  0.16640290  0.33422780  0.25495551  1
  Mg  Mg68  1  0.50243875  0.16740706  0.75429259  1
  Mg  Mg69  1  0.50065457  0.66592683  0.75110359  1
  Mg  Mg70  1  0.66946357  0.58501920  0.74861395  1
  Mg  Mg71  1  0.83403664  0.16819757  0.75174111  1
  Mg  Mg72  1  0.50144783  0.16598619  0.25392593  1
  Mg  Mg73  1  0.32962011  0.91455976  0.75145847  1
  Mg  Mg74  1  0.66288416  0.41675829  0.25614832  1
  Mg  Mg75  1  0.33429657  0.58232080  0.25041338  1
  Mg  Mg76  1  -0.00331793  0.41476016  0.25330835  1
  Mg  Mg77  1  0.83225106  0.16367713  0.24755147  1
  Mg  Mg78  1  0.15847610  0.83132381  0.74992749  1
  Mg  Mg79  1  0.16813649  0.16721875  0.75154836  1
  Mg  Mg80  1  0.16692566  0.83421889  0.24872472  1
  Mg  Mg81  1  0.16677935  0.16570775  0.25258395  1
  Mg  Mg82  1  0.83935257  0.66753400  0.74433998  1
  Mg  Mg83  1  -0.00180268  0.08016921  0.24762437  1
  Mg  Mg84  1  0.50074567  0.83322043  0.24542087  1
  Mg  Mg85  1  0.50191314  0.83317271  0.75421440  1
  Mg  Mg86  1  0.66930200  0.08294710  0.75562115  1
  Mg  Mg87  1  0.82920112  0.33427565  0.25423144  1
  Mg  Mg88  1  0.16934653  0.33621241  0.74759198  1
  Mg  Mg89  1  0.66297395  0.58227211  0.24947449  1
  Mg  Mg90  1  0.33361215  0.08380738  0.75195639  1
  Mg  Mg91  1  -0.00178205  0.58483835  0.24780836  1
  Mg  Mg92  1  0.34011497  0.41519654  0.74932059  1
  Mg  Mg93  1  0.66975787  0.91478229  0.75522511  1
  Mg  Mg94  1  -0.00042194  0.42103460  0.74562343  1
  Mg  Mg95  1  0.33380214  0.41648441  0.25633318  1
  Fe  Fe96  1  0.35845583  0.82807737  0.10614115  1
  Fe  Fe97  1  0.52732047  0.91906474  0.10446180  1
  Fe  Fe98  1  0.13259326  0.91717213  0.89018379  1
  Fe  Fe99  1  0.02520734  0.66874891  0.10755957  1
  Fe  Fe100  1  0.63891133  0.83471741  0.89494396  1
  Fe  Fe101  1  0.81123093  0.92001159  0.89372496  1
  Fe  Fe102  1  0.85596341  0.41177326  0.60759901  1
  Fe  Fe103  1  0.01958422  0.83333107  0.60557649  1
  Fe  Fe104  1  0.63657576  0.33286354  0.39727138  1
  Fe  Fe105  1  0.30510098  0.33608646  0.39514955  1
  Fe  Fe106  1  0.69798244  0.82852735  0.10468476  1
  Fe  Fe107  1  0.30450566  0.66340798  0.39093987  1
  Fe  Fe108  1  0.85699928  0.08220887  0.10668258  1
  Fe  Fe109  1  0.80517773  0.42233758  0.39325149  1
  Fe  Fe110  1  0.02046025  0.65981341  0.60459327  1
  Fe  Fe111  1  0.53008729  0.42169320  0.61055493  1
  Fe  Fe112  1  0.64328129  0.33416645  0.89249051  1
  Si  Si113  1  0.81033778  0.07879588  0.38458561  1
  Si  Si114  1  0.47332168  0.08178717  0.88717324  1
  Si  Si115  1  0.85522619  0.92633537  0.61108562  1
  Si  Si116  1  0.14162950  0.08165721  0.38618234  1
  Si  Si117  1  0.35878568  0.17109746  0.11928935  1
  Si  Si118  1  0.30836394  0.83823990  0.38814711  1
  Si  Si119  1  0.97638289  0.83384442  0.37905026  1
  Si  Si120  1  0.36406956  0.32939858  0.61527705  1
  Si  Si121  1  0.96993457  0.67157915  0.38053967  1
  Si  Si122  1  0.31040155  0.17070719  0.88643169  1
  Si  Si123  1  0.47877441  0.58364299  0.38692910  1
  Si  Si124  1  0.47162597  0.41965759  0.88957747  1
  Si  Si125  1  0.81548278  0.58276007  0.88177860  1
  Si  Si126  1  0.19333451  0.57764802  0.11168568  1
  Si  Si127  1  0.12880282  0.41505344  0.38955531  1
  Si  Si128  1  0.68705032  0.16458325  0.61839974  1
  Si  Si129  1  0.35833476  0.67209450  0.61581650  1
  Si  Si130  1  0.64208662  0.66878579  0.38296691  1
  Si  Si131  1  0.85488439  0.57738944  0.11090218  1
  Si  Si132  1  0.03020340  0.16719008  0.11359098  1
  Si  Si133  1  0.68950242  0.83951149  0.61530752  1
  Si  Si134  1  0.19469711  0.92255606  0.11356378  1
  Si  Si135  1  0.98022366  0.33823873  0.88413476  1
  Si  Si136  1  0.81082875  0.91418793  0.38231759  1
  Si  Si137  1  0.02931905  0.83972292  0.11338628  1
  Si  Si138  1  0.19426142  0.58012659  0.60921713  1
  Si  Si139  1  0.52129579  0.41422375  0.11885667  1
  Si  Si140  1  0.13098681  0.58137205  0.38792520  1
  Si  Si141  1  0.52050102  0.08995632  0.11403188  1
  Si  Si142  1  0.30011331  0.83074936  0.88485574  1
  Si  Si143  1  0.14398274  0.41920096  0.88290812  1
  Si  Si144  1  0.84465692  0.58015516  0.60718510  1
  Si  Si145  1  0.97804140  0.17456520  0.88521936  1
  Si  Si146  1  0.64782915  0.66182561  0.88745974  1
  Si  Si147  1  0.68778922  0.17094194  0.11387855  1
  Si  Si148  1  0.20125789  0.41386873  0.61339478  1
  Si  Si149  1  0.97616280  0.16331551  0.38528729  1
  Si  Si150  1  0.68673323  0.33476671  0.11740563  1
  Si  Si151  1  0.97996354  0.66465130  0.87959697  1
  Si  Si152  1  0.80981229  0.59101629  0.38453257  1
  Si  Si153  1  0.52310243  0.57775091  0.11564902  1
  Si  Si154  1  0.85557833  0.41199238  0.11583269  1
  Si  Si155  1  0.31089844  0.66829642  0.88313239  1
  Si  Si156  1  0.68998572  0.67490142  0.61329779  1
  Si  Si157  1  0.46341702  0.91568381  0.88729729  1
  Si  Si158  1  0.52414719  0.59265434  0.61179441  1
  Si  Si159  1  0.19631132  0.08740169  0.11787877  1
  Si  Si160  1  0.30777443  0.33542917  0.88498362  1
  Si  Si161  1  0.81725333  0.08797561  0.88828805  1
  Si  Si162  1  0.64586490  0.16102964  0.39020220  1
  Si  Si163  1  0.46886620  0.42016736  0.39070585  1
  Si  Si164  1  0.02328846  0.33227793  0.11654683  1
  Si  Si165  1  0.35831172  0.65629058  0.11158410  1
  Si  Si166  1  0.14383276  0.08890586  0.88890531  1
  Si  Si167  1  0.36002371  0.16474827  0.61681850  1
  Si  Si168  1  0.47771821  0.07950185  0.38732610  1
  Si  Si169  1  0.68603032  0.65750273  0.11020358  1
  Si  Si170  1  0.69391001  0.32654094  0.61267076  1
  Si  Si171  1  0.19280357  0.08435267  0.61587345  1
  Si  Si172  1  0.14810126  0.58364085  0.88224012  1
  Si  Si173  1  0.96711662  0.32720468  0.38720907  1
  Si  Si174  1  0.81401990  0.41813658  0.88775518  1
  Si  Si175  1  0.85652862  0.09029651  0.61527000  1
  Si  Si176  1  0.97351694  0.82804263  0.89073504  1
  Si  Si177  1  0.47773065  0.91580256  0.38583730  1
  Si  Si178  1  0.47906232  0.58359286  0.88507542  1
  Si  Si179  1  0.52325030  0.91577975  0.61600314  1
  Si  Si180  1  0.35838979  0.83504114  0.61594820  1
  Si  Si181  1  0.64400432  0.16150368  0.89028055  1
  Si  Si182  1  0.03256812  0.33457383  0.61078715  1
  Si  Si183  1  0.64366902  0.83351245  0.38323586  1
  Si  Si184  1  0.52419813  0.07995679  0.61815706  1
  Si  Si185  1  0.02672509  0.16812843  0.61471129  1
  Si  Si186  1  0.18845994  0.41489744  0.11721361  1
  Si  Si187  1  0.19411776  0.91901805  0.61193198  1
  Si  Si188  1  0.86222635  0.91314670  0.11047277  1
  Si  Si189  1  0.31150794  0.16264827  0.39124520  1
  Si  Si190  1  0.14262641  0.91741618  0.38365048  1
  Si  Si191  1  0.35584195  0.33395105  0.11893354  1
  O  O192  1  0.27955561  0.11784897  0.08929983  1
  O  O193  1  0.27166839  0.12201840  0.58687529  1
  O  O194  1  0.28251566  0.59647105  0.08631319  1
  O  O195  1  0.27796819  0.62032556  0.58690543  1
  O  O196  1  0.60158914  0.12482221  0.08564867  1
  O  O197  1  0.60674039  0.11077709  0.58943120  1
  O  O198  1  0.60584270  0.60239917  0.08417470  1
  O  O199  1  0.59906386  0.63715291  0.58255511  1
  O  O200  1  0.95481465  0.11784768  0.07644162  1
  O  O201  1  0.93622816  0.12790889  0.58610869  1
  O  O202  1  0.92910898  0.60995988  0.07611368  1
  O  O203  1  0.92148039  0.60697114  0.57152578  1
  O  O204  1  0.10324758  0.36737438  0.08710175  1
  O  O205  1  0.11676014  0.36609074  0.58431770  1
  O  O206  1  0.11107698  0.87446001  0.08578436  1
  O  O207  1  0.11276742  0.87841924  0.57300885  1
  O  O208  1  0.43637214  0.36559002  0.08801252  1
  O  O209  1  0.43831289  0.35960611  0.58006095  1
  O  O210  1  0.44594571  0.85546354  0.06399314  1
  O  O211  1  0.43928274  0.86809451  0.58582563  1
  O  O212  1  0.76930981  0.36537871  0.08778694  1
  O  O213  1  0.78133392  0.33465255  0.58448266  1
  O  O214  1  0.80365961  0.84568499  0.08095892  1
  O  O215  1  0.76270944  0.88525131  0.58644999  1
  O  O216  1  0.26935031  0.37915760  0.08900745  1
  O  O217  1  0.27638816  0.37246025  0.58418346  1
  O  O218  1  0.26979062  0.89555640  0.07768552  1
  O  O219  1  0.27958857  0.88802854  0.58589510  1
  O  O220  1  0.60276534  0.38306784  0.08773366  1
  O  O221  1  0.62293983  0.38233890  0.57826586  1
  O  O222  1  0.62573538  0.90191464  0.07277541  1
  O  O223  1  0.60101830  0.88285193  0.58326346  1
  O  O224  1  0.93517949  0.37510446  0.08657038  1
  O  O225  1  0.95391962  0.38108665  0.57530003  1
  O  O226  1  0.95558688  0.89974130  0.08922483  1
  O  O227  1  0.92293340  0.89212333  0.57086554  1
  O  O228  1  0.11966655  0.14349099  0.08923437  1
  O  O229  1  0.10399653  0.12658219  0.58630300  1
  O  O230  1  0.11740414  0.62738959  0.07406404  1
  O  O231  1  0.11076452  0.61595575  0.56757816  1
  O  O232  1  0.44305742  0.14888692  0.09014070  1
  O  O233  1  0.43858590  0.12641050  0.58758416  1
  O  O234  1  0.44095650  0.62503643  0.08054449  1
  O  O235  1  0.43924862  0.64232459  0.58508473  1
  O  O236  1  0.76411016  0.14467360  0.07831239  1
  O  O237  1  0.77040922  0.13754646  0.58785218  1
  O  O238  1  0.76567254  0.61885184  0.08223381  1
  O  O239  1  0.76321244  0.63579730  0.58045771  1
  O  O240  1  0.06241929  0.11808495  0.41554983  1
  O  O241  1  0.06339496  0.12883004  0.91576569  1
  O  O242  1  0.04552293  0.61606426  0.41108218  1
  O  O243  1  0.06597082  0.61628069  0.90995946  1
  O  O244  1  0.39573862  0.11095480  0.41651304  1
  O  O245  1  0.39707780  0.12552661  0.91569434  1
  O  O246  1  0.40590694  0.61312392  0.42575702  1
  O  O247  1  0.39985824  0.62461522  0.91124107  1
  O  O248  1  0.72932596  0.10830609  0.41583241  1
  O  O249  1  0.73137913  0.11526454  0.91579042  1
  O  O250  1  0.72697370  0.62277313  0.41301445  1
  O  O251  1  0.73359220  0.61204835  0.91248230  1
  O  O252  1  0.20632991  0.36601763  0.42494060  1
  O  O253  1  0.22541981  0.36757644  0.91340732  1
  O  O254  1  0.23184288  0.88003794  0.41940548  1
  O  O255  1  0.22208300  0.85359310  0.91952293  1
  O  O256  1  0.53491581  0.35894335  0.42384221  1
  O  O257  1  0.55259110  0.37582733  0.92744611  1
  O  O258  1  0.56554836  0.87095609  0.41452850  1
  O  O259  1  0.53642618  0.86286286  0.92110400  1
  O  O260  1  0.88599232  0.34823126  0.41825111  1
  O  O261  1  0.90234753  0.37229020  0.91507043  1
  O  O262  1  0.89745390  0.86898501  0.41097531  1
  O  O263  1  0.88704457  0.84438784  0.91941169  1
  O  O264  1  0.04484223  0.38200148  0.41521611  1
  O  O265  1  0.06490953  0.38537975  0.91445261  1
  O  O266  1  0.06136543  0.88073381  0.41009696  1
  O  O267  1  0.04743730  0.88022083  0.93155258  1
  O  O268  1  0.38260021  0.40957961  0.42170173  1
  O  O269  1  0.38776688  0.38543122  0.91696796  1
  O  O270  1  0.39780609  0.88398245  0.41681488  1
  O  O271  1  0.37545249  0.88965704  0.91011390  1
  O  O272  1  0.71558259  0.39970814  0.43361835  1
  O  O273  1  0.74352808  0.38615281  0.92724869  1
  O  O274  1  0.73081329  0.87945654  0.41291480  1
  O  O275  1  0.71562569  0.90314356  0.92978725  1
  O  O276  1  0.23054720  0.12248266  0.41753983  1
  O  O277  1  0.22830229  0.14046861  0.91555492  1
  O  O278  1  0.21193520  0.62481393  0.42581075  1
  O  O279  1  0.23549946  0.62742394  0.91550403  1
  O  O280  1  0.56466203  0.12288147  0.41749731  1
  O  O281  1  0.56414726  0.11966174  0.91671479  1
  O  O282  1  0.56417851  0.63397915  0.41386650  1
  O  O283  1  0.56958817  0.62129136  0.91753756  1
  O  O284  1  0.89614726  0.12627227  0.41410628  1
  O  O285  1  0.89285577  0.14927529  0.91238208  1
  O  O286  1  0.88388186  0.65178534  0.40874335  1
  O  O287  1  0.90119050  0.62840272  0.91250518  1
  O  O288  1  0.17245086  0.00735071  0.08868458  1
  O  O289  1  0.18640137  0.00383833  0.58456938  1
  O  O290  1  0.17172726  0.49406084  0.08391258  1
  O  O291  1  0.19702442  0.49509754  0.58290098  1
  O  O292  1  0.49140515  0.01565051  0.07839084  1
  O  O293  1  0.50640974  -0.00139981  0.58698454  1
  O  O294  1  0.50172238  0.49484157  0.08790022  1
  O  O295  1  0.51016389  0.51597007  0.57515334  1
  O  O296  1  0.82794413  -0.01034970  0.07708010  1
  O  O297  1  0.83773565  0.01082786  0.58217702  1
  O  O298  1  0.83958678  0.49260580  0.08496855  1
  O  O299  1  0.81318494  0.50129910  0.57752544  1
  O  O300  1  0.01364851  0.25089275  0.08608947  1
  O  O301  1  0.02295518  0.24942937  0.58406106  1
  O  O302  1  0.00677643  0.76330248  0.07602026  1
  O  O303  1  0.00562084  0.74793598  0.56017353  1
  O  O304  1  0.33417624  0.25213074  0.08955692  1
  O  O305  1  0.34633199  0.24542394  0.58714776  1
  O  O306  1  0.32828657  0.73214522  0.07783422  1
  O  O307  1  0.33843378  0.75425223  0.58523874  1
  O  O308  1  0.66509912  0.25420340  0.08743811  1
  O  O309  1  0.65836295  0.24357734  0.58973096  1
  O  O310  1  0.66296715  0.73398327  0.07588278  1
  O  O311  1  0.68377541  0.75808480  0.58349114  1
  O  O312  1  0.14912651  -0.00029190  0.41567154  1
  O  O313  1  0.16071180  0.01223686  0.92395802  1
  O  O314  1  0.13610491  0.49815133  0.41643949  1
  O  O315  1  0.16170839  0.50037758  0.91351503  1
  O  O316  1  0.49379554  -0.00242309  0.41719348  1
  O  O317  1  0.47606451  -0.00021579  0.91524383  1
  O  O318  1  0.50632376  0.50154400  0.41212563  1
  O  O319  1  0.47914104  0.50311595  0.91875898  1
  O  O320  1  0.82659040  -0.00372862  0.41343362  1
  O  O321  1  0.85209933  0.01429809  0.92253882  1
  O  O322  1  0.84261156  0.51634858  0.41908206  1
  O  O323  1  0.83528371  0.50149831  0.91299599  1
  O  O324  1  0.32796412  0.23945122  0.42709553  1
  O  O325  1  0.32497770  0.25328881  0.91537302  1
  O  O326  1  0.32223025  0.75996917  0.42168457  1
  O  O327  1  0.32950793  0.74961144  0.91335846  1
  O  O328  1  0.66562042  0.23654687  0.42685267  1
  O  O329  1  0.65436573  0.23843105  0.92698132  1
  O  O330  1  0.65575264  0.75152615  0.41311210  1
  O  O331  1  0.66448985  0.73856917  0.92296032  1
  O  O332  1  0.99417139  0.24460127  0.41483826  1
  O  O333  1  0.99871606  0.25651294  0.91442146  1
  O  O334  1  0.99610082  0.75259133  0.40881785  1
  O  O335  1  0.99944496  0.74334977  0.91416689  1
  O  O336  1  0.21354982  0.08687258  0.19843925  1
  O  O337  1  0.21053818  0.08572804  0.69627899  1
  O  O338  1  0.20484352  0.57856903  0.19214673  1
  O  O339  1  0.20251350  0.58166811  0.68849411  1
  O  O340  1  0.54182238  0.08668635  0.19541640  1
  O  O341  1  0.54130690  0.08138779  0.69824567  1
  O  O342  1  0.54338202  0.58368247  0.19490996  1
  O  O343  1  0.54444302  0.58764615  0.69256952  1
  O  O344  1  0.87806883  0.08465512  0.19873295  1
  O  O345  1  0.87747670  0.08916690  0.69552809  1
  O  O346  1  0.87386768  0.57959526  0.19197734  1
  O  O347  1  0.86605762  0.58143176  0.68757481  1
  O  O348  1  0.04119974  0.33253028  0.19701815  1
  O  O349  1  0.04749857  0.33261423  0.69196415  1
  O  O350  1  0.04707723  0.83284630  0.19343987  1
  O  O351  1  0.04278315  0.83694369  0.69540472  1
  O  O352  1  0.37585373  0.33266242  0.19877366  1
  O  O353  1  0.37684666  0.32953002  0.69544929  1
  O  O354  1  0.38362677  0.84085673  0.19654850  1
  O  O355  1  0.37714045  0.83559648  0.69629675  1
  O  O356  1  0.70765693  0.33267915  0.19716763  1
  O  O357  1  0.71124485  0.33011589  0.69416855  1
  O  O358  1  0.71218470  0.83151055  0.19744573  1
  O  O359  1  0.69953400  0.83598648  0.69387341  1
  O  O360  1  0.20433511  0.41510613  0.19718450  1
  O  O361  1  0.21527533  0.41389998  0.69366253  1
  O  O362  1  0.21309561  0.92051221  0.19451897  1
  O  O363  1  0.21114440  0.91937667  0.69250859  1
  O  O364  1  0.54144433  0.41222446  0.19795267  1
  O  O365  1  0.54914697  0.42049645  0.70078006  1
  O  O366  1  0.54644427  0.91786523  0.19814235  1
  O  O367  1  0.53981713  0.91781271  0.69595130  1
  O  O368  1  0.87613530  0.41299546  0.19593898  1
  O  O369  1  0.87898481  0.41462786  0.69958345  1
  O  O370  1  0.87307794  0.91707417  0.19133719  1
  O  O371  1  0.88117242  0.92914663  0.69031577  1
  O  O372  1  0.04427516  0.16735540  0.19468260  1
  O  O373  1  0.04535844  0.16872643  0.69524846  1
  O  O374  1  0.04344486  0.66479890  0.19898883  1
  O  O375  1  0.04753403  0.66543573  0.69310650  1
  O  O376  1  0.37559656  0.16882899  0.19980572  1
  O  O377  1  0.37747471  0.16362745  0.69706887  1
  O  O378  1  0.38164124  0.65567153  0.19119664  1
  O  O379  1  0.38111686  0.67548203  0.69485095  1
  O  O380  1  0.70725018  0.16813081  0.19507563  1
  O  O381  1  0.70915540  0.16406570  0.69871644  1
  O  O382  1  0.70788159  0.66173464  0.19128569  1
  O  O383  1  0.70664535  0.66981586  0.69324326  1
  O  O384  1  0.12438877  0.08427750  0.30606571  1
  O  O385  1  0.12548189  0.08830421  0.80764694  1
  O  O386  1  0.11836361  0.58048392  0.30698818  1
  O  O387  1  0.13475519  0.58092530  0.80349852  1
  O  O388  1  0.45895373  0.08224661  0.30694886  1
  O  O389  1  0.45524735  0.08290392  0.80659641  1
  O  O390  1  0.45496869  0.58761274  0.30711588  1
  O  O391  1  0.46814568  0.58204539  0.80592016  1
  O  O392  1  0.79019017  0.08269257  0.30474071  1
  O  O393  1  0.79480250  0.08768444  0.80706123  1
  O  O394  1  0.78902601  0.58599840  0.30334490  1
  O  O395  1  0.79358622  0.58219440  0.80186389  1
  O  O396  1  0.28550605  0.33242660  0.30298654  1
  O  O397  1  0.29115328  0.33162458  0.80495470  1
  O  O398  1  0.28671221  0.84288502  0.30866541  1
  O  O399  1  0.28602815  0.83296028  0.80368673  1
  O  O400  1  0.62198007  0.33171611  0.30446441  1
  O  O401  1  0.62736593  0.33199561  0.80260407  1
  O  O402  1  0.62598357  0.83394142  0.30365239  1
  O  O403  1  0.62085535  0.83421060  0.80215192  1
  O  O404  1  0.95367533  0.32902821  0.30592238  1
  O  O405  1  0.96222495  0.33455772  0.80419802  1
  O  O406  1  0.95424563  0.83187144  0.29989113  1
  O  O407  1  0.96675934  0.83795429  0.81227314  1
  O  O408  1  0.11741799  0.41437660  0.30819337  1
  O  O409  1  0.12461738  0.41549249  0.80303114  1
  O  O410  1  0.12920288  0.91860451  0.30451633  1
  O  O411  1  0.12124335  0.92054963  0.79865002  1
  O  O412  1  0.45149230  0.41310760  0.31009383  1
  O  O413  1  0.45576843  0.41927254  0.80994454  1
  O  O414  1  0.45902557  0.91878388  0.30629804  1
  O  O415  1  0.45219862  0.91775576  0.80594837  1
  O  O416  1  0.78692845  0.41736330  0.30045313  1
  O  O417  1  0.79173168  0.41491803  0.80736416  1
  O  O418  1  0.79126453  0.91697489  0.30261329  1
  O  O419  1  0.78557177  0.92710053  0.80277279  1
  O  O420  1  0.29133864  0.16532515  0.31016856  1
  O  O421  1  0.29138672  0.16756297  0.80597728  1
  O  O422  1  0.28090814  0.65621236  0.30111515  1
  O  O423  1  0.28742442  0.67091579  0.80420062  1
  O  O424  1  0.62529270  0.16357954  0.30901388  1
  O  O425  1  0.62449807  0.16391507  0.80936681  1
  O  O426  1  0.62543717  0.66799434  0.30274150  1
  O  O427  1  0.62505931  0.66450703  0.80663003  1
  O  O428  1  0.95800143  0.16494799  0.30511554  1
  O  O429  1  0.96119102  0.17113563  0.80468452  1
  O  O430  1  0.95289072  0.66767497  0.30035865  1
  O  O431  1  0.95559863  0.66407626  0.80129457  1
  F  F432  1  0.05114906  0.00665140  0.20015779  1
  F  F433  1  0.04766730  0.01075643  0.69833378  1
  F  F434  1  0.04284556  0.49610511  0.20317772  1
  F  F435  1  0.05166258  0.49187523  0.69561590  1
  F  F436  1  0.37890442  0.00435477  0.20440797  1
  F  F437  1  0.37738900  0.00078006  0.70306568  1
  F  F438  1  0.37139952  0.49556808  0.20444012  1
  F  F439  1  0.38629148  0.48946538  0.69749839  1
  F  F440  1  0.71283547  0.00295783  0.20203216  1
  F  F441  1  0.70890244  0.00509119  0.70155558  1
  F  F442  1  0.70867765  0.49919060  0.20051866  1
  F  F443  1  0.71255737  0.49891043  0.70404006  1
  F  F444  1  0.21037927  0.24837267  0.20433161  1
  F  F445  1  0.21473854  0.24843787  0.70258407  1
  F  F446  1  0.19930414  0.75108576  0.19832390  1
  F  F447  1  0.21344294  0.75235106  0.69825443  1
  F  F448  1  0.54268335  0.24822835  0.20578737  1
  F  F449  1  0.54668970  0.23965213  0.70119304  1
  F  F450  1  0.54639245  0.74773111  0.19924766  1
  F  F451  1  0.54440435  0.74994369  0.70381304  1
  F  F452  1  0.87675534  0.25047872  0.20248056  1
  F  F453  1  0.88102927  0.24946058  0.70309688  1
  F  F454  1  0.87831084  0.74719560  0.19778582  1
  F  F455  1  0.87510031  0.74257415  0.68945635  1
  F  F456  1  0.28925077  0.00209404  0.29960423  1
  F  F457  1  0.28677147  0.00192176  0.79759588  1
  F  F458  1  0.28251500  0.49834202  0.29972787  1
  F  F459  1  0.28415413  0.48757494  0.79962371  1
  F  F460  1  0.62351654  0.00168964  0.29808036  1
  F  F461  1  0.61822072  0.00142459  0.79955321  1
  F  F462  1  0.62458425  0.50216241  0.29990906  1
  F  F463  1  0.62593524  0.50362638  0.80010734  1
  F  F464  1  0.95492873  0.00249317  0.30019255  1
  F  F465  1  0.95726921  0.00491274  0.79667986  1
  F  F466  1  0.95160102  0.50002594  0.29613376  1
  F  F467  1  0.95705122  0.49817700  0.79763430  1
  F  F468  1  0.11890701  0.24817966  0.29938295  1
  F  F469  1  0.12376367  0.25239708  0.79723945  1
  F  F470  1  0.12043131  0.75243198  0.29946322  1
  F  F471  1  0.13056375  0.74722261  0.79906873  1
  F  F472  1  0.45452063  0.24732896  0.30217097  1
  F  F473  1  0.45248824  0.24170923  0.80445801  1
  F  F474  1  0.47118058  0.75083443  0.30124429  1
  F  F475  1  0.45392206  0.75022270  0.79983752  1
  F  F476  1  0.78822207  0.24594581  0.29827212  1
  F  F477  1  0.79020559  0.25094543  0.79795214  1
  F  F478  1  0.78906520  0.74788877  0.29417485  1
  F  F479  1  0.78516758  0.73762182  0.79955191  1
