# generated using pymatgen
data_K24Na3Li5Mg64Fe17Si79(O5F)48
_symmetry_space_group_name_H-M   'P 1'
_cell_length_a   16.09722996
_cell_length_b   18.59743207
_cell_length_c   20.56934301
_cell_angle_alpha   90.00818946
_cell_angle_beta   100.00917802
_cell_angle_gamma   89.98395284
_symmetry_Int_Tables_number   1
_chemical_formula_structural   K24Na3Li5Mg64Fe17Si79(O5F)48
_chemical_formula_sum   'K24 Na3 Li5 Mg64 Fe17 Si79 O240 F48'
_cell_volume   6064.06317562
_cell_formula_units_Z   1
loop_
 _symmetry_equiv_pos_site_id
 _symmetry_equiv_pos_as_xyz
  1  'x, y, z'
loop_
 _atom_site_type_symbol
 _atom_site_label
 _atom_site_symmetry_multiplicity
 _atom_site_fract_x
 _atom_site_fract_y
 _atom_site_fract_z
 _atom_site_occupancy
  K  K0  1  -0.00431342  0.00366712  0.00201659  1
  K  K1  1  -0.00078071  -0.00575287  0.49050565  1
  K  K2  1  -0.00583371  0.49216595  0.00471740  1
  K  K3  1  0.00152473  0.50212611  0.49310937  1
  K  K4  1  0.32418036  0.00326886  0.00514117  1
  K  K5  1  0.32373316  0.01198177  0.49430639  1
  K  K6  1  0.33524634  0.49223830  0.00356949  1
  K  K7  1  0.32585310  0.49760015  0.49771180  1
  K  K8  1  0.68712151  0.00516330  0.01229943  1
  K  K9  1  0.66878751  0.00399840  0.49610097  1
  K  K10  1  0.66131704  0.49568003  0.00726136  1
  K  K11  1  0.66289014  0.50138896  0.49681460  1
  K  K12  1  0.17192022  0.25347614  0.00085594  1
  K  K13  1  0.17945485  0.24509306  0.49914331  1
  K  K14  1  0.16630212  0.74727117  0.00660204  1
  K  K15  1  0.13950554  0.74624066  0.48974777  1
  K  K16  1  0.50429319  0.25230189  0.00968783  1
  K  K17  1  0.49145396  0.24583201  0.49363116  1
  K  K18  1  0.50688651  0.73740885  0.01133247  1
  K  K19  1  0.50373535  0.75004883  0.49367550  1
  K  K20  1  0.83870031  0.24694962  0.00177470  1
  K  K21  1  0.83114371  0.24998959  0.49572344  1
  K  K22  1  0.83087950  0.75141454  0.01271598  1
  K  K23  1  0.83995176  0.75202274  0.49430336  1
  Na  Na24  1  0.66009109  0.25037640  0.24326530  1
  Na  Na25  1  0.33266549  0.41711608  0.75113928  1
  Na  Na26  1  0.83191724  0.83015338  0.24847320  1
  Li  Li27  1  0.33375864  0.25310630  0.74716092  1
  Li  Li28  1  0.34117474  0.24980861  0.25504458  1
  Li  Li29  1  0.00142558  0.58302096  0.25656302  1
  Li  Li30  1  0.49631333  0.32492428  0.24954161  1
  Li  Li31  1  0.16470632  0.66661622  0.74618978  1
  Mg  Mg32  1  0.33348969  0.75014055  0.74915731  1
  Mg  Mg33  1  0.00193666  0.24929527  0.24866957  1
  Mg  Mg34  1  0.83568894  0.00031365  0.74774381  1
  Mg  Mg35  1  0.16852489  -0.00031555  0.24958005  1
  Mg  Mg36  1  0.50044484  0.49767456  0.25069514  1
  Mg  Mg37  1  0.83437304  0.00069856  0.24665820  1
  Mg  Mg38  1  0.66899735  0.75042610  0.74731934  1
  Mg  Mg39  1  0.66723627  0.74685191  0.24913049  1
  Mg  Mg40  1  0.33207435  0.74989950  0.24935219  1
  Mg  Mg41  1  0.66468559  0.25131501  0.75570392  1
  Mg  Mg42  1  0.00604047  0.74915370  0.74480410  1
  Mg  Mg43  1  0.16709641  -0.00008531  0.74760099  1
  Mg  Mg44  1  0.49913125  0.49936122  0.75255269  1
  Mg  Mg45  1  0.83330863  0.49863138  0.25158878  1
  Mg  Mg46  1  0.49901589  0.00134265  0.24812915  1
  Mg  Mg47  1  0.16556099  0.49914408  0.25402347  1
  Mg  Mg48  1  -0.00217983  0.25087713  0.75371580  1
  Mg  Mg49  1  0.49969125  0.00265038  0.74916195  1
  Mg  Mg50  1  0.83527986  0.50039459  0.75046592  1
  Mg  Mg51  1  -0.00246783  0.74379901  0.25235101  1
  Mg  Mg52  1  0.16822721  0.50346212  0.75186909  1
  Mg  Mg53  1  0.66629068  0.41607300  0.75604441  1
  Mg  Mg54  1  0.33187801  0.08587758  0.24855535  1
  Mg  Mg55  1  -0.00118454  0.91332430  0.24734638  1
  Mg  Mg56  1  0.16850206  0.16859869  0.74919179  1
  Mg  Mg57  1  0.83670913  0.66582022  0.74624577  1
  Mg  Mg58  1  0.66901706  0.58510138  0.74935027  1
  Mg  Mg59  1  0.49715954  0.33317356  0.75280832  1
  Mg  Mg60  1  0.33165982  0.08837961  0.74823881  1
  Mg  Mg61  1  0.32931677  0.91655772  0.24673673  1
  Mg  Mg62  1  0.66726483  0.91603644  0.24868448  1
  Mg  Mg63  1  0.66560235  0.08567791  0.24560695  1
  Mg  Mg64  1  0.00075116  0.08630918  0.75196126  1
  Mg  Mg65  1  0.33379256  0.91678322  0.74816403  1
  Mg  Mg66  1  0.33381696  0.58343796  0.25411138  1
  Mg  Mg67  1  0.83060498  0.33121940  0.24819351  1
  Mg  Mg68  1  0.83252308  0.66248093  0.25227195  1
  Mg  Mg69  1  0.66100454  0.41391318  0.24780789  1
  Mg  Mg70  1  0.83677654  0.83510037  0.74482797  1
  Mg  Mg71  1  0.50025475  0.83302731  0.24867318  1
  Mg  Mg72  1  0.83223525  0.16561327  0.24550257  1
  Mg  Mg73  1  0.16600912  0.83082727  0.74515696  1
  Mg  Mg74  1  0.17141671  0.16712929  0.24652787  1
  Mg  Mg75  1  0.83474652  0.33535412  0.75540460  1
  Mg  Mg76  1  0.33735140  0.41268998  0.25396539  1
  Mg  Mg77  1  -0.00028911  0.91541783  0.74452012  1
  Mg  Mg78  1  0.00115828  0.58480551  0.74660574  1
  Mg  Mg79  1  0.66908423  0.91606714  0.74839496  1
  Mg  Mg80  1  0.49589184  0.16939584  0.75105920  1
  Mg  Mg81  1  0.50074717  0.66608191  0.75089555  1
  Mg  Mg82  1  0.16490994  0.66321113  0.25381060  1
  Mg  Mg83  1  0.16807020  0.33384030  0.74994267  1
  Mg  Mg84  1  0.00088461  0.41533563  0.75226096  1
  Mg  Mg85  1  0.50183189  0.83515884  0.75025194  1
  Mg  Mg86  1  0.49651318  0.16979237  0.24797930  1
  Mg  Mg87  1  0.17180211  0.33249417  0.25509072  1
  Mg  Mg88  1  0.66413751  0.58410313  0.25029601  1
  Mg  Mg89  1  0.00111213  0.41800422  0.25377689  1
  Mg  Mg90  1  0.16363076  0.83328352  0.24868820  1
  Mg  Mg91  1  0.33224081  0.58526212  0.75077317  1
  Mg  Mg92  1  0.83533399  0.16689479  0.75442107  1
  Mg  Mg93  1  0.50089802  0.66389535  0.25011719  1
  Mg  Mg94  1  0.00078242  0.08343209  0.24650367  1
  Mg  Mg95  1  0.66663734  0.08461299  0.75222200  1
  Fe  Fe96  1  0.69170049  0.16395688  0.10367772  1
  Fe  Fe97  1  0.97623415  0.16323045  0.89432384  1
  Fe  Fe98  1  0.19203247  0.08642479  0.10711486  1
  Fe  Fe99  1  0.14081756  0.58318876  0.39275531  1
  Fe  Fe100  1  0.85727626  0.57819927  0.60770534  1
  Fe  Fe101  1  0.52295721  0.58059123  0.10882438  1
  Fe  Fe102  1  0.86791599  0.08251553  0.10588097  1
  Fe  Fe103  1  0.35793836  0.17068290  0.61010879  1
  Fe  Fe104  1  0.63977119  0.33281449  0.89360959  1
  Fe  Fe105  1  0.97820493  0.33773982  0.89462737  1
  Fe  Fe106  1  0.69522841  0.66815819  0.10732761  1
  Fe  Fe107  1  0.18230752  0.91510885  0.10636103  1
  Fe  Fe108  1  0.96967386  0.83518512  0.38833383  1
  Fe  Fe109  1  0.02795567  0.83195180  0.60540108  1
  Fe  Fe110  1  0.64399334  0.66763887  0.39159489  1
  Fe  Fe111  1  0.85670836  0.92352812  0.60488378  1
  Fe  Fe112  1  0.31156810  0.16665301  0.38817931  1
  Si  Si113  1  0.35471637  0.66816311  0.11404894  1
  Si  Si114  1  0.14344783  0.91621842  0.38677804  1
  Si  Si115  1  0.68492411  0.83883954  0.11139708  1
  Si  Si116  1  0.63665300  0.16882000  0.38337786  1
  Si  Si117  1  0.79881134  0.92756278  0.38529179  1
  Si  Si118  1  0.30740920  0.67127567  0.38919652  1
  Si  Si119  1  0.97534654  0.32840763  0.38518175  1
  Si  Si120  1  0.85390240  0.09367187  0.61302857  1
  Si  Si121  1  0.02545963  0.33911539  0.11932301  1
  Si  Si122  1  0.30495298  0.16739853  0.88521194  1
  Si  Si123  1  0.14515286  0.42353221  0.88900794  1
  Si  Si124  1  0.13873164  0.08314257  0.38540374  1
  Si  Si125  1  0.47081542  0.08419050  0.88594307  1
  Si  Si126  1  0.52643305  0.58499568  0.61585088  1
  Si  Si127  1  0.80566399  0.42541289  0.89127086  1
  Si  Si128  1  0.35792907  0.33867761  0.61314758  1
  Si  Si129  1  0.63930252  0.16069325  0.88720917  1
  Si  Si130  1  0.52858362  0.91732619  0.61468889  1
  Si  Si131  1  0.52938989  0.08301363  0.61407525  1
  Si  Si132  1  0.47536492  0.58291923  0.88668238  1
  Si  Si133  1  0.31227442  0.33604365  0.39058397  1
  Si  Si134  1  0.36125598  0.66855385  0.61504032  1
  Si  Si135  1  0.68669590  0.33198891  0.61865879  1
  Si  Si136  1  0.68942428  0.66918597  0.61230003  1
  Si  Si137  1  0.47559675  0.91883723  0.88536072  1
  Si  Si138  1  0.69017434  0.33770422  0.11149179  1
  Si  Si139  1  0.14635248  0.58768254  0.88314700  1
  Si  Si140  1  0.47097815  0.58641873  0.39051841  1
  Si  Si141  1  0.31131075  0.83604179  0.38469859  1
  Si  Si142  1  0.02591853  0.16779700  0.61496653  1
  Si  Si143  1  0.52069643  0.91655300  0.11404386  1
  Si  Si144  1  0.64105995  0.83339728  0.88467053  1
  Si  Si145  1  0.80750733  0.40819761  0.38528450  1
  Si  Si146  1  0.02796265  0.65737192  0.11889255  1
  Si  Si147  1  0.86225168  0.58087421  0.11647194  1
  Si  Si148  1  0.02661954  0.66083006  0.61013480  1
  Si  Si149  1  0.86024869  0.91378503  0.11061299  1
  Si  Si150  1  0.18781484  0.08001129  0.61153215  1
  Si  Si151  1  0.69047212  0.83229398  0.61153475  1
  Si  Si152  1  0.19638952  0.58582315  0.61571210  1
  Si  Si153  1  0.30247944  0.33202275  0.88444716  1
  Si  Si154  1  0.64161611  0.66748104  0.88485550  1
  Si  Si155  1  0.52000799  0.41485462  0.11325153  1
  Si  Si156  1  0.97357354  0.16428865  0.38338536  1
  Si  Si157  1  0.63565341  0.33571439  0.38437804  1
  Si  Si158  1  0.31291693  0.66919306  0.88436544  1
  Si  Si159  1  0.19563301  0.41464606  0.11869879  1
  Si  Si160  1  0.14527379  0.07819242  0.88598912  1
  Si  Si161  1  0.69032391  0.16983753  0.61948056  1
  Si  Si162  1  0.19951905  0.91384912  0.61201657  1
  Si  Si163  1  0.36511693  0.83452359  0.61463017  1
  Si  Si164  1  0.14653362  0.91423671  0.88193314  1
  Si  Si165  1  0.02030706  0.82028208  0.11072757  1
  Si  Si166  1  0.85285744  0.40820615  0.61299004  1
  Si  Si167  1  0.52307867  0.07962533  0.11104036  1
  Si  Si168  1  0.14312045  0.41196952  0.39183204  1
  Si  Si169  1  0.31177835  0.83261850  0.88435212  1
  Si  Si170  1  0.35953471  0.32914687  0.11971071  1
  Si  Si171  1  0.81010631  0.91114241  0.88410305  1
  Si  Si172  1  0.47598332  0.91544873  0.38297810  1
  Si  Si173  1  0.64199419  0.83645217  0.38593052  1
  Si  Si174  1  0.96556020  0.66248721  0.39080236  1
  Si  Si175  1  0.80187216  0.07695070  0.88628489  1
  Si  Si176  1  0.03369975  0.17602668  0.11264581  1
  Si  Si177  1  0.36387557  0.16432318  0.11198901  1
  Si  Si178  1  0.97921920  0.83395996  0.88333788  1
  Si  Si179  1  0.19472531  0.58029419  0.11719811  1
  Si  Si180  1  0.80432831  0.57255985  0.38828264  1
  Si  Si181  1  0.81208119  0.59136705  0.88530846  1
  Si  Si182  1  0.18801948  0.42139947  0.61563276  1
  Si  Si183  1  0.52403184  0.42015663  0.61599552  1
  Si  Si184  1  0.85722114  0.41750155  0.11607609  1
  Si  Si185  1  0.80401814  0.09053499  0.38421114  1
  Si  Si186  1  0.47464708  0.42184750  0.38820789  1
  Si  Si187  1  0.98081565  0.66969856  0.88418311  1
  Si  Si188  1  0.02658668  0.33369049  0.61482852  1
  Si  Si189  1  0.35772336  0.83367378  0.11263436  1
  Si  Si190  1  0.47130265  0.41606601  0.88949682  1
  Si  Si191  1  0.47960807  0.07925927  0.38655711  1
  O  O192  1  0.28877803  0.11464848  0.07326190  1
  O  O193  1  0.26047818  0.11494582  0.57675219  1
  O  O194  1  0.26933542  0.61981355  0.08533929  1
  O  O195  1  0.27879020  0.61923032  0.58664486  1
  O  O196  1  0.60185012  0.09755371  0.07503586  1
  O  O197  1  0.61792150  0.11037025  0.58998771  1
  O  O198  1  0.60651642  0.61273495  0.06446777  1
  O  O199  1  0.60589913  0.61818952  0.58602806  1
  O  O200  1  0.96325928  0.12051335  0.07669035  1
  O  O201  1  0.93428910  0.13112609  0.58503158  1
  O  O202  1  0.95235463  0.60069681  0.09152764  1
  O  O203  1  0.95871211  0.59935537  0.57952884  1
  O  O204  1  0.10613809  0.37306388  0.08940460  1
  O  O205  1  0.10061925  0.37667694  0.58347014  1
  O  O206  1  0.09332677  0.84999937  0.07261491  1
  O  O207  1  0.13177958  0.85594629  0.57889994  1
  O  O208  1  0.43965384  0.35960492  0.08722056  1
  O  O209  1  0.43615275  0.38040583  0.58312530  1
  O  O210  1  0.44625712  0.85739110  0.08651859  1
  O  O211  1  0.44813071  0.86476724  0.58610229  1
  O  O212  1  0.77351740  0.37142409  0.08279129  1
  O  O213  1  0.77077058  0.35378398  0.58771931  1
  O  O214  1  0.76693019  0.87557162  0.08586423  1
  O  O215  1  0.76734456  0.85639786  0.57657442  1
  O  O216  1  0.27247739  0.37652745  0.08757710  1
  O  O217  1  0.27101854  0.38837961  0.58927051  1
  O  O218  1  0.28348723  0.88513855  0.07646182  1
  O  O219  1  0.28958168  0.89106282  0.58719959  1
  O  O220  1  0.60571899  0.38784864  0.08519408  1
  O  O221  1  0.60571512  0.38403377  0.58846303  1
  O  O222  1  0.60414402  0.89371739  0.08277325  1
  O  O223  1  0.60888330  0.88562658  0.58520143  1
  O  O224  1  0.94225469  0.38824068  0.08934723  1
  O  O225  1  0.93386955  0.36985821  0.58550316  1
  O  O226  1  0.92834151  0.85894578  0.08351543  1
  O  O227  1  0.95053979  0.90087025  0.56986952  1
  O  O228  1  0.12054284  0.16560086  0.08455799  1
  O  O229  1  0.09750719  0.12238274  0.58430951  1
  O  O230  1  0.10861532  0.62511045  0.08724199  1
  O  O231  1  0.11744351  0.63778774  0.58635050  1
  O  O232  1  0.44840951  0.13752082  0.08204360  1
  O  O233  1  0.45305108  0.13179217  0.57809134  1
  O  O234  1  0.42861478  0.64051028  0.07716144  1
  O  O235  1  0.44219807  0.63343399  0.58667713  1
  O  O236  1  0.77685715  0.13277778  0.06060606  1
  O  O237  1  0.77607058  0.15234913  0.58975122  1
  O  O238  1  0.79297965  0.63508907  0.07650673  1
  O  O239  1  0.76731271  0.64409990  0.57847179  1
  O  O240  1  0.05315744  0.11211078  0.41351963  1
  O  O241  1  0.06581726  0.09751355  0.92003250  1
  O  O242  1  0.04764615  0.61675897  0.42597939  1
  O  O243  1  0.06661520  0.62346117  0.91446883  1
  O  O244  1  0.40458646  0.10690693  0.42291181  1
  O  O245  1  0.39144530  0.12069485  0.91427852  1
  O  O246  1  0.38681257  0.61719917  0.41806705  1
  O  O247  1  0.39929357  0.62439559  0.91629564  1
  O  O248  1  0.73035256  0.13442659  0.41499358  1
  O  O249  1  0.71125382  0.09776501  0.90836870  1
  O  O250  1  0.72593551  0.59779672  0.42242440  1
  O  O251  1  0.73349422  0.63103327  0.91395681  1
  O  O252  1  0.22842986  0.36446542  0.42094539  1
  O  O253  1  0.22682014  0.37094893  0.91751859  1
  O  O254  1  0.23314382  0.87208643  0.41463026  1
  O  O255  1  0.22909527  0.86383921  0.91198836  1
  O  O256  1  0.56231377  0.37688506  0.41898573  1
  O  O257  1  0.54772732  0.36889595  0.92952367  1
  O  O258  1  0.55454315  0.86210782  0.41277186  1
  O  O259  1  0.56486102  0.87605957  0.91285709  1
  O  O260  1  0.89324299  0.36033348  0.41451533  1
  O  O261  1  0.88488465  0.37792261  0.92653710  1
  O  O262  1  0.87920761  0.88148968  0.41946118  1
  O  O263  1  0.89822679  0.86775891  0.91295262  1
  O  O264  1  0.06092143  0.37278252  0.41732994  1
  O  O265  1  0.06801497  0.40232040  0.92553578  1
  O  O266  1  0.07254309  0.88241293  0.42409627  1
  O  O267  1  0.06435982  0.88200639  0.91090257  1
  O  O268  1  0.39440525  0.38908789  0.41916198  1
  O  O269  1  0.38471311  0.38337351  0.91177353  1
  O  O270  1  0.39422398  0.88618580  0.41365141  1
  O  O271  1  0.39725832  0.87974183  0.91374300  1
  O  O272  1  0.72919441  0.37192829  0.41695027  1
  O  O273  1  0.72145954  0.40414123  0.91993448  1
  O  O274  1  0.71227009  0.89931103  0.41132126  1
  O  O275  1  0.73256265  0.87081770  0.91377222  1
  O  O276  1  0.21582816  0.13217096  0.42138390  1
  O  O277  1  0.22789341  0.12888087  0.91574110  1
  O  O278  1  0.23033408  0.64783422  0.42501359  1
  O  O279  1  0.23025882  0.63741361  0.91209996  1
  O  O280  1  0.56660385  0.12481222  0.41792110  1
  O  O281  1  0.55525145  0.13028423  0.91518020  1
  O  O282  1  0.54803938  0.63621720  0.42582783  1
  O  O283  1  0.56564174  0.62522370  0.91305692  1
  O  O284  1  0.89222748  0.13366322  0.41370795  1
  O  O285  1  0.87706955  0.12688588  0.92199384  1
  O  O286  1  0.88592470  0.62205625  0.41788079  1
  O  O287  1  0.89889538  0.63735483  0.91319974  1
  O  O288  1  0.15229469  0.00146703  0.06545736  1
  O  O289  1  0.17456250  -0.00405742  0.58482347  1
  O  O290  1  0.18574790  0.49738800  0.08801145  1
  O  O291  1  0.17827271  0.50394089  0.58498797  1
  O  O292  1  0.48893668  -0.00324226  0.08651880  1
  O  O293  1  0.51255499  -0.00088038  0.58641413  1
  O  O294  1  0.49061894  0.48896198  0.07439705  1
  O  O295  1  0.51392436  0.50302483  0.58654939  1
  O  O296  1  0.85869680  -0.01220487  0.06928022  1
  O  O297  1  0.82480128  0.01921638  0.57626790  1
  O  O298  1  0.84090975  0.49872848  0.08597025  1
  O  O299  1  0.82818394  0.48373063  0.57617388  1
  O  O300  1  0.00142991  0.25916849  0.09020739  1
  O  O301  1  0.02376105  0.25068190  0.58562683  1
  O  O302  1  0.00383335  0.73586862  0.08397985  1
  O  O303  1  -0.00133216  0.73790910  0.57641844  1
  O  O304  1  0.34349149  0.24847445  0.08723354  1
  O  O305  1  0.34028068  0.26350992  0.57360370  1
  O  O306  1  0.33238171  0.75098272  0.08704427  1
  O  O307  1  0.34823909  0.75179506  0.58630067  1
  O  O308  1  0.66789967  0.26058214  0.07723560  1
  O  O309  1  0.65885923  0.25026761  0.59172815  1
  O  O310  1  0.66869780  0.76293721  0.07274856  1
  O  O311  1  0.65700386  0.75083925  0.58845151  1
  O  O312  1  0.15812371  0.00023559  0.41351556  1
  O  O313  1  0.17300940  -0.00537352  0.90971320  1
  O  O314  1  0.15796301  0.48885794  0.42833524  1
  O  O315  1  0.17073219  0.50742580  0.91427959  1
  O  O316  1  0.50191961  -0.00455428  0.41298748  1
  O  O317  1  0.48310691  0.00081121  0.91479642  1
  O  O318  1  0.48806820  0.50359587  0.42008302  1
  O  O319  1  0.48033506  0.50144180  0.91634520  1
  O  O320  1  0.81065252  0.01029185  0.41708655  1
  O  O321  1  0.81892267  -0.00726058  0.91286609  1
  O  O322  1  0.82674358  0.48897509  0.41555223  1
  O  O323  1  0.82718666  0.51082818  0.91531816  1
  O  O324  1  0.33621030  0.25872385  0.42404067  1
  O  O325  1  0.31738588  0.24955666  0.91640188  1
  O  O326  1  0.33445794  0.75482913  0.41450549  1
  O  O327  1  0.32868286  0.75140250  0.91480792  1
  O  O328  1  0.63980004  0.25188033  0.41280851  1
  O  O329  1  0.66827415  0.23685233  0.92089891  1
  O  O330  1  0.67104814  0.76203885  0.42352171  1
  O  O331  1  0.64342592  0.75067660  0.91295779  1
  O  O332  1  0.99033491  0.24592672  0.41463619  1
  O  O333  1  1.00810426  0.25012898  0.93388220  1
  O  O334  1  0.97292607  0.74225462  0.42389872  1
  O  O335  1  0.99611016  0.75217024  0.91406531  1
  O  O336  1  0.21052131  0.07993719  0.19903238  1
  O  O337  1  0.20776021  0.08229393  0.69264523  1
  O  O338  1  0.21343090  0.58175602  0.19712113  1
  O  O339  1  0.21482071  0.58287534  0.69524143  1
  O  O340  1  0.54227677  0.08075103  0.19190208  1
  O  O341  1  0.54482201  0.08241323  0.69516975  1
  O  O342  1  0.54088498  0.58133066  0.20075541  1
  O  O343  1  0.54502869  0.58605594  0.69633410  1
  O  O344  1  0.88089304  0.08355018  0.19835121  1
  O  O345  1  0.87451429  0.08643412  0.69371444  1
  O  O346  1  0.87176980  0.57906492  0.19608732  1
  O  O347  1  0.87725621  0.58189874  0.70003373  1
  O  O348  1  0.04523726  0.33685351  0.19951428  1
  O  O349  1  0.04329593  0.33398374  0.69501833  1
  O  O350  1  0.04380202  0.82761792  0.19089902  1
  O  O351  1  0.04588126  0.83391214  0.69793595  1
  O  O352  1  0.37369418  0.33481958  0.19823552  1
  O  O353  1  0.38435777  0.33174316  0.69164466  1
  O  O354  1  0.37530233  0.83363682  0.19371816  1
  O  O355  1  0.38200042  0.83397387  0.69537440  1
  O  O356  1  0.71374405  0.34119047  0.19115186  1
  O  O357  1  0.70905375  0.33484875  0.69873109  1
  O  O358  1  0.69585753  0.83338118  0.19101424  1
  O  O359  1  0.70937302  0.83416358  0.69310735  1
  O  O360  1  0.21211554  0.41656518  0.19873126  1
  O  O361  1  0.19765111  0.42015847  0.69468025  1
  O  O362  1  0.20857408  0.91438129  0.19903370  1
  O  O363  1  0.21452769  0.91584604  0.69333242  1
  O  O364  1  0.54148543  0.42048910  0.19284293  1
  O  O365  1  0.54290423  0.42024409  0.69610021  1
  O  O366  1  0.54041243  0.91621072  0.19458964  1
  O  O367  1  0.54465205  0.91648469  0.69547944  1
  O  O368  1  0.87619157  0.41519651  0.19641516  1
  O  O369  1  0.87316415  0.41477246  0.69372744  1
  O  O370  1  0.88093675  0.92324241  0.18980814  1
  O  O371  1  0.87710372  0.91876834  0.69802302  1
  O  O372  1  0.04565576  0.16942527  0.19410641  1
  O  O373  1  0.04373527  0.16720505  0.69517470  1
  O  O374  1  0.04811695  0.66536191  0.19775972  1
  O  O375  1  0.04019369  0.66461817  0.69096396  1
  O  O376  1  0.37972120  0.15782663  0.19141003  1
  O  O377  1  0.37932974  0.16483265  0.70035175  1
  O  O378  1  0.37360463  0.66604453  0.19511475  1
  O  O379  1  0.38056932  0.66987356  0.69540856  1
  O  O380  1  0.71637916  0.15858043  0.19390484  1
  O  O381  1  0.70933157  0.16783903  0.69993541  1
  O  O382  1  0.71073662  0.66407863  0.19885894  1
  O  O383  1  0.70938554  0.66730739  0.69379376  1
  O  O384  1  0.12121740  0.08367248  0.30495883  1
  O  O385  1  0.12619758  0.08223306  0.80477726  1
  O  O386  1  0.12688460  0.58099164  0.30276288  1
  O  O387  1  0.12168204  0.58475246  0.80396550  1
  O  O388  1  0.45871664  0.08050199  0.30611551  1
  O  O389  1  0.45587809  0.08116504  0.80564889  1
  O  O390  1  0.45396544  0.58550847  0.30973648  1
  O  O391  1  0.45851497  0.58574340  0.80630492  1
  O  O392  1  0.78830069  0.08615749  0.30475035  1
  O  O393  1  0.78937713  0.07957390  0.80496811  1
  O  O394  1  0.78747454  0.57584085  0.30781154  1
  O  O395  1  0.79025700  0.58918559  0.80496539  1
  O  O396  1  0.28986855  0.33905777  0.31100622  1
  O  O397  1  0.28122965  0.32738966  0.80603165  1
  O  O398  1  0.29202006  0.83294297  0.30455005  1
  O  O399  1  0.29508520  0.83441800  0.80403598  1
  O  O400  1  0.61921876  0.34073869  0.30627864  1
  O  O401  1  0.62063323  0.33402337  0.80160912  1
  O  O402  1  0.62219667  0.83371235  0.30502981  1
  O  O403  1  0.62435877  0.83377735  0.80404816  1
  O  O404  1  0.95806974  0.33138135  0.30523083  1
  O  O405  1  0.95564549  0.33512155  0.80152207  1
  O  O406  1  0.96586681  0.83154918  0.29924928  1
  O  O407  1  0.95808760  0.83257689  0.80354779  1
  O  O408  1  0.12509146  0.41411721  0.31108564  1
  O  O409  1  0.12471448  0.41928502  0.80817029  1
  O  O410  1  0.12445167  0.91520253  0.30612000  1
  O  O411  1  0.12741346  0.91528762  0.80174702  1
  O  O412  1  0.45530215  0.42289116  0.30905685  1
  O  O413  1  0.46701954  0.41857920  0.81015709  1
  O  O414  1  0.45595710  0.91520117  0.30275378  1
  O  O415  1  0.45831661  0.91723556  0.80469988  1
  O  O416  1  0.78886286  0.41072492  0.30542797  1
  O  O417  1  0.79079968  0.42126986  0.80913906  1
  O  O418  1  0.78385782  0.92764374  0.30547627  1
  O  O419  1  0.78931778  0.91241918  0.80385083  1
  O  O420  1  0.28899520  0.16589577  0.29874209  1
  O  O421  1  0.28574193  0.16323617  0.80572051  1
  O  O422  1  0.29056002  0.66836470  0.30809565  1
  O  O423  1  0.29979243  0.67001059  0.80513843  1
  O  O424  1  0.61733810  0.15982813  0.30486254  1
  O  O425  1  0.62024024  0.16400919  0.80593484  1
  O  O426  1  0.61922159  0.66762388  0.30097643  1
  O  O427  1  0.62465777  0.66839992  0.80426634  1
  O  O428  1  0.95845637  0.16671960  0.30358663  1
  O  O429  1  0.95534724  0.16639266  0.80106255  1
  O  O430  1  0.95238308  0.66452128  0.31039215  1
  O  O431  1  0.96064638  0.66927402  0.80413642  1
  F  F432  1  0.04700166  -0.00204345  0.20282022  1
  F  F433  1  0.04593593  0.00263424  0.70214912  1
  F  F434  1  0.04933141  0.49158703  0.20228680  1
  F  F435  1  0.04531172  0.49852785  0.70374481  1
  F  F436  1  0.37833625  -0.00154663  0.20233076  1
  F  F437  1  0.38039969  -0.00091635  0.70129002  1
  F  F438  1  0.37669259  0.50089005  0.20511440  1
  F  F439  1  0.38525757  0.51180770  0.70015358  1
  F  F440  1  0.71100406  -0.00116800  0.19936527  1
  F  F441  1  0.71103649  0.00039013  0.70273385  1
  F  F442  1  0.71117140  0.49825030  0.20400742  1
  F  F443  1  0.71152136  0.49992895  0.70460629  1
  F  F444  1  0.20485164  0.25517605  0.20157572  1
  F  F445  1  0.20186892  0.25027609  0.69719870  1
  F  F446  1  0.21188576  0.74728547  0.20337025  1
  F  F447  1  0.21944333  0.75425663  0.69905856  1
  F  F448  1  0.52915356  0.24653974  0.19317972  1
  F  F449  1  0.54659040  0.24848029  0.70205835  1
  F  F450  1  0.54082780  0.75033741  0.20035018  1
  F  F451  1  0.54598200  0.75077673  0.70260026  1
  F  F452  1  0.88161934  0.25160802  0.19979866  1
  F  F453  1  0.87438285  0.25122254  0.70258241  1
  F  F454  1  0.88246968  0.73541550  0.19850022  1
  F  F455  1  0.87998231  0.74997704  0.70081216  1
  F  F456  1  0.29135321  -0.00217083  0.30054975  1
  F  F457  1  0.28973249  -0.00026533  0.79551355  1
  F  F458  1  0.28851102  0.49991357  0.30081944  1
  F  F459  1  0.28547899  0.51165084  0.80360508  1
  F  F460  1  0.61978082  -0.00000969  0.29471748  1
  F  F461  1  0.62077377  -0.00262359  0.79760468  1
  F  F462  1  0.62171703  0.49801257  0.29994604  1
  F  F463  1  0.62199081  0.50518737  0.79877007  1
  F  F464  1  0.95632766  -0.00114979  0.29808638  1
  F  F465  1  0.95654752  0.00007936  0.79732137  1
  F  F466  1  0.95132741  0.49248275  0.30274957  1
  F  F467  1  0.95596936  0.50017038  0.79890859  1
  F  F468  1  0.12074851  0.24972011  0.30031937  1
  F  F469  1  0.11982450  0.24988151  0.79771551  1
  F  F470  1  0.12355567  0.74948705  0.29911795  1
  F  F471  1  0.12426015  0.75128765  0.79772678  1
  F  F472  1  0.45803033  0.24358354  0.30448129  1
  F  F473  1  0.46214070  0.25072627  0.80331067  1
  F  F474  1  0.45279947  0.75056027  0.29648636  1
  F  F475  1  0.45819859  0.75202003  0.79889043  1
  F  F476  1  0.80092360  0.24874786  0.30015972  1
  F  F477  1  0.78751936  0.25049739  0.80066587  1
  F  F478  1  0.78299889  0.74080188  0.30267266  1
  F  F479  1  0.78926831  0.75105709  0.79510882  1
