# generated using pymatgen
data_K24Na3Li5Mg64Fe17Si79(O5F)48
_symmetry_space_group_name_H-M   'P 1'
_cell_length_a   16.11630764
_cell_length_b   18.62303872
_cell_length_c   20.58274927
_cell_angle_alpha   90.02551970
_cell_angle_beta   100.03601570
_cell_angle_gamma   89.95397144
_symmetry_Int_Tables_number   1
_chemical_formula_structural   K24Na3Li5Mg64Fe17Si79(O5F)48
_chemical_formula_sum   'K24 Na3 Li5 Mg64 Fe17 Si79 O240 F48'
_cell_volume   6083.06633252
_cell_formula_units_Z   1
loop_
 _symmetry_equiv_pos_site_id
 _symmetry_equiv_pos_as_xyz
  1  'x, y, z'
loop_
 _atom_site_type_symbol
 _atom_site_label
 _atom_site_symmetry_multiplicity
 _atom_site_fract_x
 _atom_site_fract_y
 _atom_site_fract_z
 _atom_site_occupancy
  K  K0  1  0.00421278  -0.01282818  0.00001932  1
  K  K1  1  0.01171846  -0.00554465  0.50259344  1
  K  K2  1  -0.00092441  0.49957306  -0.00124913  1
  K  K3  1  0.00479641  0.50763139  0.50448493  1
  K  K4  1  0.33127631  -0.00916708  0.00018361  1
  K  K5  1  0.32614279  -0.00893020  0.49809338  1
  K  K6  1  0.33281494  0.51344526  -0.00671739  1
  K  K7  1  0.34210711  0.49535251  0.51149310  1
  K  K8  1  0.66427397  -0.00280717  -0.01052428  1
  K  K9  1  0.66261581  -0.00229702  0.50951451  1
  K  K10  1  0.65045467  0.50750235  -0.01297084  1
  K  K11  1  0.67073933  0.51605730  0.50623984  1
  K  K12  1  0.16880527  0.25511316  -0.00316471  1
  K  K13  1  0.19188119  0.26001938  0.50753641  1
  K  K14  1  0.17473912  0.73826337  0.00062547  1
  K  K15  1  0.18059969  0.74514843  0.49927821  1
  K  K16  1  0.50516501  0.25384977  -0.01019372  1
  K  K17  1  0.49296626  0.26224972  0.50802965  1
  K  K18  1  0.49265431  0.73262495  0.00291223  1
  K  K19  1  0.49826862  0.74584323  0.49971758  1
  K  K20  1  0.83131252  0.26195547  -0.01341384  1
  K  K21  1  0.83304042  0.25618090  0.50883165  1
  K  K22  1  0.82652801  0.74478818  0.00001018  1
  K  K23  1  0.84145267  0.73284779  0.49966170  1
  Na  Na24  1  0.49744193  0.50033670  0.75337776  1
  Na  Na25  1  0.16421126  0.66747168  0.75190627  1
  Na  Na26  1  0.33538573  0.42159537  0.74802046  1
  Li  Li27  1  -0.00146598  0.25177977  0.74889826  1
  Li  Li28  1  0.66245014  0.74091528  0.24773046  1
  Li  Li29  1  0.33810000  0.41786433  0.25900522  1
  Li  Li30  1  0.66148082  0.59239512  0.24905261  1
  Li  Li31  1  0.66894262  0.91880190  0.75109809  1
  Mg  Mg32  1  0.16626222  -0.00442465  0.25128430  1
  Mg  Mg33  1  0.82574067  0.50199177  0.24497364  1
  Mg  Mg34  1  0.66880680  0.75331138  0.74979824  1
  Mg  Mg35  1  -0.00236635  0.74880041  0.24789436  1
  Mg  Mg36  1  0.00070946  0.74977679  0.74857361  1
  Mg  Mg37  1  0.16667560  0.00340646  0.74960327  1
  Mg  Mg38  1  0.83298086  -0.00156715  0.24889193  1
  Mg  Mg39  1  0.66515497  0.24975374  0.24978236  1
  Mg  Mg40  1  0.50509539  -0.00053641  0.75170057  1
  Mg  Mg41  1  -0.00079982  0.25121085  0.25064206  1
  Mg  Mg42  1  0.33202852  0.25265367  0.25219554  1
  Mg  Mg43  1  0.66689245  0.24959925  0.75223089  1
  Mg  Mg44  1  0.83542401  0.50132778  0.74940443  1
  Mg  Mg45  1  0.33320936  0.74638777  0.25274284  1
  Mg  Mg46  1  0.50057914  0.50040279  0.25358406  1
  Mg  Mg47  1  0.16694773  0.50047260  0.74815653  1
  Mg  Mg48  1  0.49953858  -0.00231317  0.25072803  1
  Mg  Mg49  1  0.16884682  0.49848354  0.24886814  1
  Mg  Mg50  1  0.33739511  0.25167088  0.74935840  1
  Mg  Mg51  1  0.33315496  0.74979751  0.74979734  1
  Mg  Mg52  1  0.83132466  0.00165800  0.75034753  1
  Mg  Mg53  1  0.66297893  0.41785235  0.24814606  1
  Mg  Mg54  1  0.83409315  0.33340675  0.74868716  1
  Mg  Mg55  1  0.16776013  0.66311448  0.24995662  1
  Mg  Mg56  1  0.33025579  0.58528424  0.74910366  1
  Mg  Mg57  1  0.66623558  0.08302363  0.24913397  1
  Mg  Mg58  1  0.49867072  0.16549025  0.24995948  1
  Mg  Mg59  1  0.16800518  0.16540289  0.25274305  1
  Mg  Mg60  1  0.66887267  0.58596424  0.75264353  1
  Mg  Mg61  1  -0.00190464  0.08805021  0.74872047  1
  Mg  Mg62  1  0.50399709  0.16553206  0.75087829  1
  Mg  Mg63  1  0.66579395  0.91303137  0.24709726  1
  Mg  Mg64  1  0.33627577  0.08447269  0.75043559  1
  Mg  Mg65  1  0.33468765  0.57858552  0.25225102  1
  Mg  Mg66  1  0.83787028  0.66673814  0.74777453  1
  Mg  Mg67  1  0.00008196  0.58502763  0.74838318  1
  Mg  Mg68  1  0.83012871  0.33506828  0.24906222  1
  Mg  Mg69  1  0.00051411  0.41285947  0.74722406  1
  Mg  Mg70  1  -0.00052120  0.91795192  0.74954125  1
  Mg  Mg71  1  0.00097896  0.91348859  0.25066229  1
  Mg  Mg72  1  0.33148891  0.91198603  0.25075548  1
  Mg  Mg73  1  0.82506044  0.66596251  0.24704076  1
  Mg  Mg74  1  -0.00346799  0.58327771  0.24586453  1
  Mg  Mg75  1  0.49918838  0.66720249  0.75149321  1
  Mg  Mg76  1  0.50366133  0.66366893  0.24936805  1
  Mg  Mg77  1  0.50439394  0.33616231  0.75365962  1
  Mg  Mg78  1  0.16991786  0.33576791  0.25134663  1
  Mg  Mg79  1  0.66834193  0.08418994  0.75186654  1
  Mg  Mg80  1  -0.00139837  0.41666864  0.24955131  1
  Mg  Mg81  1  0.83282856  0.16591825  0.24967132  1
  Mg  Mg82  1  0.49614124  0.33483718  0.25306172  1
  Mg  Mg83  1  0.00135452  0.08337217  0.25259428  1
  Mg  Mg84  1  0.33497222  0.91625483  0.75198923  1
  Mg  Mg85  1  0.16852794  0.83387743  0.25149566  1
  Mg  Mg86  1  0.83344567  0.83614729  0.75076570  1
  Mg  Mg87  1  0.16660315  0.83595759  0.74987354  1
  Mg  Mg88  1  0.33208833  0.08271740  0.25004766  1
  Mg  Mg89  1  0.16610892  0.33148601  0.74707477  1
  Mg  Mg90  1  0.66714304  0.41734595  0.75318193  1
  Mg  Mg91  1  0.82827487  0.83050955  0.24765112  1
  Mg  Mg92  1  0.16560728  0.16903325  0.74905487  1
  Mg  Mg93  1  0.83307597  0.16857922  0.75048608  1
  Mg  Mg94  1  0.50166059  0.83049930  0.24950772  1
  Mg  Mg95  1  0.50445736  0.83553958  0.75105056  1
  Fe  Fe96  1  0.36643666  0.33555108  0.61205336  1
  Fe  Fe97  1  0.29963233  0.66940696  0.89145135  1
  Fe  Fe98  1  0.31217874  0.82887972  0.39340382  1
  Fe  Fe99  1  0.97779049  0.66634670  0.89085478  1
  Fe  Fe100  1  0.64581428  0.33615886  0.89449381  1
  Fe  Fe101  1  0.86150540  0.58004063  0.60738640  1
  Fe  Fe102  1  0.18997963  0.91219897  0.10800655  1
  Fe  Fe103  1  0.31179827  0.33666003  0.38974981  1
  Fe  Fe104  1  0.46934787  0.58726873  0.89232861  1
  Fe  Fe105  1  0.68920886  0.66758957  0.10785949  1
  Fe  Fe106  1  0.48232298  0.58205529  0.39194037  1
  Fe  Fe107  1  0.68857438  0.16969204  0.61095357  1
  Fe  Fe108  1  0.19651983  0.58091802  0.60596884  1
  Fe  Fe109  1  0.02745082  0.67242892  0.60404962  1
  Fe  Fe110  1  0.13588243  0.91549282  0.39318033  1
  Fe  Fe111  1  0.64599522  0.16236278  0.89409203  1
  Fe  Fe112  1  0.19054603  0.58264162  0.10924941  1
  Si  Si113  1  0.52803674  0.92045817  0.11371472  1
  Si  Si114  1  0.96371260  0.83000122  0.38525400  1
  Si  Si115  1  0.80239300  0.58267372  0.38070189  1
  Si  Si116  1  0.36681818  0.83297903  0.11243512  1
  Si  Si117  1  0.30723685  0.32641743  0.88498890  1
  Si  Si118  1  0.47895789  0.08194872  0.38440456  1
  Si  Si119  1  0.85620590  0.92238216  0.61497254  1
  Si  Si120  1  0.48706996  0.41557346  0.39115927  1
  Si  Si121  1  0.47214504  0.07972911  0.88849218  1
  Si  Si122  1  0.85934255  0.08640504  0.61238425  1
  Si  Si123  1  0.52631659  0.57671946  0.11516425  1
  Si  Si124  1  0.30575971  0.84022345  0.88828860  1
  Si  Si125  1  0.31324756  0.16353425  0.38715915  1
  Si  Si126  1  0.52332959  0.07699480  0.61229667  1
  Si  Si127  1  0.02347881  0.16700733  0.11642230  1
  Si  Si128  1  0.64302723  0.67379383  0.38614657  1
  Si  Si129  1  0.14067202  0.08859491  0.38878950  1
  Si  Si130  1  0.68895213  0.33224467  0.11504585  1
  Si  Si131  1  0.53479213  0.42525866  0.61491069  1
  Si  Si132  1  0.64214884  0.67135368  0.88662480  1
  Si  Si133  1  0.13433505  0.58309134  0.38284730  1
  Si  Si134  1  0.69307931  0.83662501  0.61637331  1
  Si  Si135  1  0.36108879  0.16318405  0.61312081  1
  Si  Si136  1  0.19437879  0.08349166  0.61487261  1
  Si  Si137  1  0.30767403  0.65689533  0.38979489  1
  Si  Si138  1  0.85556134  0.41411506  0.11386620  1
  Si  Si139  1  0.13834801  0.09079694  0.88457232  1
  Si  Si140  1  0.14069304  0.92675460  0.88400718  1
  Si  Si141  1  0.64738286  0.83562227  0.88453231  1
  Si  Si142  1  0.64219143  0.83670359  0.38316660  1
  Si  Si143  1  0.02407148  0.32570276  0.61365800  1
  Si  Si144  1  0.19409026  0.91834756  0.61657617  1
  Si  Si145  1  0.96782235  0.66387798  0.38074986  1
  Si  Si146  1  0.35707546  0.16647686  0.11511547  1
  Si  Si147  1  0.35675075  0.32981905  0.11603638  1
  Si  Si148  1  0.81046172  0.08139010  0.38458442  1
  Si  Si149  1  0.35927739  0.83309363  0.61646889  1
  Si  Si150  1  0.64301585  0.32787439  0.38519124  1
  Si  Si151  1  0.02193523  0.84245376  0.61189931  1
  Si  Si152  1  0.85761484  0.91897167  0.11389046  1
  Si  Si153  1  0.01726285  0.82917858  0.11208810  1
  Si  Si154  1  0.14315925  0.40714346  0.88420398  1
  Si  Si155  1  0.85838590  0.40945449  0.61134131  1
  Si  Si156  1  0.53295787  0.59237540  0.61767020  1
  Si  Si157  1  0.69536256  0.67281789  0.61283842  1
  Si  Si158  1  0.02100711  0.66666462  0.11287823  1
  Si  Si159  1  0.69019148  0.33727773  0.61403904  1
  Si  Si160  1  0.02149434  0.33101153  0.11469953  1
  Si  Si161  1  0.97167014  0.16899769  0.88469137  1
  Si  Si162  1  0.52407028  0.91414132  0.61641044  1
  Si  Si163  1  0.18886143  0.08500312  0.11365629  1
  Si  Si164  1  0.18257570  0.41208933  0.60953255  1
  Si  Si165  1  0.18617080  0.41156001  0.11191382  1
  Si  Si166  1  0.02764634  0.16114746  0.61409955  1
  Si  Si167  1  0.81576875  0.07755384  0.89032288  1
  Si  Si168  1  0.80709253  0.58979153  0.88612594  1
  Si  Si169  1  0.69112007  0.83961772  0.10987091  1
  Si  Si170  1  0.64445031  0.16391548  0.38461090  1
  Si  Si171  1  0.47341052  0.41170930  0.89435320  1
  Si  Si172  1  0.85925522  0.58000166  0.11025324  1
  Si  Si173  1  0.98221784  0.83460058  0.88655958  1
  Si  Si174  1  0.81593820  0.91439002  0.88540931  1
  Si  Si175  1  0.47787646  0.91401287  0.88654177  1
  Si  Si176  1  0.69121730  0.16630366  0.11486724  1
  Si  Si177  1  0.80355208  0.91710910  0.38306161  1
  Si  Si178  1  0.85839707  0.08440518  0.11524853  1
  Si  Si179  1  0.97241285  0.17123737  0.38551101  1
  Si  Si180  1  0.13486848  0.41703789  0.38653317  1
  Si  Si181  1  0.52054018  0.41209852  0.11570781  1
  Si  Si182  1  0.97312222  0.33455524  0.88323076  1
  Si  Si183  1  0.36401161  0.66625889  0.11505711  1
  Si  Si184  1  0.81396226  0.42426073  0.88682301  1
  Si  Si185  1  0.80150020  0.41804844  0.38360473  1
  Si  Si186  1  0.96727671  0.33667327  0.38465174  1
  Si  Si187  1  0.13350207  0.56964186  0.88841832  1
  Si  Si188  1  0.52359850  0.08490375  0.11464531  1
  Si  Si189  1  0.30778239  0.16355571  0.88460176  1
  Si  Si190  1  0.36462600  0.66859655  0.61209035  1
  Si  Si191  1  0.47928215  0.91766986  0.38706785  1
  O  O192  1  0.27024657  0.12235042  0.08633873  1
  O  O193  1  0.27205573  0.11889406  0.58515515  1
  O  O194  1  0.27977995  0.62698825  0.07767669  1
  O  O195  1  0.29232709  0.61714102  0.57410973  1
  O  O196  1  0.60449277  0.12086822  0.08703228  1
  O  O197  1  0.59828197  0.10743714  0.57706962  1
  O  O198  1  0.59931527  0.60471121  0.07672096  1
  O  O199  1  0.60968121  0.62662807  0.58415959  1
  O  O200  1  0.93856845  0.11975286  0.08709940  1
  O  O201  1  0.94712536  0.10896292  0.58488573  1
  O  O202  1  0.94660943  0.60733557  0.08649975  1
  O  O203  1  0.94023979  0.61494327  0.56084076  1
  O  O204  1  0.10118873  0.36018923  0.08295401  1
  O  O205  1  0.10117294  0.35693337  0.58001503  1
  O  O206  1  0.09331589  0.85569166  0.07619606  1
  O  O207  1  0.10455743  0.88007615  0.58623460  1
  O  O208  1  0.43534132  0.36551888  0.08556716  1
  O  O209  1  0.45486554  0.37989326  0.57699971  1
  O  O210  1  0.44780801  0.87032184  0.08394857  1
  O  O211  1  0.43919406  0.86723561  0.58614865  1
  O  O212  1  0.76916749  0.36760809  0.08659979  1
  O  O213  1  0.77737122  0.35615957  0.58538792  1
  O  O214  1  0.77107981  0.87805022  0.08087703  1
  O  O215  1  0.77117664  0.87495649  0.58570904  1
  O  O216  1  0.26675185  0.36943811  0.08745566  1
  O  O217  1  0.26197586  0.37816965  0.58029239  1
  O  O218  1  0.28484940  0.87682939  0.07576833  1
  O  O219  1  0.27370621  0.88117162  0.58889383  1
  O  O220  1  0.60095185  0.37447533  0.08738104  1
  O  O221  1  0.62153750  0.40095278  0.58661561  1
  O  O222  1  0.61112885  0.89570873  0.08403291  1
  O  O223  1  0.60607711  0.88210550  0.58734408  1
  O  O224  1  0.93423038  0.37515301  0.08505413  1
  O  O225  1  0.93693964  0.36892854  0.58287595  1
  O  O226  1  0.93605493  0.88339862  0.08462288  1
  O  O227  1  0.94023911  0.89704763  0.58606915  1
  O  O228  1  0.10553359  0.13742371  0.08755764  1
  O  O229  1  0.10774629  0.12698704  0.58342058  1
  O  O230  1  0.10054144  0.64657570  0.07899517  1
  O  O231  1  0.11806742  0.64722763  0.56604247  1
  O  O232  1  0.43723026  0.13008638  0.08623517  1
  O  O233  1  0.43387068  0.11764824  0.58367964  1
  O  O234  1  0.44267341  0.62633613  0.08872420  1
  O  O235  1  0.45250944  0.64355030  0.58685308  1
  O  O236  1  0.77138509  0.12953256  0.08731662  1
  O  O237  1  0.78558099  0.13874806  0.57633742  1
  O  O238  1  0.78273825  0.62820888  0.07380111  1
  O  O239  1  0.76800745  0.64098193  0.57648378  1
  O  O240  1  0.06398278  0.13604632  0.41411290  1
  O  O241  1  0.06430226  0.13274515  0.91518933  1
  O  O242  1  0.05443543  0.62042811  0.41029370  1
  O  O243  1  0.05190739  0.59143104  0.92149945  1
  O  O244  1  0.39491509  0.10865714  0.41235760  1
  O  O245  1  0.38540428  0.10902532  0.91409900  1
  O  O246  1  0.37886318  0.59848827  0.42039580  1
  O  O247  1  0.39419787  0.62768939  0.93985597  1
  O  O248  1  0.72806390  0.11385284  0.41245087  1
  O  O249  1  0.73977546  0.10141765  0.92695591  1
  O  O250  1  0.72973578  0.62490142  0.41216826  1
  O  O251  1  0.72068588  0.61565154  0.91262026  1
  O  O252  1  0.21447295  0.37061058  0.42094507  1
  O  O253  1  0.22484023  0.35629708  0.91498680  1
  O  O254  1  0.22858432  0.86633589  0.43536410  1
  O  O255  1  0.23366392  0.89339439  0.91332749  1
  O  O256  1  0.56223535  0.35306330  0.41627430  1
  O  O257  1  0.55477521  0.36719512  0.93381340  1
  O  O258  1  0.56251343  0.86747060  0.41545533  1
  O  O259  1  0.56759287  0.87224139  0.91500545  1
  O  O260  1  0.88852478  0.37375151  0.41311936  1
  O  O261  1  0.90249367  0.37881625  0.91617796  1
  O  O262  1  0.87789013  0.86042793  0.41124452  1
  O  O263  1  0.89845951  0.86497594  0.91606997  1
  O  O264  1  0.05083509  0.38312355  0.41316728  1
  O  O265  1  0.06520572  0.36921107  0.91501427  1
  O  O266  1  0.03942258  0.87832923  0.42311536  1
  O  O267  1  0.06131797  0.89155094  0.91260810  1
  O  O268  1  0.40630985  0.39197308  0.42367701  1
  O  O269  1  0.38827305  0.37380218  0.91832610  1
  O  O270  1  0.40391679  0.89308549  0.42342526  1
  O  O271  1  0.39922175  0.87822003  0.91604274  1
  O  O272  1  0.72656456  0.37663547  0.41363646  1
  O  O273  1  0.74234486  0.39409701  0.92531990  1
  O  O274  1  0.71942195  0.89362076  0.41204649  1
  O  O275  1  0.73207979  0.88445841  0.91384298  1
  O  O276  1  0.23037945  0.13067298  0.41452593  1
  O  O277  1  0.22584252  0.13313319  0.91461822  1
  O  O278  1  0.21734760  0.63014913  0.41206124  1
  O  O279  1  0.21008622  0.62205965  0.92058577  1
  O  O280  1  0.56165166  0.13321224  0.41217116  1
  O  O281  1  0.55026319  0.12492140  0.92710376  1
  O  O282  1  0.56987751  0.64813222  0.42609782  1
  O  O283  1  0.56619872  0.64567205  0.92194203  1
  O  O284  1  0.89528124  0.12893347  0.41341899  1
  O  O285  1  0.90141148  0.12586875  0.91893009  1
  O  O286  1  0.89211764  0.62299984  0.40999944  1
  O  O287  1  0.87822033  0.64420471  0.92259036  1
  O  O288  1  0.16997833  0.00894005  0.07696649  1
  O  O289  1  0.18485131  0.00073916  0.58648944  1
  O  O290  1  0.17040928  0.48788798  0.07502700  1
  O  O291  1  0.15925728  0.48894412  0.57366456  1
  O  O292  1  0.50821401  0.00335221  0.08520111  1
  O  O293  1  0.50669617  -0.00608350  0.58377916  1
  O  O294  1  0.50450047  0.49317467  0.08746368  1
  O  O295  1  0.51853918  0.50991006  0.58983215  1
  O  O296  1  0.84687451  0.00264524  0.08616285  1
  O  O297  1  0.83561393  0.00367558  0.58522023  1
  O  O298  1  0.84656610  0.49506845  0.08398466  1
  O  O299  1  0.83890956  0.48517299  0.57419905  1
  O  O300  1  0.00336924  0.24823485  0.08713772  1
  O  O301  1  0.00812655  0.24223973  0.58424484  1
  O  O302  1  -0.01493435  0.74765968  0.08838627  1
  O  O303  1  -0.00095110  0.76869006  0.57385676  1
  O  O304  1  0.34510922  0.24742409  0.08416582  1
  O  O305  1  0.35287966  0.24013624  0.57748621  1
  O  O306  1  0.36381993  0.74971608  0.08664899  1
  O  O307  1  0.34550614  0.75301715  0.58457979  1
  O  O308  1  0.67847541  0.24866205  0.08750599  1
  O  O309  1  0.65602865  0.26216086  0.57888662  1
  O  O310  1  0.67080526  0.76366685  0.07394686  1
  O  O311  1  0.67685387  0.75632604  0.58459835  1
  O  O312  1  0.14347025  0.01258596  0.42545457  1
  O  O313  1  0.14570551  0.00912644  0.91438191  1
  O  O314  1  0.14169181  0.50096696  0.41225897  1
  O  O315  1  0.16026150  0.48648416  0.91655354  1
  O  O316  1  0.50670065  0.00140344  0.41168268  1
  O  O317  1  0.48588667  -0.00401690  0.91656984  1
  O  O318  1  0.52579330  0.49119672  0.42152842  1
  O  O319  1  0.48064040  0.49244213  0.92521160  1
  O  O320  1  0.82829754  -0.00086399  0.41205068  1
  O  O321  1  0.84035859  -0.00546544  0.91691078  1
  O  O322  1  0.80875349  0.50016846  0.41167847  1
  O  O323  1  0.83350592  0.50760692  0.91258105  1
  O  O324  1  0.33538524  0.24036071  0.42072645  1
  O  O325  1  0.32597941  0.24381579  0.91663801  1
  O  O326  1  0.33320573  0.73425224  0.42456667  1
  O  O327  1  0.30206422  0.76554298  0.92546651  1
  O  O328  1  0.66693449  0.24513065  0.41247072  1
  O  O329  1  0.67337120  0.24827331  0.93639429  1
  O  O330  1  0.67002559  0.75729844  0.41284020  1
  O  O331  1  0.66832448  0.75460262  0.91427283  1
  O  O332  1  0.97310244  0.25378524  0.41345704  1
  O  O333  1  0.97453521  0.25167444  0.91354993  1
  O  O334  1  0.97344351  0.74575251  0.41022128  1
  O  O335  1  1.01100053  0.75981285  0.92209551  1
  O  O336  1  0.20760847  0.08388081  0.19476259  1
  O  O337  1  0.21096050  0.08411903  0.69531724  1
  O  O338  1  0.21084349  0.58143096  0.20086004  1
  O  O339  1  0.21055857  0.57801210  0.69539788  1
  O  O340  1  0.54299760  0.08412406  0.19506981  1
  O  O341  1  0.54184327  0.07979700  0.69308836  1
  O  O342  1  0.54392881  0.57851134  0.19497686  1
  O  O343  1  0.55352114  0.59550038  0.69670581  1
  O  O344  1  0.87618817  0.08459519  0.19586633  1
  O  O345  1  0.87670564  0.08533771  0.69325316  1
  O  O346  1  0.87401262  0.58076128  0.19128583  1
  O  O347  1  0.87694684  0.58157074  0.69897637  1
  O  O348  1  0.03900615  0.33184672  0.19517065  1
  O  O349  1  0.04274625  0.32940864  0.69316311  1
  O  O350  1  0.03822430  0.83248360  0.19299082  1
  O  O351  1  0.04198742  0.84044009  0.69276778  1
  O  O352  1  0.37990447  0.32547892  0.19513783  1
  O  O353  1  0.38825706  0.32551061  0.70128476  1
  O  O354  1  0.38103790  0.83641846  0.19306836  1
  O  O355  1  0.37880554  0.83667833  0.69662455  1
  O  O356  1  0.70885837  0.33001150  0.19552313  1
  O  O357  1  0.71194443  0.33405662  0.69478870  1
  O  O358  1  0.71238920  0.84140002  0.18989608  1
  O  O359  1  0.71323870  0.83507210  0.69568964  1
  O  O360  1  0.19637135  0.41427218  0.19128482  1
  O  O361  1  0.19508571  0.41299828  0.68973071  1
  O  O362  1  0.21122060  0.91717999  0.19908118  1
  O  O363  1  0.21146941  0.92115962  0.69685810  1
  O  O364  1  0.54148898  0.41020663  0.19588097  1
  O  O365  1  0.55120913  0.41427767  0.69390608  1
  O  O366  1  0.54422819  0.92003635  0.19411630  1
  O  O367  1  0.53996166  0.91681760  0.69582244  1
  O  O368  1  0.87533985  0.41321467  0.19430657  1
  O  O369  1  0.87692322  0.41363610  0.69205236  1
  O  O370  1  0.87546446  0.91821413  0.19446427  1
  O  O371  1  0.87589226  0.92024912  0.69524858  1
  O  O372  1  0.04066945  0.16620226  0.19695393  1
  O  O373  1  0.04730515  0.16091918  0.69347957  1
  O  O374  1  0.04067269  0.66574017  0.19405604  1
  O  O375  1  0.03338174  0.66922650  0.69385122  1
  O  O376  1  0.37620657  0.16485183  0.19553540  1
  O  O377  1  0.37826189  0.16249559  0.69418247  1
  O  O378  1  0.37585950  0.66690745  0.19558321  1
  O  O379  1  0.37905070  0.67351688  0.69201345  1
  O  O380  1  0.70986354  0.16539749  0.19554719  1
  O  O381  1  0.71352329  0.16603772  0.70208530  1
  O  O382  1  0.71092097  0.66746196  0.19679616  1
  O  O383  1  0.71368657  0.67196698  0.69370145  1
  O  O384  1  0.12193687  0.08547868  0.30732644  1
  O  O385  1  0.12242205  0.08711561  0.80453911  1
  O  O386  1  0.11652080  0.58153088  0.30240846  1
  O  O387  1  0.11374018  0.56999969  0.80848603  1
  O  O388  1  0.45931761  0.08308515  0.30367381  1
  O  O389  1  0.45710640  0.08071516  0.80759805  1
  O  O390  1  0.45706288  0.58371263  0.30048528  1
  O  O391  1  0.44988329  0.59398443  0.80278838  1
  O  O392  1  0.79112026  0.08349425  0.30399193  1
  O  O393  1  0.79593714  0.08165934  0.80975351  1
  O  O394  1  0.78975225  0.58039029  0.30143873  1
  O  O395  1  0.79137084  0.58862007  0.80539524  1
  O  O396  1  0.28681637  0.33111249  0.29924224  1
  O  O397  1  0.28501539  0.32266836  0.80601654  1
  O  O398  1  0.29041338  0.83089711  0.30085069  1
  O  O399  1  0.29009997  0.83959166  0.80757099  1
  O  O400  1  0.62504338  0.32906393  0.30461477  1
  O  O401  1  0.62671484  0.33241538  0.80228580  1
  O  O402  1  0.62124024  0.83987177  0.30361117  1
  O  O403  1  0.62533475  0.83477161  0.80523017  1
  O  O404  1  0.95178249  0.33317980  0.30398311  1
  O  O405  1  0.95448256  0.33519522  0.80402546  1
  O  O406  1  0.95175745  0.83345839  0.30417863  1
  O  O407  1  0.95889948  0.83742080  0.80573562  1
  O  O408  1  0.11785517  0.41478617  0.30535917  1
  O  O409  1  0.12300574  0.40900582  0.80432986  1
  O  O410  1  0.11864961  0.91603258  0.30042056  1
  O  O411  1  0.12307914  0.92408815  0.80371622  1
  O  O412  1  0.46702913  0.41408010  0.31036683  1
  O  O413  1  0.46553580  0.40631834  0.81582641  1
  O  O414  1  0.45889468  0.91693485  0.30588828  1
  O  O415  1  0.45891113  0.91633423  0.80630610  1
  O  O416  1  0.78683760  0.41476255  0.30334584  1
  O  O417  1  0.79444513  0.41795663  0.80622137  1
  O  O418  1  0.78752589  0.91899435  0.30257442  1
  O  O419  1  0.79825068  0.91751656  0.80602455  1
  O  O420  1  0.29208704  0.16395646  0.30571310  1
  O  O421  1  0.28981239  0.16354200  0.80443132  1
  O  O422  1  0.29006303  0.66337299  0.30833928  1
  O  O423  1  0.29755343  0.67248220  0.80252957  1
  O  O424  1  0.62540519  0.16400931  0.30395785  1
  O  O425  1  0.62248301  0.16398944  0.80224410  1
  O  O426  1  0.61846826  0.67009287  0.30732811  1
  O  O427  1  0.62557973  0.67259286  0.80591587  1
  O  O428  1  0.95408070  0.16822836  0.30479783  1
  O  O429  1  0.95402037  0.16396965  0.80545105  1
  O  O430  1  0.95198912  0.66474648  0.30032566  1
  O  O431  1  0.95578831  0.67014570  0.79978530  1
  F  F432  1  0.04166523  0.00305115  0.20202176  1
  F  F433  1  0.04575857  0.00292897  0.70142522  1
  F  F434  1  0.04155159  0.49734082  0.20097139  1
  F  F435  1  0.04211979  0.49654020  0.70091483  1
  F  F436  1  0.37955694  0.00089392  0.20262118  1
  F  F437  1  0.37993130  -0.00050374  0.70452217  1
  F  F438  1  0.38031602  0.49595889  0.20438112  1
  F  F439  1  0.37040062  0.51351418  0.69028987  1
  F  F440  1  0.71213849  0.00304251  0.20012204  1
  F  F441  1  0.71449245  0.00390438  0.70248369  1
  F  F442  1  0.71406965  0.48560889  0.19321512  1
  F  F443  1  0.71450639  0.50191668  0.70354436  1
  F  F444  1  0.20854647  0.24545262  0.20140323  1
  F  F445  1  0.21392680  0.24597404  0.69924025  1
  F  F446  1  0.21085107  0.74755382  0.20295158  1
  F  F447  1  0.21761855  0.76693958  0.69770986  1
  F  F448  1  0.54555445  0.24661002  0.20217856  1
  F  F449  1  0.54584396  0.24719389  0.70205314  1
  F  F450  1  0.53974951  0.75035114  0.20005719  1
  F  F451  1  0.54760193  0.75446072  0.70209360  1
  F  F452  1  0.87661367  0.24923874  0.20146259  1
  F  F453  1  0.87540480  0.24909960  0.70158238  1
  F  F454  1  0.87733018  0.75071999  0.19977400  1
  F  F455  1  0.87743836  0.75730814  0.70066869  1
  F  F456  1  0.28925483  0.00202418  0.29856749  1
  F  F457  1  0.28818086  0.00223950  0.79874668  1
  F  F458  1  0.28386848  0.49757913  0.30058487  1
  F  F459  1  0.28214767  0.50728949  0.80303442  1
  F  F460  1  0.62290594  0.00136941  0.29633385  1
  F  F461  1  0.62157747  0.00296177  0.80067986  1
  F  F462  1  0.62307965  0.49408504  0.29775888  1
  F  F463  1  0.63709480  0.50274508  0.80363761  1
  F  F464  1  0.95211366  0.00142685  0.29813880  1
  F  F465  1  0.95610742  0.00291234  0.79632311  1
  F  F466  1  0.94915525  0.49872483  0.29469467  1
  F  F467  1  0.95425672  0.49391077  0.79688281  1
  F  F468  1  0.11831011  0.24923101  0.29772826  1
  F  F469  1  0.12420012  0.24764648  0.79781073  1
  F  F470  1  0.11775538  0.74861603  0.29601417  1
  F  F471  1  0.11649425  0.76579362  0.80059734  1
  F  F472  1  0.45656361  0.24601423  0.29882099  1
  F  F473  1  0.45533839  0.24049650  0.80244260  1
  F  F474  1  0.45421012  0.75122552  0.29772527  1
  F  F475  1  0.45693150  0.75603949  0.79759052  1
  F  F476  1  0.78792078  0.24845941  0.29789015  1
  F  F477  1  0.79202365  0.25195606  0.80146586  1
  F  F478  1  0.79391178  0.75145593  0.29904267  1
  F  F479  1  0.78967141  0.75299615  0.79761670  1
