# generated using pymatgen
data_K24Na3Li5Mg64Fe17Si79(O5F)48
_symmetry_space_group_name_H-M   'P 1'
_cell_length_a   16.11096546
_cell_length_b   18.59425783
_cell_length_c   20.56138294
_cell_angle_alpha   90.00954584
_cell_angle_beta   99.99253331
_cell_angle_gamma   89.98972153
_symmetry_Int_Tables_number   1
_chemical_formula_structural   K24Na3Li5Mg64Fe17Si79(O5F)48
_chemical_formula_sum   'K24 Na3 Li5 Mg64 Fe17 Si79 O240 F48'
_cell_volume   6066.16417881
_cell_formula_units_Z   1
loop_
 _symmetry_equiv_pos_site_id
 _symmetry_equiv_pos_as_xyz
  1  'x, y, z'
loop_
 _atom_site_type_symbol
 _atom_site_label
 _atom_site_symmetry_multiplicity
 _atom_site_fract_x
 _atom_site_fract_y
 _atom_site_fract_z
 _atom_site_occupancy
  K  K0  1  0.00708395  0.00527247  -0.00490294  1
  K  K1  1  0.00985607  0.00922266  0.50765536  1
  K  K2  1  -0.01926485  0.49658757  -0.00878993  1
  K  K3  1  -0.00288610  0.49472563  0.50539321  1
  K  K4  1  0.33212921  0.00926574  0.00088967  1
  K  K5  1  0.32945573  0.00186361  0.50747398  1
  K  K6  1  0.32500351  0.49368748  -0.00490133  1
  K  K7  1  0.33662209  0.49592041  0.50053050  1
  K  K8  1  0.66242183  0.00473909  -0.00657787  1
  K  K9  1  0.66427281  -0.00015574  0.50534364  1
  K  K10  1  0.67412266  0.48723611  -0.00282928  1
  K  K11  1  0.66715246  0.50002623  0.50055578  1
  K  K12  1  0.17158406  0.24304115  -0.00506779  1
  K  K13  1  0.16640501  0.24111186  0.50754052  1
  K  K14  1  0.15502316  0.75641123  -0.01263544  1
  K  K15  1  0.16969334  0.75474386  0.50584057  1
  K  K16  1  0.49460151  0.25149721  -0.00247417  1
  K  K17  1  0.50489095  0.24905631  0.50117276  1
  K  K18  1  0.49939093  0.75378209  -0.00233882  1
  K  K19  1  0.50331410  0.75259583  0.50377493  1
  K  K20  1  0.84558902  0.25157463  -0.00047084  1
  K  K21  1  0.83515754  0.24857904  0.50244497  1
  K  K22  1  0.84314314  0.75299693  -0.00880260  1
  K  K23  1  0.83599576  0.74944830  0.50620315  1
  Na  Na24  1  0.83341801  0.00205796  0.75417319  1
  Na  Na25  1  0.16827004  0.83001317  0.74793066  1
  Na  Na26  1  0.32890195  0.08277212  0.74536620  1
  Li  Li27  1  0.16603689  0.00241673  0.24038675  1
  Li  Li28  1  0.00083162  0.25500941  0.24838465  1
  Li  Li29  1  0.49636303  0.33095214  0.75065747  1
  Li  Li30  1  -0.00431265  0.40801709  0.24446808  1
  Li  Li31  1  0.16956441  0.16466258  0.75021160  1
  Mg  Mg32  1  0.83722513  0.49690807  0.25068936  1
  Mg  Mg33  1  0.66773125  0.24917395  0.25417240  1
  Mg  Mg34  1  0.33277170  0.75161692  0.25099223  1
  Mg  Mg35  1  0.49782901  -0.00074247  0.74614065  1
  Mg  Mg36  1  0.83304114  0.49862977  0.75099349  1
  Mg  Mg37  1  0.49916723  0.00034941  0.25153186  1
  Mg  Mg38  1  0.00000514  0.75077423  0.75071974  1
  Mg  Mg39  1  0.16728881  0.00010016  0.74923343  1
  Mg  Mg40  1  0.66763506  0.75115081  0.25690202  1
  Mg  Mg41  1  0.00008938  0.24724697  0.75094482  1
  Mg  Mg42  1  0.33066693  0.25066737  0.74658450  1
  Mg  Mg43  1  0.16315624  0.49935825  0.24875573  1
  Mg  Mg44  1  0.83589229  0.00231752  0.25487709  1
  Mg  Mg45  1  0.16634532  0.49814323  0.74904389  1
  Mg  Mg46  1  0.50096788  0.49965352  0.25714748  1
  Mg  Mg47  1  0.50034087  0.49584588  0.74968502  1
  Mg  Mg48  1  0.33279746  0.24950659  0.24739181  1
  Mg  Mg49  1  0.66742382  0.75141033  0.74757818  1
  Mg  Mg50  1  0.66317840  0.25025302  0.75228450  1
  Mg  Mg51  1  -0.00011756  0.75084273  0.24821253  1
  Mg  Mg52  1  0.33349910  0.74612478  0.74564123  1
  Mg  Mg53  1  0.49790383  0.83374791  0.74600845  1
  Mg  Mg54  1  0.16528673  0.83788894  0.24705813  1
  Mg  Mg55  1  0.33314408  0.41347722  0.74764453  1
  Mg  Mg56  1  0.83565570  0.83579704  0.25349034  1
  Mg  Mg57  1  -0.00160664  0.58498450  0.74902636  1
  Mg  Mg58  1  0.00504714  0.08487750  0.75181341  1
  Mg  Mg59  1  0.83587654  0.66498600  0.75147415  1
  Mg  Mg60  1  0.33314870  0.41602102  0.25282113  1
  Mg  Mg61  1  0.16325469  0.16703137  0.24632644  1
  Mg  Mg62  1  0.50282437  0.33400697  0.25405095  1
  Mg  Mg63  1  0.83781389  0.16740815  0.25414624  1
  Mg  Mg64  1  0.66405135  0.91810540  0.74728179  1
  Mg  Mg65  1  0.66923472  0.58345024  0.75097296  1
  Mg  Mg66  1  0.67048335  0.41328393  0.25354596  1
  Mg  Mg67  1  0.83565064  0.16572693  0.75378761  1
  Mg  Mg68  1  0.00056137  0.91883889  0.75135931  1
  Mg  Mg69  1  -0.00016827  0.41391014  0.75159134  1
  Mg  Mg70  1  0.32821565  0.08432434  0.24459554  1
  Mg  Mg71  1  0.66876834  0.58349143  0.25478902  1
  Mg  Mg72  1  0.83380374  0.66587065  0.24973106  1
  Mg  Mg73  1  0.66433214  0.08435002  0.75029986  1
  Mg  Mg74  1  -0.00183839  0.58093036  0.24747287  1
  Mg  Mg75  1  0.33527283  0.58445499  0.25445582  1
  Mg  Mg76  1  0.16710554  0.32988543  0.74880065  1
  Mg  Mg77  1  0.50218750  0.66495223  0.25681152  1
  Mg  Mg78  1  0.00265930  0.08714942  0.25009115  1
  Mg  Mg79  1  0.33122694  0.58086903  0.74548331  1
  Mg  Mg80  1  0.16502959  0.66357074  0.74607465  1
  Mg  Mg81  1  0.32920375  0.91878619  0.24860122  1
  Mg  Mg82  1  0.67021919  0.08358700  0.25528472  1
  Mg  Mg83  1  0.83414375  0.83588934  0.75165080  1
  Mg  Mg84  1  0.16145053  0.33383878  0.24871852  1
  Mg  Mg85  1  0.50042582  0.66400772  0.74654558  1
  Mg  Mg86  1  0.66973734  0.91594772  0.25736917  1
  Mg  Mg87  1  0.49882151  0.16555651  0.25127822  1
  Mg  Mg88  1  0.16621340  0.66665073  0.25079698  1
  Mg  Mg89  1  0.83935174  0.33292045  0.24952517  1
  Mg  Mg90  1  0.66544896  0.41339764  0.75201717  1
  Mg  Mg91  1  0.49498767  0.16872230  0.74711990  1
  Mg  Mg92  1  0.33042475  0.91360392  0.74591926  1
  Mg  Mg93  1  0.00258335  0.91925438  0.24719662  1
  Mg  Mg94  1  0.50204221  0.83428550  0.25429332  1
  Mg  Mg95  1  0.83434537  0.33364010  0.75150593  1
  Fe  Fe96  1  0.80027394  0.41335362  0.88994163  1
  Fe  Fe97  1  0.64647580  0.83610705  0.39497148  1
  Fe  Fe98  1  0.19069364  0.58157871  0.60722988  1
  Fe  Fe99  1  0.30752872  0.33360765  0.88878684  1
  Fe  Fe100  1  0.86109661  0.58165950  0.60926039  1
  Fe  Fe101  1  0.85648282  0.41496836  0.10950128  1
  Fe  Fe102  1  0.98044787  0.16017321  0.89376396  1
  Fe  Fe103  1  0.97709394  0.66882063  0.89068686  1
  Fe  Fe104  1  0.19162581  0.91512173  0.10764764  1
  Fe  Fe105  1  0.97951161  0.33359669  0.89182038  1
  Fe  Fe106  1  0.19084489  0.08330123  0.60631221  1
  Fe  Fe107  1  0.64727376  0.33012829  0.39345124  1
  Fe  Fe108  1  0.81723336  0.08287075  0.39357254  1
  Fe  Fe109  1  0.36012774  0.17051012  0.10836973  1
  Fe  Fe110  1  0.14976950  0.91593799  0.88720627  1
  Fe  Fe111  1  0.52027302  0.91950833  0.60818669  1
  Fe  Fe112  1  0.47416509  0.58415801  0.39522618  1
  Si  Si113  1  0.14155365  0.41928934  0.38337801  1
  Si  Si114  1  0.01862588  0.16518730  0.61111646  1
  Si  Si115  1  0.68891680  0.32636640  0.11443281  1
  Si  Si116  1  0.79956596  0.91656377  0.88579601  1
  Si  Si117  1  0.85635347  0.08381502  0.61576435  1
  Si  Si118  1  0.30277817  0.16519250  0.38276176  1
  Si  Si119  1  0.97534126  0.66533755  0.38318038  1
  Si  Si120  1  0.79895682  0.08520888  0.88981261  1
  Si  Si121  1  0.97983672  0.17319700  0.38793432  1
  Si  Si122  1  0.53046232  0.42010903  0.11816762  1
  Si  Si123  1  0.86019663  0.91682628  0.61590978  1
  Si  Si124  1  0.81351180  0.58177071  0.38467011  1
  Si  Si125  1  0.52747331  0.41773447  0.61513721  1
  Si  Si126  1  0.53003712  0.08028782  0.11487685  1
  Si  Si127  1  0.97956548  0.33613386  0.38349894  1
  Si  Si128  1  0.97252577  0.84183467  0.89061864  1
  Si  Si129  1  0.52914720  0.91551591  0.11795606  1
  Si  Si130  1  0.81582909  0.41736186  0.38894581  1
  Si  Si131  1  0.46798298  0.91749766  0.38739076  1
  Si  Si132  1  0.53305180  0.58275033  0.61493191  1
  Si  Si133  1  0.69197495  0.67305031  0.11729559  1
  Si  Si134  1  0.19063180  0.91301523  0.60889869  1
  Si  Si135  1  0.69337179  0.16228815  0.11815697  1
  Si  Si136  1  0.65103173  0.66449213  0.39280903  1
  Si  Si137  1  0.63869382  0.83270529  0.88498669  1
  Si  Si138  1  0.86174541  0.08567010  0.11640633  1
  Si  Si139  1  0.30108475  0.33078546  0.38433814  1
  Si  Si140  1  0.36575217  0.83031521  0.11374895  1
  Si  Si141  1  0.63033833  0.32999789  0.88681856  1
  Si  Si142  1  0.53038493  0.58493352  0.11823170  1
  Si  Si143  1  0.36439049  0.65974861  0.61040761  1
  Si  Si144  1  0.81984505  0.91648732  0.39169389  1
  Si  Si145  1  0.47330295  0.91456457  0.88425464  1
  Si  Si146  1  0.69553056  0.83767533  0.11819654  1
  Si  Si147  1  0.02182419  0.66508870  0.11517783  1
  Si  Si148  1  0.01947641  0.83557169  0.61433670  1
  Si  Si149  1  0.02095028  0.83016593  0.11147439  1
  Si  Si150  1  0.31171344  0.16905306  0.88422717  1
  Si  Si151  1  0.31715983  0.82463394  0.88468552  1
  Si  Si152  1  0.19346385  0.42027396  0.11539529  1
  Si  Si153  1  0.30093926  0.67104432  0.38900349  1
  Si  Si154  1  0.02216374  0.32947603  0.61350571  1
  Si  Si155  1  0.69446504  0.67002674  0.61383787  1
  Si  Si156  1  0.13485723  0.91793361  0.38304375  1
  Si  Si157  1  0.14122639  0.42145754  0.88646194  1
  Si  Si158  1  0.18643136  0.08709066  0.10829609  1
  Si  Si159  1  0.36235367  0.17602200  0.60824677  1
  Si  Si160  1  0.69213205  0.16581777  0.61632042  1
  Si  Si161  1  0.03092170  0.33638079  0.11272987  1
  Si  Si162  1  0.30099818  0.83704677  0.38495315  1
  Si  Si163  1  0.14748983  0.58464659  0.88574293  1
  Si  Si164  1  0.63264706  0.16462360  0.88638220  1
  Si  Si165  1  0.18568012  0.41249474  0.60940561  1
  Si  Si166  1  0.36115347  0.34328907  0.11478533  1
  Si  Si167  1  0.80208261  0.58672031  0.89058310  1
  Si  Si168  1  0.15238045  0.08087984  0.88718022  1
  Si  Si169  1  0.35839580  0.33879419  0.61186505  1
  Si  Si170  1  0.46923767  0.08386397  0.38484394  1
  Si  Si171  1  0.13832691  0.08374240  0.38213664  1
  Si  Si172  1  0.85314575  0.58597018  0.11259295  1
  Si  Si173  1  0.31471588  0.66235625  0.88319753  1
  Si  Si174  1  0.69389760  0.83595713  0.61301033  1
  Si  Si175  1  0.85574802  0.41291233  0.61117640  1
  Si  Si176  1  0.63540804  0.66874516  0.88411825  1
  Si  Si177  1  0.47102509  0.41050068  0.39225790  1
  Si  Si178  1  0.97697601  0.82921010  0.38495205  1
  Si  Si179  1  0.35466366  0.82584549  0.60908829  1
  Si  Si180  1  0.02706568  0.67139761  0.60746561  1
  Si  Si181  1  0.64115780  0.15796637  0.39087658  1
  Si  Si182  1  0.52309919  0.08940854  0.61125953  1
  Si  Si183  1  0.47644962  0.58070030  0.88278333  1
  Si  Si184  1  0.47130924  0.41984083  0.88511533  1
  Si  Si185  1  0.02449732  0.17110298  0.11482880  1
  Si  Si186  1  0.36050126  0.66405161  0.11685653  1
  Si  Si187  1  0.47132772  0.07924080  0.88198158  1
  Si  Si188  1  0.13845290  0.58353042  0.38426560  1
  Si  Si189  1  0.85996036  0.91940404  0.11602671  1
  Si  Si190  1  0.69035959  0.33032400  0.61557955  1
  Si  Si191  1  0.19073675  0.58616918  0.11609500  1
  O  O192  1  0.26289559  0.11916094  0.07404065  1
  O  O193  1  0.28181581  0.12960361  0.57320921  1
  O  O194  1  0.27151184  0.62190073  0.08737099  1
  O  O195  1  0.29099601  0.60639004  0.57602923  1
  O  O196  1  0.61823837  0.10463862  0.08947586  1
  O  O197  1  0.60760606  0.12059452  0.58459480  1
  O  O198  1  0.60332482  0.63035741  0.08780184  1
  O  O199  1  0.61171383  0.61879925  0.58622127  1
  O  O200  1  0.93805231  0.12365409  0.08582607  1
  O  O201  1  0.93092544  0.11922521  0.58080250  1
  O  O202  1  0.93847689  0.61678139  0.08629810  1
  O  O203  1  0.95165417  0.61831715  0.57277714  1
  O  O204  1  0.11655150  0.36677096  0.08477291  1
  O  O205  1  0.10418468  0.35847243  0.58251847  1
  O  O206  1  0.09721527  0.85506543  0.07640796  1
  O  O207  1  0.10200591  0.86616752  0.58579795  1
  O  O208  1  0.43838236  0.38654427  0.08784752  1
  O  O209  1  0.43666715  0.38026707  0.58328656  1
  O  O210  1  0.45248491  0.86036373  0.08856064  1
  O  O211  1  0.42636455  0.86189345  0.57330116  1
  O  O212  1  0.76261699  0.35482904  0.07752587  1
  O  O213  1  0.77144915  0.36148337  0.58586430  1
  O  O214  1  0.77278828  0.87430036  0.08710686  1
  O  O215  1  0.77946762  0.86435166  0.58614243  1
  O  O216  1  0.27878888  0.39511532  0.08847596  1
  O  O217  1  0.26943702  0.38056890  0.58101189  1
  O  O218  1  0.28780226  0.87653887  0.07681071  1
  O  O219  1  0.26285634  0.86320849  0.58041315  1
  O  O220  1  0.60157798  0.37393011  0.08809319  1
  O  O221  1  0.60402400  0.37643456  0.58507398  1
  O  O222  1  0.61169672  0.88515393  0.08865608  1
  O  O223  1  0.61704323  0.88556051  0.57753677  1
  O  O224  1  0.95427156  0.38701341  0.07806604  1
  O  O225  1  0.93747094  0.37721214  0.58317685  1
  O  O226  1  0.93473454  0.87876767  0.08533124  1
  O  O227  1  0.93936816  0.88770891  0.58147789  1
  O  O228  1  0.10175315  0.13761888  0.08264505  1
  O  O229  1  0.08994952  0.13390959  0.57187049  1
  O  O230  1  0.10553553  0.63381241  0.08785440  1
  O  O231  1  0.11082377  0.65273181  0.57599717  1
  O  O232  1  0.45466086  0.12975027  0.07761689  1
  O  O233  1  0.44794160  0.14664264  0.58159352  1
  O  O234  1  0.43782806  0.62143884  0.08922832  1
  O  O235  1  0.45162692  0.63259642  0.58506146  1
  O  O236  1  0.77546369  0.13181720  0.08825100  1
  O  O237  1  0.76942260  0.12918505  0.58516562  1
  O  O238  1  0.77311775  0.64255853  0.08759878  1
  O  O239  1  0.76966106  0.64303239  0.57770176  1
  O  O240  1  0.06502195  0.12363206  0.41544086  1
  O  O241  1  0.07304679  0.10049416  0.92370290  1
  O  O242  1  0.05405435  0.61157885  0.41194990  1
  O  O243  1  0.07400240  0.61309932  0.92404545  1
  O  O244  1  0.39030815  0.12226821  0.41295087  1
  O  O245  1  0.38928396  0.10940638  0.90989626  1
  O  O246  1  0.38055393  0.62590801  0.42570060  1
  O  O247  1  0.39287874  0.60676790  0.91284209  1
  O  O248  1  0.71215993  0.09867558  0.41994209  1
  O  O249  1  0.71727020  0.11953239  0.91972120  1
  O  O250  1  0.73075324  0.60684349  0.41474644  1
  O  O251  1  0.71683524  0.62151921  0.91622268  1
  O  O252  1  0.22349025  0.36896732  0.41432135  1
  O  O253  1  0.21224233  0.36523252  0.92211616  1
  O  O254  1  0.22155762  0.87357723  0.41354210  1
  O  O255  1  0.23599220  0.84628699  0.91599891  1
  O  O256  1  0.54854872  0.35865201  0.42356165  1
  O  O257  1  0.54583910  0.36150105  0.91289834  1
  O  O258  1  0.54686926  0.86973101  0.42243889  1
  O  O259  1  0.56133883  0.87079519  0.91525530  1
  O  O260  1  0.90055143  0.36860903  0.41676464  1
  O  O261  1  0.88807356  0.35833517  0.93029166  1
  O  O262  1  0.89292208  0.85266085  0.41384973  1
  O  O263  1  0.88775249  0.87663436  0.91725287  1
  O  O264  1  0.06023624  0.38935903  0.41314052  1
  O  O265  1  0.05509146  0.41105678  0.91579033  1
  O  O266  1  0.05806366  0.88000815  0.41528619  1
  O  O267  1  0.05115477  0.89251353  0.92138574  1
  O  O268  1  0.38579707  0.37524315  0.41599246  1
  O  O269  1  0.39261597  0.40215199  0.92140583  1
  O  O270  1  0.38340569  0.88599170  0.41372903  1
  O  O271  1  0.40019070  0.87484129  0.91769203  1
  O  O272  1  0.73970931  0.39176220  0.42553463  1
  O  O273  1  0.70765050  0.37703520  0.92471041  1
  O  O274  1  0.73786970  0.89766100  0.42446351  1
  O  O275  1  0.72467744  0.87535904  0.91860866  1
  O  O276  1  0.22788542  0.12416835  0.41313774  1
  O  O277  1  0.22865153  0.14014340  0.91306254  1
  O  O278  1  0.21474591  0.63937332  0.41316481  1
  O  O279  1  0.23191116  0.63592129  0.91280012  1
  O  O280  1  0.55224957  0.13131526  0.41554614  1
  O  O281  1  0.55542173  0.12547512  0.91671409  1
  O  O282  1  0.57311913  0.63619344  0.42640076  1
  O  O283  1  0.55237030  0.63769362  0.91204028  1
  O  O284  1  0.90327303  0.14952357  0.42545071  1
  O  O285  1  0.88391096  0.12275058  0.92725566  1
  O  O286  1  0.89191849  0.63748799  0.41171966  1
  O  O287  1  0.88050942  0.63727709  0.92308574  1
  O  O288  1  0.16233067  0.00774985  0.07761108  1
  O  O289  1  0.18177151  -0.01198688  0.56795593  1
  O  O290  1  0.17583656  0.50387487  0.08761139  1
  O  O291  1  0.16091854  0.48875332  0.57272689  1
  O  O292  1  0.51179484  -0.00360481  0.08736357  1
  O  O293  1  0.49895486  0.01325521  0.57473593  1
  O  O294  1  0.53158084  0.50303959  0.08883424  1
  O  O295  1  0.52140194  0.50061800  0.58480150  1
  O  O296  1  0.84794623  0.00215797  0.08712675  1
  O  O297  1  0.83971998  -0.00012908  0.58860602  1
  O  O298  1  0.82696986  0.51017571  0.07846850  1
  O  O299  1  0.83568144  0.48883482  0.57332949  1
  O  O300  1  0.01029495  0.25298499  0.08548332  1
  O  O301  1  -0.00032882  0.24903094  0.58300060  1
  O  O302  1  -0.00232729  0.74623669  0.08699879  1
  O  O303  1  -0.00101649  0.75493974  0.58229792  1
  O  O304  1  0.34842974  0.26663630  0.07864045  1
  O  O305  1  0.35117946  0.25905656  0.57709638  1
  O  O306  1  0.35787387  0.74552687  0.08648845  1
  O  O307  1  0.34480794  0.74173287  0.58195375  1
  O  O308  1  0.66579877  0.24241213  0.08857550  1
  O  O309  1  0.67641759  0.24803748  0.58620693  1
  O  O310  1  0.67754492  0.75579940  0.08849164  1
  O  O311  1  0.67160086  0.75271560  0.58725570  1
  O  O312  1  0.14535183  0.00054351  0.41103428  1
  O  O313  1  0.19184190  0.00479144  0.91876416  1
  O  O314  1  0.16118719  0.50207081  0.41282445  1
  O  O315  1  0.17836463  0.50323890  0.91019312  1
  O  O316  1  0.47887372  0.00155348  0.41415225  1
  O  O317  1  0.48725495  -0.00322124  0.91358666  1
  O  O318  1  0.48400118  0.48934086  0.42653957  1
  O  O319  1  0.50644244  0.50160084  0.91269612  1
  O  O320  1  0.86233927  -0.00842867  0.41991585  1
  O  O321  1  0.79952161  -0.00086600  0.91383931  1
  O  O322  1  0.84223074  0.50154880  0.41232563  1
  O  O323  1  0.81374332  0.50791815  0.92340369  1
  O  O324  1  0.31005991  0.24774757  0.41269763  1
  O  O325  1  0.34226883  0.24294508  0.92419212  1
  O  O326  1  0.31031724  0.75525890  0.41559867  1
  O  O327  1  0.34540480  0.74180403  0.91313657  1
  O  O328  1  0.66763056  0.23550048  0.42482707  1
  O  O329  1  0.63931487  0.24643014  0.91600767  1
  O  O330  1  0.68241998  0.74264288  0.42225120  1
  O  O331  1  0.64767779  0.75054834  0.91540755  1
  O  O332  1  1.00592134  0.25601849  0.41461599  1
  O  O333  1  1.01395725  0.24765379  0.93231397  1
  O  O334  1  1.00015664  0.74658296  0.41189808  1
  O  O335  1  0.98686107  0.76284017  0.92558051  1
  O  O336  1  0.20965926  0.08935482  0.18918570  1
  O  O337  1  0.19775170  0.08077656  0.69293172  1
  O  O338  1  0.21124032  0.58618863  0.19667067  1
  O  O339  1  0.21060159  0.57996835  0.69877525  1
  O  O340  1  0.54508314  0.08164505  0.19589877  1
  O  O341  1  0.54060204  0.08522025  0.69197478  1
  O  O342  1  0.54760529  0.58521198  0.19846200  1
  O  O343  1  0.54689104  0.58207689  0.69535382  1
  O  O344  1  0.87865037  0.08337242  0.19636245  1
  O  O345  1  0.87696907  0.08940721  0.69442957  1
  O  O346  1  0.87361361  0.58617741  0.19353511  1
  O  O347  1  0.87518941  0.58148402  0.70061181  1
  O  O348  1  0.04869447  0.33627040  0.19211094  1
  O  O349  1  0.04217513  0.33351902  0.69325001  1
  O  O350  1  0.03998835  0.83261388  0.19257898  1
  O  O351  1  0.03051568  0.83266883  0.69339659  1
  O  O352  1  0.37902989  0.33795210  0.19598828  1
  O  O353  1  0.37530242  0.33678069  0.69098151  1
  O  O354  1  0.37976122  0.83138399  0.19495933  1
  O  O355  1  0.37627746  0.82791893  0.68999801  1
  O  O356  1  0.70951162  0.33075457  0.19509235  1
  O  O357  1  0.70662050  0.33165479  0.69536808  1
  O  O358  1  0.71409937  0.83509992  0.19828472  1
  O  O359  1  0.70957851  0.83491011  0.69405244  1
  O  O360  1  0.21159851  0.41974501  0.19596968  1
  O  O361  1  0.20582477  0.41675450  0.68981765  1
  O  O362  1  0.21270457  0.91365766  0.19848825  1
  O  O363  1  0.21472483  0.92054260  0.68780503  1
  O  O364  1  0.54522970  0.42022384  0.19857287  1
  O  O365  1  0.54626768  0.41902004  0.69455714  1
  O  O366  1  0.54518239  0.91651881  0.19812008  1
  O  O367  1  0.54380484  0.91471735  0.69959940  1
  O  O368  1  0.87354557  0.41724642  0.19986412  1
  O  O369  1  0.87512179  0.41677988  0.69145550  1
  O  O370  1  0.87672280  0.91737349  0.19647520  1
  O  O371  1  0.87911146  0.91146809  0.69504683  1
  O  O372  1  0.04303939  0.16656573  0.19439573  1
  O  O373  1  0.03604160  0.16652613  0.69061405  1
  O  O374  1  0.04230989  0.66658925  0.19571370  1
  O  O375  1  0.04253637  0.66665298  0.68869823  1
  O  O376  1  0.37962050  0.16745640  0.20026026  1
  O  O377  1  0.37967956  0.17631993  0.68773781  1
  O  O378  1  0.37642245  0.66626285  0.19721061  1
  O  O379  1  0.38044505  0.66136648  0.69149225  1
  O  O380  1  0.70991333  0.16494953  0.19833566  1
  O  O381  1  0.70900900  0.16637258  0.69641246  1
  O  O382  1  0.70902960  0.66939724  0.19773084  1
  O  O383  1  0.71045292  0.66739926  0.69499026  1
  O  O384  1  0.12166012  0.08627176  0.30278420  1
  O  O385  1  0.12615216  0.08079307  0.80711154  1
  O  O386  1  0.12226083  0.58469494  0.30386997  1
  O  O387  1  0.12328593  0.58412688  0.80496314  1
  O  O388  1  0.45539584  0.08242426  0.30451469  1
  O  O389  1  0.46442299  0.08037612  0.80312777  1
  O  O390  1  0.45562667  0.58370502  0.30277624  1
  O  O391  1  0.45806668  0.58252123  0.80240485  1
  O  O392  1  0.79131114  0.08376258  0.30149338  1
  O  O393  1  0.78082241  0.09192591  0.81021516  1
  O  O394  1  0.79234837  0.58421346  0.30404125  1
  O  O395  1  0.78598377  0.58597856  0.80903193  1
  O  O396  1  0.28780785  0.33310598  0.30395552  1
  O  O397  1  0.28807349  0.33531285  0.79743797  1
  O  O398  1  0.28791599  0.83319914  0.30473942  1
  O  O399  1  0.30618213  0.82661530  0.80510566  1
  O  O400  1  0.62359977  0.33284842  0.30141086  1
  O  O401  1  0.62299700  0.33168192  0.80699898  1
  O  O402  1  0.62310401  0.83370518  0.30240913  1
  O  O403  1  0.62169511  0.83097438  0.80507972  1
  O  O404  1  0.95666728  0.33390158  0.30490431  1
  O  O405  1  0.95454015  0.33258776  0.79889683  1
  O  O406  1  0.95868888  0.83211838  0.30420411  1
  O  O407  1  0.95378008  0.83609547  0.80947363  1
  O  O408  1  0.12823102  0.41915332  0.30409251  1
  O  O409  1  0.12479343  0.41729281  0.80472497  1
  O  O410  1  0.11711194  0.91216163  0.30389424  1
  O  O411  1  0.11962100  0.92044990  0.79850025  1
  O  O412  1  0.45565761  0.41519979  0.31025448  1
  O  O413  1  0.45308447  0.42158582  0.80511854  1
  O  O414  1  0.45411500  0.91629680  0.30611567  1
  O  O415  1  0.45656627  0.91307112  0.80447025  1
  O  O416  1  0.79152291  0.41593085  0.30825782  1
  O  O417  1  0.78632210  0.41631577  0.79781045  1
  O  O418  1  0.79560816  0.91572759  0.30950233  1
  O  O419  1  0.77961016  0.90957507  0.80674537  1
  O  O420  1  0.28712326  0.16665448  0.30284404  1
  O  O421  1  0.29300176  0.17599847  0.80553584  1
  O  O422  1  0.28828988  0.66860749  0.30770912  1
  O  O423  1  0.29634499  0.66305915  0.80318930  1
  O  O424  1  0.62233553  0.16344479  0.30892865  1
  O  O425  1  0.61892450  0.16530661  0.80616512  1
  O  O426  1  0.62760634  0.66529108  0.31056024  1
  O  O427  1  0.62127767  0.66818447  0.80372681  1
  O  O428  1  0.95711559  0.16472594  0.30827165  1
  O  O429  1  0.95539699  0.16610901  0.80186732  1
  O  O430  1  0.95704533  0.66738656  0.30266675  1
  O  O431  1  0.95636786  0.66776460  0.79939945  1
  F  F432  1  0.03736287  0.00143019  0.19835209  1
  F  F433  1  0.04013013  0.00100939  0.69805422  1
  F  F434  1  0.04882911  0.50845905  0.19720492  1
  F  F435  1  0.04372791  0.49939663  0.70269100  1
  F  F436  1  0.38129867  -0.00114805  0.20004849  1
  F  F437  1  0.38392291  -0.01261867  0.69505409  1
  F  F438  1  0.37945166  0.49965094  0.20477395  1
  F  F439  1  0.38053776  0.49914800  0.69888406  1
  F  F440  1  0.71281946  -0.00368065  0.20520857  1
  F  F441  1  0.69873008  0.00215891  0.69884737  1
  F  F442  1  0.71130433  0.50071303  0.20557826  1
  F  F443  1  0.70912335  0.50175601  0.70133780  1
  F  F444  1  0.21344635  0.25272019  0.19977656  1
  F  F445  1  0.21254391  0.25538967  0.69364248  1
  F  F446  1  0.21218852  0.74851647  0.20220454  1
  F  F447  1  0.21856271  0.73764985  0.69664497  1
  F  F448  1  0.54515891  0.24830623  0.20418926  1
  F  F449  1  0.54928768  0.24581932  0.69946944  1
  F  F450  1  0.54585148  0.74679063  0.20534473  1
  F  F451  1  0.54648606  0.74859084  0.69936245  1
  F  F452  1  0.87243583  0.24735040  0.20101956  1
  F  F453  1  0.87215586  0.25000435  0.70030926  1
  F  F454  1  0.87718479  0.75155357  0.20187810  1
  F  F455  1  0.87487030  0.75151384  0.70336759  1
  F  F456  1  0.29405485  0.00317339  0.29738246  1
  F  F457  1  0.28713470  -0.01333761  0.79905140  1
  F  F458  1  0.28648454  0.50139359  0.29890842  1
  F  F459  1  0.28998256  0.49805512  0.79541196  1
  F  F460  1  0.62004827  -0.00041476  0.29992552  1
  F  F461  1  0.61967793  0.00040816  0.79942809  1
  F  F462  1  0.62321708  0.50003293  0.30151651  1
  F  F463  1  0.62098933  0.50095669  0.79861409  1
  F  F464  1  0.95760133  -0.00054130  0.29820018  1
  F  F465  1  0.96478896  0.00175409  0.80177042  1
  F  F466  1  0.95354076  0.50940233  0.30086973  1
  F  F467  1  0.95465442  0.49884921  0.79794893  1
  F  F468  1  0.12937545  0.25028939  0.29865962  1
  F  F469  1  0.11885876  0.25257824  0.79552409  1
  F  F470  1  0.12065070  0.75102412  0.29606327  1
  F  F471  1  0.11773031  0.73839984  0.79854754  1
  F  F472  1  0.45369278  0.25159415  0.29967291  1
  F  F473  1  0.45293600  0.24817581  0.79635515  1
  F  F474  1  0.45351371  0.75012272  0.29999457  1
  F  F475  1  0.45743850  0.74690956  0.79370217  1
  F  F476  1  0.78851482  0.25074808  0.29991724  1
  F  F477  1  0.78465734  0.25051506  0.79837491  1
  F  F478  1  0.79138774  0.74968073  0.29885756  1
  F  F479  1  0.78533098  0.75021009  0.79825651  1
