# generated using pymatgen
data_K24Na3Li5Mg64Fe17Si79(O5F)48
_symmetry_space_group_name_H-M   'P 1'
_cell_length_a   16.10453731
_cell_length_b   18.59325719
_cell_length_c   20.55683796
_cell_angle_alpha   90.00760718
_cell_angle_beta   100.01911479
_cell_angle_gamma   89.98376834
_symmetry_Int_Tables_number   1
_chemical_formula_structural   K24Na3Li5Mg64Fe17Si79(O5F)48
_chemical_formula_sum   'K24 Na3 Li5 Mg64 Fe17 Si79 O240 F48'
_cell_volume   6061.58093550
_cell_formula_units_Z   1
loop_
 _symmetry_equiv_pos_site_id
 _symmetry_equiv_pos_as_xyz
  1  'x, y, z'
loop_
 _atom_site_type_symbol
 _atom_site_label
 _atom_site_symmetry_multiplicity
 _atom_site_fract_x
 _atom_site_fract_y
 _atom_site_fract_z
 _atom_site_occupancy
  K  K0  1  -0.00179320  0.00291899  0.00605546  1
  K  K1  1  -0.00300541  -0.00141628  0.49384842  1
  K  K2  1  0.00711266  0.49142714  0.00615406  1
  K  K3  1  0.00004528  0.50193301  0.49467406  1
  K  K4  1  0.33503563  0.00293951  0.00518522  1
  K  K5  1  0.34527266  0.00408992  0.48978014  1
  K  K6  1  0.32982910  0.49425174  0.00589911  1
  K  K7  1  0.34188261  0.49303527  0.48505973  1
  K  K8  1  0.66637861  0.00088258  0.00771125  1
  K  K9  1  0.65964840  0.00759564  0.49117889  1
  K  K10  1  0.66971104  0.50044633  0.00653744  1
  K  K11  1  0.65967365  0.50353677  0.49066760  1
  K  K12  1  0.16607032  0.26102210  0.00487242  1
  K  K13  1  0.17262188  0.26173687  0.49630725  1
  K  K14  1  0.16653262  0.74622309  0.01145554  1
  K  K15  1  0.15886068  0.74618055  0.48345498  1
  K  K16  1  0.49918982  0.25042744  0.00048194  1
  K  K17  1  0.50112542  0.25429533  0.49305597  1
  K  K18  1  0.50032616  0.74512998  0.01478162  1
  K  K19  1  0.48908439  0.74573832  0.48395734  1
  K  K20  1  0.84279747  0.25666549  0.00291854  1
  K  K21  1  0.82190200  0.24995550  0.49973240  1
  K  K22  1  0.83436294  0.75238762  0.02719959  1
  K  K23  1  0.84455567  0.74460175  0.49241926  1
  Na  Na24  1  0.33403739  0.24909983  0.25592107  1
  Na  Na25  1  0.82778524  0.82815292  0.24167757  1
  Na  Na26  1  0.83524590  0.33203154  0.24272101  1
  Li  Li27  1  0.32968369  0.74608453  0.25493093  1
  Li  Li28  1  0.00195894  0.74944783  0.75160879  1
  Li  Li29  1  0.16706983  0.33374665  0.75800432  1
  Li  Li30  1  0.17062510  0.66953969  0.25087892  1
  Li  Li31  1  0.82831088  0.67040133  0.24510167  1
  Mg  Mg32  1  0.50130488  0.49814569  0.74881732  1
  Mg  Mg33  1  0.49951081  0.00044297  0.75310318  1
  Mg  Mg34  1  0.83328626  0.50257383  0.24463068  1
  Mg  Mg35  1  0.16765758  0.49620235  0.75315836  1
  Mg  Mg36  1  0.16625092  0.00171395  0.75586201  1
  Mg  Mg37  1  0.49752550  -0.00170028  0.25427883  1
  Mg  Mg38  1  0.16673032  -0.00403393  0.25186593  1
  Mg  Mg39  1  0.66737095  0.74882504  0.25025202  1
  Mg  Mg40  1  0.00133970  0.25117235  0.75310348  1
  Mg  Mg41  1  0.66725108  0.25148240  0.24893668  1
  Mg  Mg42  1  0.83455059  0.49964811  0.74655825  1
  Mg  Mg43  1  0.33122694  0.25052031  0.75333959  1
  Mg  Mg44  1  0.49865097  0.50195068  0.25065793  1
  Mg  Mg45  1  0.66731769  0.25100870  0.74629745  1
  Mg  Mg46  1  0.16740582  0.50440813  0.25069928  1
  Mg  Mg47  1  0.66848276  0.74939169  0.74855548  1
  Mg  Mg48  1  0.33297698  0.74962992  0.75224483  1
  Mg  Mg49  1  0.83176052  -0.00112434  0.24640202  1
  Mg  Mg50  1  0.00210778  0.25141258  0.24524469  1
  Mg  Mg51  1  -0.00369427  0.74815360  0.24543500  1
  Mg  Mg52  1  0.83313576  -0.00026691  0.74682723  1
  Mg  Mg53  1  0.00006511  0.41721215  0.24695700  1
  Mg  Mg54  1  0.50034205  0.66540603  0.74939718  1
  Mg  Mg55  1  0.33346531  0.58870566  0.25378748  1
  Mg  Mg56  1  0.66754981  0.58387238  0.74618045  1
  Mg  Mg57  1  0.33364706  0.91604060  0.75478442  1
  Mg  Mg58  1  0.00116700  0.08437486  0.75171236  1
  Mg  Mg59  1  0.16514874  0.83240012  0.75414421  1
  Mg  Mg60  1  -0.00410672  0.91380004  0.24637229  1
  Mg  Mg61  1  0.50036590  0.83169354  0.25534806  1
  Mg  Mg62  1  0.16643955  0.33548573  0.24654794  1
  Mg  Mg63  1  0.66593738  0.08473731  0.24866962  1
  Mg  Mg64  1  0.66855845  0.58688707  0.24983228  1
  Mg  Mg65  1  0.83023507  0.16596573  0.74616482  1
  Mg  Mg66  1  0.33392885  0.41693857  0.25094074  1
  Mg  Mg67  1  0.66450899  0.41314292  0.74520070  1
  Mg  Mg68  1  0.83736108  0.83229743  0.74922659  1
  Mg  Mg69  1  0.33346943  0.41365428  0.75237528  1
  Mg  Mg70  1  -0.00228976  0.58649999  0.24651647  1
  Mg  Mg71  1  -0.00240353  0.08284561  0.24481775  1
  Mg  Mg72  1  0.16769772  0.16518138  0.25051192  1
  Mg  Mg73  1  0.33502930  0.08478733  0.75674555  1
  Mg  Mg74  1  0.33354307  0.58274509  0.75070972  1
  Mg  Mg75  1  0.50011538  0.33407325  0.25158194  1
  Mg  Mg76  1  0.50053912  0.83334211  0.75302628  1
  Mg  Mg77  1  0.00294447  0.58545998  0.75154981  1
  Mg  Mg78  1  0.83816567  0.66800400  0.74839367  1
  Mg  Mg79  1  0.33497593  0.08186849  0.25487959  1
  Mg  Mg80  1  0.66560486  0.91415929  0.24841033  1
  Mg  Mg81  1  0.33613857  0.91052459  0.25636621  1
  Mg  Mg82  1  0.83340055  0.16786692  0.24476951  1
  Mg  Mg83  1  0.00384585  0.41489689  0.75042841  1
  Mg  Mg84  1  0.50223901  0.33424247  0.74790791  1
  Mg  Mg85  1  0.49787841  0.16573375  0.25161770  1
  Mg  Mg86  1  0.66495302  0.08573825  0.74803160  1
  Mg  Mg87  1  0.66791623  0.41803494  0.24656584  1
  Mg  Mg88  1  0.16733750  0.16813722  0.75718450  1
  Mg  Mg89  1  0.50043074  0.16481480  0.75347961  1
  Mg  Mg90  1  0.66715831  0.91506761  0.74953708  1
  Mg  Mg91  1  0.49938039  0.66747268  0.25272594  1
  Mg  Mg92  1  0.16591783  0.66595066  0.75255908  1
  Mg  Mg93  1  0.83129924  0.33461737  0.74622168  1
  Mg  Mg94  1  0.00206545  0.91392055  0.75202968  1
  Mg  Mg95  1  0.16747284  0.82658035  0.25141078  1
  Fe  Fe96  1  0.64432611  0.33351369  0.88935019  1
  Fe  Fe97  1  0.47609412  0.58580369  0.39320705  1
  Fe  Fe98  1  0.68816849  0.16194831  0.60505551  1
  Fe  Fe99  1  0.47551002  0.91127779  0.39742342  1
  Fe  Fe100  1  0.13961603  0.08738546  0.89424064  1
  Fe  Fe101  1  0.30169038  0.33598122  0.39073729  1
  Fe  Fe102  1  0.85509427  0.92012409  0.10542660  1
  Fe  Fe103  1  0.35901632  0.32949231  0.11162733  1
  Fe  Fe104  1  0.69404191  0.33801906  0.60251582  1
  Fe  Fe105  1  0.02821803  0.33411428  0.10766450  1
  Fe  Fe106  1  0.52050878  0.42356265  0.60568008  1
  Fe  Fe107  1  0.65278539  0.83496925  0.39310663  1
  Fe  Fe108  1  0.47661710  0.08191708  0.89425915  1
  Fe  Fe109  1  0.14028237  0.41396468  0.89145064  1
  Fe  Fe110  1  0.68616699  0.66438316  0.10691944  1
  Fe  Fe111  1  0.47788383  0.08806465  0.39426115  1
  Fe  Fe112  1  0.65375415  0.66580601  0.39250324  1
  Si  Si113  1  0.85832902  0.41878409  0.10806023  1
  Si  Si114  1  0.86932096  0.41956026  0.61032049  1
  Si  Si115  1  0.19538759  0.42654215  0.11044887  1
  Si  Si116  1  0.52108784  0.92163715  0.11380505  1
  Si  Si117  1  0.13269704  0.58687789  0.38411010  1
  Si  Si118  1  0.86256918  0.91342546  0.61415103  1
  Si  Si119  1  0.68900075  0.33792977  0.11253533  1
  Si  Si120  1  0.81450563  0.57482227  0.38511635  1
  Si  Si121  1  0.14378377  0.58625929  0.88938224  1
  Si  Si122  1  0.31091158  0.66618478  0.88641468  1
  Si  Si123  1  0.29664163  0.16130520  0.39204312  1
  Si  Si124  1  0.30874565  0.17043401  0.89233201  1
  Si  Si125  1  0.52441207  0.41451405  0.11211348  1
  Si  Si126  1  0.86177018  0.58647968  0.61341162  1
  Si  Si127  1  0.51921910  0.07669289  0.61438193  1
  Si  Si128  1  0.52492534  0.08648025  0.11411416  1
  Si  Si129  1  0.03162424  0.33407867  0.61688539  1
  Si  Si130  1  0.47744963  0.58371257  0.88497528  1
  Si  Si131  1  0.35411992  0.83411152  0.61813547  1
  Si  Si132  1  0.96281299  0.16469284  0.88606001  1
  Si  Si133  1  0.13372277  0.42361705  0.38881528  1
  Si  Si134  1  0.02895302  0.16899088  0.61622473  1
  Si  Si135  1  0.02940888  0.83115869  0.61707874  1
  Si  Si136  1  0.97539454  0.83397560  0.88539394  1
  Si  Si137  1  0.19431044  0.59068730  0.11722463  1
  Si  Si138  1  0.19251087  0.08339277  0.61898689  1
  Si  Si139  1  0.97604558  0.33198052  0.38251384  1
  Si  Si140  1  0.52125513  0.91165879  0.61745173  1
  Si  Si141  1  0.96504983  0.33209997  0.88517825  1
  Si  Si142  1  0.81291052  0.41530922  0.38061999  1
  Si  Si143  1  0.47953931  0.91025714  0.89022784  1
  Si  Si144  1  0.13212396  0.91264325  0.38503475  1
  Si  Si145  1  0.29852732  0.83186400  0.39112171  1
  Si  Si146  1  0.02612833  0.83079155  0.11133087  1
  Si  Si147  1  0.19279961  0.07346423  0.11705390  1
  Si  Si148  1  0.35603518  0.16340473  0.61801025  1
  Si  Si149  1  0.97545083  0.16970044  0.38167958  1
  Si  Si150  1  0.85458650  0.08939441  0.10862107  1
  Si  Si151  1  0.69238190  0.83536352  0.61439153  1
  Si  Si152  1  0.86613918  0.07992592  0.61072094  1
  Si  Si153  1  0.02927826  0.16233638  0.11136550  1
  Si  Si154  1  0.35825159  0.32852122  0.61418950  1
  Si  Si155  1  0.31191335  0.33283693  0.88753201  1
  Si  Si156  1  0.30106955  0.66488154  0.38947975  1
  Si  Si157  1  0.81251023  0.08903063  0.38108555  1
  Si  Si158  1  0.86033755  0.58267634  0.10834924  1
  Si  Si159  1  0.13289670  0.07763425  0.38499155  1
  Si  Si160  1  0.35445529  0.15947295  0.11408191  1
  Si  Si161  1  0.35976859  0.66934504  0.11705872  1
  Si  Si162  1  0.80601152  0.42274119  0.88310730  1
  Si  Si163  1  0.52013213  0.59328266  0.61218080  1
  Si  Si164  1  0.81359521  0.58527527  0.88246568  1
  Si  Si165  1  0.19756982  0.41606411  0.61704869  1
  Si  Si166  1  0.19063517  0.91888957  0.61848078  1
  Si  Si167  1  0.19399820  0.90873097  0.11792269  1
  Si  Si168  1  0.64565180  0.66355293  0.88344736  1
  Si  Si169  1  0.19409070  0.58068023  0.61555229  1
  Si  Si170  1  0.69345793  0.66870225  0.61338146  1
  Si  Si171  1  0.80162558  0.07825814  0.88256309  1
  Si  Si172  1  0.36195191  0.83412857  0.11813715  1
  Si  Si173  1  0.30987631  0.83079109  0.88790523  1
  Si  Si174  1  0.51763339  0.57891405  0.11049628  1
  Si  Si175  1  0.64469059  0.82831321  0.88519258  1
  Si  Si176  1  0.80892881  0.91397410  0.88406626  1
  Si  Si177  1  0.64967228  0.33541250  0.38213714  1
  Si  Si178  1  0.03065510  0.66577675  0.61608208  1
  Si  Si179  1  0.80983155  0.92742903  0.38534715  1
  Si  Si180  1  0.97609525  0.66951078  0.88444338  1
  Si  Si181  1  0.47233112  0.41784260  0.88780140  1
  Si  Si182  1  0.14482325  0.91408670  0.89077595  1
  Si  Si183  1  0.96946519  0.66907930  0.38096170  1
  Si  Si184  1  0.35490315  0.67113019  0.61646490  1
  Si  Si185  1  0.02556556  0.66535790  0.11438535  1
  Si  Si186  1  0.48247848  0.41246263  0.38966926  1
  Si  Si187  1  0.64567559  0.16620775  0.88877859  1
  Si  Si188  1  0.67881772  0.83508783  0.10575566  1
  Si  Si189  1  0.64823964  0.17090559  0.38438839  1
  Si  Si190  1  0.96815556  0.83322672  0.38157797  1
  Si  Si191  1  0.68884544  0.17267372  0.11174048  1
  O  O192  1  0.27379570  0.10413999  0.08710961  1
  O  O193  1  0.27246204  0.11422287  0.58831847  1
  O  O194  1  0.26727891  0.63459570  0.08519349  1
  O  O195  1  0.27386183  0.61911519  0.58772498  1
  O  O196  1  0.60377112  0.12419288  0.08362901  1
  O  O197  1  0.59490775  0.09978071  0.57792118  1
  O  O198  1  0.58894090  0.60918637  0.07088937  1
  O  O199  1  0.60499327  0.62644676  0.58701224  1
  O  O200  1  0.93755077  0.12370556  0.08246171  1
  O  O201  1  0.94792884  0.11858413  0.58497836  1
  O  O202  1  0.94402955  0.61650065  0.08046233  1
  O  O203  1  0.93901248  0.62877512  0.58519461  1
  O  O204  1  0.11016022  0.38614325  0.07421276  1
  O  O205  1  0.11381702  0.36690425  0.58899245  1
  O  O206  1  0.11178777  0.86097108  0.08498797  1
  O  O207  1  0.10515266  0.87308186  0.58689653  1
  O  O208  1  0.45484891  0.35818285  0.07666407  1
  O  O209  1  0.43330869  0.35550143  0.57830904  1
  O  O210  1  0.43222779  0.87907956  0.08413607  1
  O  O211  1  0.43886199  0.85997463  0.59049541  1
  O  O212  1  0.77000369  0.37165667  0.08466949  1
  O  O213  1  0.79378963  0.37148180  0.57285442  1
  O  O214  1  0.75461965  0.87086463  0.07292492  1
  O  O215  1  0.77040398  0.87595698  0.58677920  1
  O  O216  1  0.27345908  0.39494472  0.07896679  1
  O  O217  1  0.27316300  0.37747123  0.58603538  1
  O  O218  1  0.27162376  0.87309867  0.08636551  1
  O  O219  1  0.27271563  0.88593461  0.59019155  1
  O  O220  1  0.61123423  0.39204880  0.08285504  1
  O  O221  1  0.61427546  0.40620488  0.56925866  1
  O  O222  1  0.59302285  0.88493164  0.07761889  1
  O  O223  1  0.60373870  0.87938999  0.58955088  1
  O  O224  1  0.92615914  0.37907035  0.07052469  1
  O  O225  1  0.95536737  0.38904117  0.58480974  1
  O  O226  1  0.94755562  0.87716209  0.07298360  1
  O  O227  1  0.93721848  0.86733466  0.58643880  1
  O  O228  1  0.10400522  0.11370678  0.08579112  1
  O  O229  1  0.11005566  0.13283371  0.58884462  1
  O  O230  1  0.10686377  0.63324921  0.08485856  1
  O  O231  1  0.10630243  0.62465488  0.58505844  1
  O  O232  1  0.43736140  0.12844527  0.08345249  1
  O  O233  1  0.43383645  0.12564278  0.58874177  1
  O  O234  1  0.42977797  0.62547493  0.08248580  1
  O  O235  1  0.44212404  0.65239652  0.58992477  1
  O  O236  1  0.77100441  0.14186542  0.08272617  1
  O  O237  1  0.78198905  0.11785340  0.57364857  1
  O  O238  1  0.77988821  0.62878182  0.07218776  1
  O  O239  1  0.77279965  0.62953047  0.58588602  1
  O  O240  1  0.05381415  0.11641742  0.41332730  1
  O  O241  1  0.03942475  0.11538838  0.92284946  1
  O  O242  1  0.06045904  0.63301537  0.41504854  1
  O  O243  1  0.06390496  0.62742265  0.91533910  1
  O  O244  1  0.38428525  0.12480047  0.42763058  1
  O  O245  1  0.37892751  0.11158148  0.92472002  1
  O  O246  1  0.38385826  0.62461941  0.42926862  1
  O  O247  1  0.39787184  0.62091297  0.91399963  1
  O  O248  1  0.73203492  0.11961744  0.41155049  1
  O  O249  1  0.71733034  0.10126375  0.91107155  1
  O  O250  1  0.74058352  0.59795835  0.42438020  1
  O  O251  1  0.72928657  0.61452541  0.91055079  1
  O  O252  1  0.21902999  0.38770971  0.42843881  1
  O  O253  1  0.23214982  0.35303413  0.92186630  1
  O  O254  1  0.21658972  0.86930865  0.41903339  1
  O  O255  1  0.22752034  0.86054084  0.91652021  1
  O  O256  1  0.56961721  0.36305195  0.41365944  1
  O  O257  1  0.54812252  0.36671903  0.92218116  1
  O  O258  1  0.56271322  0.85252145  0.43564459  1
  O  O259  1  0.56047640  0.85465028  0.91339394  1
  O  O260  1  0.88963881  0.35773246  0.40863395  1
  O  O261  1  0.88110332  0.36508346  0.91063481  1
  O  O262  1  0.89405018  0.87606928  0.41156395  1
  O  O263  1  0.89442948  0.86849126  0.91412092  1
  O  O264  1  0.05358820  0.38409553  0.41717395  1
  O  O265  1  0.04499651  0.37693379  0.92204035  1
  O  O266  1  0.05613649  0.87407979  0.41690403  1
  O  O267  1  0.06203379  0.87782761  0.91658019  1
  O  O268  1  0.41009473  0.37195861  0.42221237  1
  O  O269  1  0.38614294  0.39300496  0.91449445  1
  O  O270  1  0.38017067  0.87306412  0.43020063  1
  O  O271  1  0.39589767  0.87587500  0.91674825  1
  O  O272  1  0.73078832  0.38703769  0.41158570  1
  O  O273  1  0.72546994  0.40587999  0.91720670  1
  O  O274  1  0.73635917  0.90614269  0.42547128  1
  O  O275  1  0.72774155  0.87862733  0.91220308  1
  O  O276  1  0.21968419  0.11573165  0.42033729  1
  O  O277  1  0.22297545  0.15654021  0.92233946  1
  O  O278  1  0.22055189  0.62624364  0.41780397  1
  O  O279  1  0.22970036  0.63596036  0.91570586  1
  O  O280  1  0.57394352  0.14707362  0.42249427  1
  O  O281  1  0.56574634  0.14512994  0.92377602  1
  O  O282  1  0.56647616  0.63889298  0.43532034  1
  O  O283  1  0.56363809  0.63102435  0.91170101  1
  O  O284  1  0.89199935  0.14259771  0.41064109  1
  O  O285  1  0.87769388  0.13342502  0.91207427  1
  O  O286  1  0.89865866  0.62540310  0.41383557  1
  O  O287  1  0.89457808  0.63616957  0.91297889  1
  O  O288  1  0.17961711  -0.00926330  0.08827422  1
  O  O289  1  0.17363704  0.00088652  0.58963304  1
  O  O290  1  0.18544766  0.51107931  0.08322223  1
  O  O291  1  0.18247763  0.49871122  0.58554034  1
  O  O292  1  0.51199792  0.00445645  0.08376321  1
  O  O293  1  0.49376036  -0.00775627  0.59119881  1
  O  O294  1  0.49623539  0.49571528  0.08351626  1
  O  O295  1  0.48707113  0.51916536  0.57795647  1
  O  O296  1  0.83512773  0.01425409  0.06965812  1
  O  O297  1  0.86750528  -0.00525223  0.58481306  1
  O  O298  1  0.84444586  0.50053238  0.07598653  1
  O  O299  1  0.85927441  0.50480552  0.58389260  1
  O  O300  1  0.02739006  0.23909523  0.07502965  1
  O  O301  1  0.01608541  0.25135179  0.58583016  1
  O  O302  1  0.01346669  0.74733332  0.08267690  1
  O  O303  1  0.02701205  0.74878023  0.58722894  1
  O  O304  1  0.32854036  0.23580320  0.07965479  1
  O  O305  1  0.33509198  0.24460945  0.58898388  1
  O  O306  1  0.35823597  0.75224207  0.08619847  1
  O  O307  1  0.32758208  0.75301197  0.59027059  1
  O  O308  1  0.67147501  0.25498097  0.08234909  1
  O  O309  1  0.66722615  0.24883033  0.56313835  1
  O  O310  1  0.65972098  0.75679431  0.07065803  1
  O  O311  1  0.68518861  0.75237197  0.58659951  1
  O  O312  1  0.13577956  -0.00480056  0.41488989  1
  O  O313  1  0.16630361  -0.00885972  0.92498911  1
  O  O314  1  0.13044581  0.50667813  0.41779747  1
  O  O315  1  0.15944699  0.50970464  0.92504304  1
  O  O316  1  0.49726172  0.00090655  0.43693367  1
  O  O317  1  0.50314565  -0.01381587  0.92533908  1
  O  O318  1  0.49896694  0.49075089  0.42399976  1
  O  O319  1  0.49091166  0.50256974  0.91448766  1
  O  O320  1  0.84174593  0.00995114  0.41216782  1
  O  O321  1  0.82487419  -0.00373399  0.91164609  1
  O  O322  1  0.84530614  0.49284115  0.41411695  1
  O  O323  1  0.83884025  0.50441464  0.90946029  1
  O  O324  1  0.29039995  0.24178513  0.42114883  1
  O  O325  1  0.34656008  0.25202872  0.91321032  1
  O  O326  1  0.29895110  0.74839019  0.41909075  1
  O  O327  1  0.32829301  0.74824804  0.91529385  1
  O  O328  1  0.67774465  0.25374867  0.40762296  1
  O  O329  1  0.68576373  0.24184184  0.91908704  1
  O  O330  1  0.69881600  0.75062917  0.42970927  1
  O  O331  1  0.66479474  0.74569875  0.91193366  1
  O  O332  1  0.99812996  0.25012837  0.41283920  1
  O  O333  1  0.97192608  0.24828087  0.91191548  1
  O  O334  1  0.97272158  0.75129572  0.41332411  1
  O  O335  1  0.98843045  0.75170124  0.91387876  1
  O  O336  1  0.20928405  0.07802654  0.19733394  1
  O  O337  1  0.21154262  0.08165332  0.69917004  1
  O  O338  1  0.21280469  0.58544996  0.19627235  1
  O  O339  1  0.21082532  0.58400432  0.69608298  1
  O  O340  1  0.54503401  0.08546139  0.19399936  1
  O  O341  1  0.54189229  0.07953086  0.69543215  1
  O  O342  1  0.54074060  0.58160229  0.19055107  1
  O  O343  1  0.54207085  0.58839814  0.69358413  1
  O  O344  1  0.87373039  0.08506922  0.18960804  1
  O  O345  1  0.87930184  0.08071709  0.69197685  1
  O  O346  1  0.87857987  0.57998855  0.18816467  1
  O  O347  1  0.87957146  0.58608156  0.69387105  1
  O  O348  1  0.04572883  0.33498356  0.19908705  1
  O  O349  1  0.04052439  0.33150167  0.69592427  1
  O  O350  1  0.04292628  0.83366144  0.19167863  1
  O  O351  1  0.04757679  0.83487280  0.69667071  1
  O  O352  1  0.38395758  0.33960659  0.20093535  1
  O  O353  1  0.37617476  0.33216728  0.69519071  1
  O  O354  1  0.37926960  0.83576684  0.19697060  1
  O  O355  1  0.37462204  0.83341367  0.69893280  1
  O  O356  1  0.70027379  0.33328328  0.19150610  1
  O  O357  1  0.71390992  0.33426513  0.69582993  1
  O  O358  1  0.69415139  0.83518587  0.18568170  1
  O  O359  1  0.71126168  0.83345842  0.69526344  1
  O  O360  1  0.20749013  0.42285625  0.19139167  1
  O  O361  1  0.21638854  0.42193324  0.69616996  1
  O  O362  1  0.21006597  0.91199310  0.19792623  1
  O  O363  1  0.20894793  0.91585626  0.69898200  1
  O  O364  1  0.54345370  0.41641794  0.19291697  1
  O  O365  1  0.54240746  0.41953680  0.69845079  1
  O  O366  1  0.54048907  0.92105917  0.19347406  1
  O  O367  1  0.54202407  0.91239779  0.69831233  1
  O  O368  1  0.88222768  0.42379901  0.18754565  1
  O  O369  1  0.88102332  0.41913531  0.69151542  1
  O  O370  1  0.88115144  0.92571639  0.19512833  1
  O  O371  1  0.87904956  0.91446010  0.69470281  1
  O  O372  1  0.04482800  0.16283100  0.19233447  1
  O  O373  1  0.04298194  0.16772875  0.69627306  1
  O  O374  1  0.04079248  0.66587522  0.19340615  1
  O  O375  1  0.04863304  0.66371553  0.69561334  1
  O  O376  1  0.37714666  0.15744179  0.19373973  1
  O  O377  1  0.37402632  0.16447244  0.69834022  1
  O  O378  1  0.37807390  0.66636313  0.19585123  1
  O  O379  1  0.37404900  0.66814586  0.69730496  1
  O  O380  1  0.70808316  0.16876485  0.19185276  1
  O  O381  1  0.71049189  0.16476697  0.69836925  1
  O  O382  1  0.70714934  0.66624711  0.19659173  1
  O  O383  1  0.71230399  0.66834762  0.69430236  1
  O  O384  1  0.11838166  0.07955664  0.30477759  1
  O  O385  1  0.12016799  0.08264991  0.80186378  1
  O  O386  1  0.11717636  0.58254304  0.30506821  1
  O  O387  1  0.12613976  0.58518950  0.80812406  1
  O  O388  1  0.45623738  0.08296211  0.30186137  1
  O  O389  1  0.45609607  0.08069698  0.80195520  1
  O  O390  1  0.45581548  0.58391162  0.30121147  1
  O  O391  1  0.45764196  0.58520830  0.80429527  1
  O  O392  1  0.79235728  0.08647088  0.30070433  1
  O  O393  1  0.78878827  0.07809217  0.80197780  1
  O  O394  1  0.79105655  0.57615603  0.30560982  1
  O  O395  1  0.79273113  0.58678156  0.80176308  1
  O  O396  1  0.27909155  0.34384035  0.30123613  1
  O  O397  1  0.29469574  0.33367711  0.80694195  1
  O  O398  1  0.28407553  0.83630642  0.31138323  1
  O  O399  1  0.29096855  0.83204034  0.80709915  1
  O  O400  1  0.62779448  0.33586739  0.30192878  1
  O  O401  1  0.62207457  0.33212189  0.79787027  1
  O  O402  1  0.62349702  0.83511059  0.30040476  1
  O  O403  1  0.62552485  0.83075011  0.80444372  1
  O  O404  1  0.96572530  0.33208276  0.30371184  1
  O  O405  1  0.95295439  0.33416771  0.80402334  1
  O  O406  1  0.96165148  0.83281581  0.30321474  1
  O  O407  1  0.95638005  0.83616668  0.80548671  1
  O  O408  1  0.12091408  0.42175800  0.30840701  1
  O  O409  1  0.12030190  0.41939730  0.80078102  1
  O  O410  1  0.11884154  0.91464489  0.30501763  1
  O  O411  1  0.12549485  0.91473041  0.80938841  1
  O  O412  1  0.46237886  0.41699862  0.30860658  1
  O  O413  1  0.45609775  0.41879279  0.80664194  1
  O  O414  1  0.45625698  0.91559229  0.30458559  1
  O  O415  1  0.45806427  0.91267020  0.80885142  1
  O  O416  1  0.78918214  0.42135833  0.30165296  1
  O  O417  1  0.79006159  0.42136353  0.80193824  1
  O  O418  1  0.78487843  0.92716551  0.30585492  1
  O  O419  1  0.79074099  0.91353220  0.80335731  1
  O  O420  1  0.28108674  0.15493628  0.31159724  1
  O  O421  1  0.29088647  0.16571516  0.81036701  1
  O  O422  1  0.28983403  0.66395017  0.31061225  1
  O  O423  1  0.29181130  0.66628464  0.80573618  1
  O  O424  1  0.62657439  0.16623919  0.30376228  1
  O  O425  1  0.62319509  0.16462677  0.80707694  1
  O  O426  1  0.62051458  0.66497122  0.30089637  1
  O  O427  1  0.62512446  0.66622781  0.80280335  1
  O  O428  1  0.95814287  0.16699918  0.30153156  1
  O  O429  1  0.95156094  0.16348207  0.80484087  1
  O  O430  1  0.95634641  0.66767050  0.30208104  1
  O  O431  1  0.95750948  0.66587947  0.80449181  1
  F  F432  1  0.04722324  -0.00132024  0.20065214  1
  F  F433  1  0.04596172  -0.00366770  0.70266545  1
  F  F434  1  0.04728253  0.50161859  0.20063578  1
  F  F435  1  0.04679731  0.50448469  0.70072514  1
  F  F436  1  0.37380430  -0.00320170  0.20373108  1
  F  F437  1  0.37602907  -0.00449668  0.70472873  1
  F  F438  1  0.37691681  0.50110618  0.20355913  1
  F  F439  1  0.37812308  0.50157795  0.70372533  1
  F  F440  1  0.70955897  0.00300110  0.19882944  1
  F  F441  1  0.71176923  -0.00391734  0.70020968  1
  F  F442  1  0.71137915  0.50059988  0.19752297  1
  F  F443  1  0.71406411  0.50385521  0.69926336  1
  F  F444  1  0.19880709  0.24681172  0.19841261  1
  F  F445  1  0.21309293  0.24395876  0.70477632  1
  F  F446  1  0.21108493  0.75222947  0.20054891  1
  F  F447  1  0.21263305  0.75024530  0.70336231  1
  F  F448  1  0.54569234  0.24800213  0.20181004  1
  F  F449  1  0.54226478  0.24496320  0.70082197  1
  F  F450  1  0.53903826  0.75056350  0.20032729  1
  F  F451  1  0.54495980  0.75081671  0.70317161  1
  F  F452  1  0.88521602  0.23992757  0.19316400  1
  F  F453  1  0.88133305  0.24870378  0.70108296  1
  F  F454  1  0.88666443  0.74560326  0.18638320  1
  F  F455  1  0.87620633  0.75091583  0.69947296  1
  F  F456  1  0.28534767  -0.00380603  0.30108634  1
  F  F457  1  0.28830694  -0.00285647  0.80206251  1
  F  F458  1  0.28729049  0.50221580  0.29935735  1
  F  F459  1  0.29003689  0.50296480  0.80029195  1
  F  F460  1  0.62154717  0.00228573  0.29591513  1
  F  F461  1  0.62298958  -0.00325610  0.79700100  1
  F  F462  1  0.62158439  0.49987565  0.29411900  1
  F  F463  1  0.62284393  0.50562273  0.79609829  1
  F  F464  1  0.95554962  0.00381774  0.29715763  1
  F  F465  1  0.95341928  -0.00205346  0.79670272  1
  F  F466  1  0.95432288  0.50082087  0.29473077  1
  F  F467  1  0.95480275  0.50190361  0.79555654  1
  F  F468  1  0.11985483  0.24566989  0.29887721  1
  F  F469  1  0.11662406  0.24631519  0.80290794  1
  F  F470  1  0.11436049  0.75327313  0.29995046  1
  F  F471  1  0.12791796  0.74907298  0.80154636  1
  F  F472  1  0.47129630  0.24893297  0.30435650  1
  F  F473  1  0.45474678  0.25037591  0.79681373  1
  F  F474  1  0.45758914  0.74968190  0.30247054  1
  F  F475  1  0.45546355  0.74859939  0.79942920  1
  F  F476  1  0.78614120  0.24175207  0.29689393  1
  F  F477  1  0.79136775  0.24980594  0.79634321  1
  F  F478  1  0.78326571  0.74502225  0.30117737  1
  F  F479  1  0.78928053  0.75022656  0.79782407  1
