# generated using pymatgen
data_K24Na3Li5Mg64Fe17Si79(O5F)48
_symmetry_space_group_name_H-M   'P 1'
_cell_length_a   16.07777676
_cell_length_b   18.56382590
_cell_length_c   20.53443758
_cell_angle_alpha   89.99126793
_cell_angle_beta   100.00270501
_cell_angle_gamma   90.00286367
_symmetry_Int_Tables_number   1
_chemical_formula_structural   K24Na3Li5Mg64Fe17Si79(O5F)48
_chemical_formula_sum   'K24 Na3 Li5 Mg64 Fe17 Si79 O240 F48'
_cell_volume   6035.65116364
_cell_formula_units_Z   1
loop_
 _symmetry_equiv_pos_site_id
 _symmetry_equiv_pos_as_xyz
  1  'x, y, z'
loop_
 _atom_site_type_symbol
 _atom_site_label
 _atom_site_symmetry_multiplicity
 _atom_site_fract_x
 _atom_site_fract_y
 _atom_site_fract_z
 _atom_site_occupancy
  K  K0  1  0.00657387  0.00387918  0.00283389  1
  K  K1  1  -0.00248017  0.00031844  0.49759357  1
  K  K2  1  -0.00067412  0.50347487  -0.00547746  1
  K  K3  1  0.00040105  0.49799802  0.50037398  1
  K  K4  1  0.33542681  -0.00016449  0.00494131  1
  K  K5  1  0.33959955  -0.00336185  0.49562470  1
  K  K6  1  0.32734197  0.50166021  0.00061520  1
  K  K7  1  0.33447194  0.50849507  0.49261597  1
  K  K8  1  0.66310347  0.00333896  0.00292408  1
  K  K9  1  0.67262289  0.00392234  0.48862941  1
  K  K10  1  0.67292440  0.49690731  -0.00141329  1
  K  K11  1  0.66445225  0.49602600  0.49917218  1
  K  K12  1  0.15006979  0.24491554  -0.00359616  1
  K  K13  1  0.16620394  0.24662594  0.49669054  1
  K  K14  1  0.15621992  0.75210097  0.00006551  1
  K  K15  1  0.16910517  0.74947838  0.49777214  1
  K  K16  1  0.50169815  0.24874122  0.00589906  1
  K  K17  1  0.49668433  0.25277755  0.49715183  1
  K  K18  1  0.50505753  0.74847839  -0.00055124  1
  K  K19  1  0.48982650  0.75763090  0.49320287  1
  K  K20  1  0.83374764  0.24491840  -0.00070150  1
  K  K21  1  0.82862624  0.24584831  0.49772571  1
  K  K22  1  0.83813183  0.75243958  0.00453064  1
  K  K23  1  0.83738311  0.75698091  0.49897288  1
  Na  Na24  1  -0.00106881  0.24833182  0.75455959  1
  Na  Na25  1  0.00113581  0.58309348  0.75855587  1
  Na  Na26  1  0.66078811  0.08021393  0.25880873  1
  Li  Li27  1  0.67187570  0.24437151  0.75176618  1
  Li  Li28  1  0.50625851  0.00430249  0.26256766  1
  Li  Li29  1  0.49737268  0.66492724  0.75231756  1
  Li  Li30  1  0.66667692  0.08839560  0.75039449  1
  Li  Li31  1  0.50621390  0.15773429  0.25615472  1
  Mg  Mg32  1  0.33554591  0.74821076  0.75098258  1
  Mg  Mg33  1  0.50171832  0.00221461  0.74714530  1
  Mg  Mg34  1  0.33817654  0.24700492  0.25232935  1
  Mg  Mg35  1  0.83074736  0.00017597  0.24873336  1
  Mg  Mg36  1  0.66108983  0.74821067  0.74963468  1
  Mg  Mg37  1  0.66339216  0.24858569  0.25223332  1
  Mg  Mg38  1  0.16717153  0.00182450  0.24280544  1
  Mg  Mg39  1  0.16670005  0.50023885  0.25044427  1
  Mg  Mg40  1  0.33356533  0.25106611  0.74651902  1
  Mg  Mg41  1  0.00238228  0.74888884  0.24718633  1
  Mg  Mg42  1  0.82928765  0.00213256  0.75045509  1
  Mg  Mg43  1  0.16642959  -0.00121548  0.74716124  1
  Mg  Mg44  1  0.66853714  0.74914413  0.25183303  1
  Mg  Mg45  1  0.50008888  0.49893924  0.25212797  1
  Mg  Mg46  1  0.83220637  0.50050520  0.75496687  1
  Mg  Mg47  1  -0.00096643  0.74984737  0.75127957  1
  Mg  Mg48  1  0.50029355  0.50150130  0.75033777  1
  Mg  Mg49  1  0.83370701  0.49878834  0.25122203  1
  Mg  Mg50  1  0.33441097  0.75286733  0.25290636  1
  Mg  Mg51  1  -0.00047901  0.24890181  0.24866713  1
  Mg  Mg52  1  0.16582200  0.50199106  0.75305195  1
  Mg  Mg53  1  0.33476551  0.41687776  0.74850881  1
  Mg  Mg54  1  0.16472896  0.66497351  0.24928225  1
  Mg  Mg55  1  0.83224195  0.66530109  0.75323602  1
  Mg  Mg56  1  0.50208605  0.33249114  0.25459311  1
  Mg  Mg57  1  0.33365170  0.58486415  0.25260732  1
  Mg  Mg58  1  -0.00039595  0.08404828  0.75069767  1
  Mg  Mg59  1  0.49806955  0.83224166  0.74550542  1
  Mg  Mg60  1  0.66970171  0.58300310  0.25334024  1
  Mg  Mg61  1  0.66612258  0.91633657  0.25479751  1
  Mg  Mg62  1  0.83238336  0.33020576  0.75401557  1
  Mg  Mg63  1  0.66516924  0.58420584  0.75247566  1
  Mg  Mg64  1  0.82856321  0.16600318  0.75224234  1
  Mg  Mg65  1  0.82837398  0.16483475  0.24834553  1
  Mg  Mg66  1  -0.00300886  0.08509965  0.24568083  1
  Mg  Mg67  1  0.50442481  0.16779215  0.74545111  1
  Mg  Mg68  1  0.16582072  0.16656194  0.74839121  1
  Mg  Mg69  1  0.33173589  0.91560020  0.74609853  1
  Mg  Mg70  1  0.66481637  0.91863877  0.74856154  1
  Mg  Mg71  1  -0.00025489  0.41608016  0.75416613  1
  Mg  Mg72  1  0.33380958  0.58583186  0.75212987  1
  Mg  Mg73  1  0.34080188  0.08305786  0.24787691  1
  Mg  Mg74  1  0.83572320  0.83404772  0.25020651  1
  Mg  Mg75  1  0.16628341  0.16607747  0.24630452  1
  Mg  Mg76  1  0.16760502  0.33315300  0.24986530  1
  Mg  Mg77  1  0.82994276  0.33332923  0.25085652  1
  Mg  Mg78  1  0.00279710  0.58585996  0.24931380  1
  Mg  Mg79  1  0.33803396  0.92031311  0.24928430  1
  Mg  Mg80  1  0.16607145  0.33469584  0.75073663  1
  Mg  Mg81  1  0.16553762  0.83493878  0.24543477  1
  Mg  Mg82  1  0.50279103  0.83739161  0.25401089  1
  Mg  Mg83  1  0.33615485  0.41471031  0.25173610  1
  Mg  Mg84  1  0.50402073  0.33183909  0.74815096  1
  Mg  Mg85  1  0.00008560  0.91546389  0.24428885  1
  Mg  Mg86  1  0.16806929  0.66680748  0.75270145  1
  Mg  Mg87  1  0.33265948  0.08498270  0.74354656  1
  Mg  Mg88  1  -0.00059809  0.41528855  0.25011672  1
  Mg  Mg89  1  0.83201329  0.83415207  0.75029656  1
  Mg  Mg90  1  0.50149370  0.66686299  0.25351410  1
  Mg  Mg91  1  0.16812549  0.83589508  0.74815014  1
  Mg  Mg92  1  0.66855193  0.41462563  0.25277722  1
  Mg  Mg93  1  0.66835046  0.41303488  0.75275966  1
  Mg  Mg94  1  0.83819480  0.66508191  0.25191798  1
  Mg  Mg95  1  0.00128562  0.91618445  0.74853205  1
  Fe  Fe96  1  0.01998719  0.16730506  0.10693682  1
  Fe  Fe97  1  0.47900475  0.08844611  0.39415746  1
  Fe  Fe98  1  0.46981721  0.41752083  0.39219429  1
  Fe  Fe99  1  0.97585077  0.67011046  0.39200810  1
  Fe  Fe100  1  0.02452418  0.66119713  0.10451004  1
  Fe  Fe101  1  0.48258900  0.91827494  0.39171650  1
  Fe  Fe102  1  0.81439268  0.41825360  0.39273008  1
  Fe  Fe103  1  0.14766074  0.91635180  0.88856463  1
  Fe  Fe104  1  0.14293356  0.57739615  0.39238356  1
  Fe  Fe105  1  0.14229597  0.58659347  0.89610033  1
  Fe  Fe106  1  0.31217055  0.66781349  0.89297711  1
  Fe  Fe107  1  0.02318714  0.83761688  0.10431231  1
  Fe  Fe108  1  0.97061170  0.15926990  0.89124187  1
  Fe  Fe109  1  0.80233618  0.58779164  0.89333311  1
  Fe  Fe110  1  0.18992332  0.91675258  0.60424542  1
  Fe  Fe111  1  0.68732269  0.33032353  0.10995508  1
  Fe  Fe112  1  0.81005431  0.08515146  0.39137091  1
  Si  Si113  1  0.30400463  0.83833131  0.38478941  1
  Si  Si114  1  0.02538363  0.33635666  0.61640671  1
  Si  Si115  1  0.52575090  0.91713334  0.61242834  1
  Si  Si116  1  0.52744096  0.58165339  0.61519658  1
  Si  Si117  1  0.85488255  0.58222724  0.61608327  1
  Si  Si118  1  0.36033769  0.17034097  0.61046012  1
  Si  Si119  1  0.31128665  0.33339439  0.88337415  1
  Si  Si120  1  0.31760126  0.83287421  0.88720640  1
  Si  Si121  1  0.63614567  0.16525211  0.88222505  1
  Si  Si122  1  0.52898609  0.41645081  0.61462782  1
  Si  Si123  1  0.36317952  0.66870226  0.11760778  1
  Si  Si124  1  0.69291981  0.16500999  0.61622115  1
  Si  Si125  1  0.30802125  0.67140189  0.38757646  1
  Si  Si126  1  0.19756039  0.41313332  0.11551997  1
  Si  Si127  1  0.64192217  0.17709648  0.39233280  1
  Si  Si128  1  0.97859081  0.16610899  0.38588269  1
  Si  Si129  1  0.36220004  0.33086647  0.11506894  1
  Si  Si130  1  0.36176806  0.82906300  0.60926651  1
  Si  Si131  1  0.85716059  0.41645417  0.61672097  1
  Si  Si132  1  0.19857929  0.08716897  0.10993346  1
  Si  Si133  1  0.36021367  0.66247643  0.61450791  1
  Si  Si134  1  0.19141754  0.41704731  0.61365114  1
  Si  Si135  1  0.63294971  0.83328733  0.88303568  1
  Si  Si136  1  0.85388465  0.57764395  0.11344371  1
  Si  Si137  1  0.64216363  0.33820400  0.39275418  1
  Si  Si138  1  0.14060183  0.92201374  0.38006796  1
  Si  Si139  1  0.47114624  0.57559139  0.88661005  1
  Si  Si140  1  0.47646518  0.58975594  0.38933601  1
  Si  Si141  1  0.64882990  0.82612593  0.38922697  1
  Si  Si142  1  0.20004607  0.91977779  0.11035349  1
  Si  Si143  1  0.30447497  0.16425806  0.38548811  1
  Si  Si144  1  0.36258546  0.83222653  0.11544625  1
  Si  Si145  1  0.20206103  0.57956608  0.11296769  1
  Si  Si146  1  0.64155107  0.32851864  0.88468025  1
  Si  Si147  1  0.02450004  0.16853336  0.61394923  1
  Si  Si148  1  0.47882925  0.41306947  0.88439429  1
  Si  Si149  1  0.85139674  0.91861053  0.11168711  1
  Si  Si150  1  0.52602361  0.58639107  0.11746296  1
  Si  Si151  1  0.85600192  0.91717782  0.61381191  1
  Si  Si152  1  0.35998931  0.33672969  0.61241636  1
  Si  Si153  1  0.68352352  0.16427262  0.11261621  1
  Si  Si154  1  0.97821013  0.32866880  0.38641797  1
  Si  Si155  1  0.79867636  0.07831980  0.88764795  1
  Si  Si156  1  0.52238032  0.42221383  0.11317893  1
  Si  Si157  1  0.96744320  0.67614390  0.88899895  1
  Si  Si158  1  0.85799428  0.41461680  0.11409151  1
  Si  Si159  1  0.14537957  0.41368968  0.88984719  1
  Si  Si160  1  0.80936826  0.58753822  0.38976774  1
  Si  Si161  1  0.30234430  0.32878361  0.38643907  1
  Si  Si162  1  0.84856327  0.08198261  0.11064230  1
  Si  Si163  1  0.69068508  0.66772914  0.61359729  1
  Si  Si164  1  0.19039467  0.09003317  0.60751317  1
  Si  Si165  1  0.85784220  0.08347421  0.61365524  1
  Si  Si166  1  0.01854496  0.82977554  0.60966246  1
  Si  Si167  1  0.52357683  0.07548068  0.11884228  1
  Si  Si168  1  0.69294166  0.66498554  0.11647740  1
  Si  Si169  1  0.69415259  0.33085565  0.61706397  1
  Si  Si170  1  0.62973564  0.66730085  0.88697795  1
  Si  Si171  1  0.98129326  0.83773681  0.38487969  1
  Si  Si172  1  0.14063393  0.08389790  0.38083062  1
  Si  Si173  1  0.36586766  0.16621140  0.11464194  1
  Si  Si174  1  0.64452007  0.66346867  0.38637520  1
  Si  Si175  1  0.30944965  0.16969842  0.88084709  1
  Si  Si176  1  0.52485397  0.08394078  0.61246669  1
  Si  Si177  1  0.69132628  0.83061363  0.11568322  1
  Si  Si178  1  0.81296701  0.91293659  0.38833996  1
  Si  Si179  1  0.14216524  0.40983222  0.38618824  1
  Si  Si180  1  0.47249140  0.92296524  0.88101663  1
  Si  Si181  1  0.02324478  0.66527124  0.61580541  1
  Si  Si182  1  0.02449713  0.34074301  0.11260867  1
  Si  Si183  1  0.69077434  0.83414093  0.61401726  1
  Si  Si184  1  0.97225660  0.83973949  0.88554549  1
  Si  Si185  1  0.80791222  0.41439888  0.89059967  1
  Si  Si186  1  0.19111155  0.58346646  0.61372263  1
  Si  Si187  1  0.47217609  0.08691304  0.88133701  1
  Si  Si188  1  0.15034559  0.08377384  0.88615994  1
  Si  Si189  1  0.52827856  0.91181148  0.11573005  1
  Si  Si190  1  0.80065170  0.91254912  0.88486621  1
  Si  Si191  1  0.97447231  0.33425296  0.88897350  1
  O  O192  1  0.27725498  0.12638639  0.08094152  1
  O  O193  1  0.26812289  0.13476358  0.58067036  1
  O  O194  1  0.28731660  0.61334161  0.08872631  1
  O  O195  1  0.26879267  0.62305455  0.58357060  1
  O  O196  1  0.60491882  0.10678330  0.08778445  1
  O  O197  1  0.60355132  0.12292617  0.58469193  1
  O  O198  1  0.60774640  0.61743472  0.08760920  1
  O  O199  1  0.60115425  0.62583582  0.58399146  1
  O  O200  1  0.92607493  0.10807451  0.07563764  1
  O  O201  1  0.93618138  0.12416122  0.58498534  1
  O  O202  1  0.93052265  0.59945903  0.07680065  1
  O  O203  1  0.93663472  0.61767002  0.58881382  1
  O  O204  1  0.10745258  0.37517702  0.08537218  1
  O  O205  1  0.10347512  0.37309364  0.58359888  1
  O  O206  1  0.11719599  0.87879840  0.07320072  1
  O  O207  1  0.08850753  0.86679079  0.57277280  1
  O  O208  1  0.43377919  0.37745208  0.08495152  1
  O  O209  1  0.43705934  0.37846081  0.58451508  1
  O  O210  1  0.44480314  0.86194657  0.08535711  1
  O  O211  1  0.44254733  0.86870210  0.58277139  1
  O  O212  1  0.78805009  0.35758631  0.07961000  1
  O  O213  1  0.77080361  0.37110466  0.58587927  1
  O  O214  1  0.77019853  0.86405881  0.08480005  1
  O  O215  1  0.76668399  0.87540049  0.58426144  1
  O  O216  1  0.26997683  0.36746721  0.08519562  1
  O  O217  1  0.26959687  0.37734260  0.58367376  1
  O  O218  1  0.28315158  0.88347548  0.08473419  1
  O  O219  1  0.27727745  0.86754601  0.57124693  1
  O  O220  1  0.59624208  0.39363541  0.07565958  1
  O  O221  1  0.60436500  0.37316949  0.58628271  1
  O  O222  1  0.60635512  0.87615807  0.08253444  1
  O  O223  1  0.60429948  0.87855430  0.58390957  1
  O  O224  1  0.94810850  0.39912656  0.08779703  1
  O  O225  1  0.93763582  0.38080689  0.58731322  1
  O  O226  1  0.92780116  0.89739855  0.07429383  1
  O  O227  1  0.92793637  0.87270012  0.58261886  1
  O  O228  1  0.11360177  0.12809222  0.07493412  1
  O  O229  1  0.10296445  0.13692545  0.57978354  1
  O  O230  1  0.12013719  0.62033663  0.07508780  1
  O  O231  1  0.10193533  0.62614444  0.58599340  1
  O  O232  1  0.44030662  0.12410538  0.08317881  1
  O  O233  1  0.43637658  0.12814045  0.58164478  1
  O  O234  1  0.44801564  0.64163035  0.08958393  1
  O  O235  1  0.43475288  0.61745900  0.58490693  1
  O  O236  1  0.76490456  0.13127302  0.08224004  1
  O  O237  1  0.76926949  0.12550327  0.58342056  1
  O  O238  1  0.77096699  0.63022825  0.08613413  1
  O  O239  1  0.76780115  0.62760519  0.58349678  1
  O  O240  1  0.05756636  0.10905028  0.41137943  1
  O  O241  1  0.07078474  0.10609980  0.92029123  1
  O  O242  1  0.05289612  0.60257954  0.43234580  1
  O  O243  1  0.03881506  0.61744642  0.91843061  1
  O  O244  1  0.37549011  0.11175134  0.42415059  1
  O  O245  1  0.38946173  0.11666374  0.91070248  1
  O  O246  1  0.39851458  0.63073301  0.41659415  1
  O  O247  1  0.39186895  0.59322696  0.92214082  1
  O  O248  1  0.71751974  0.12170053  0.42490154  1
  O  O249  1  0.71252111  0.10994126  0.91305899  1
  O  O250  1  0.71569784  0.60280759  0.41329844  1
  O  O251  1  0.70791298  0.62229638  0.92718151  1
  O  O252  1  0.21082803  0.34474909  0.40990521  1
  O  O253  1  0.22868424  0.35899235  0.91406092  1
  O  O254  1  0.21628682  0.86583898  0.41002495  1
  O  O255  1  0.23539361  0.85113425  0.92031637  1
  O  O256  1  0.55889204  0.35636576  0.42593255  1
  O  O257  1  0.55835658  0.35982168  0.91413891  1
  O  O258  1  0.57092888  0.84988932  0.42397963  1
  O  O259  1  0.55642867  0.87504954  0.91186272  1
  O  O260  1  0.90036639  0.34944354  0.42311094  1
  O  O261  1  0.89417124  0.36840552  0.91999574  1
  O  O262  1  0.89709283  0.86252577  0.41512776  1
  O  O263  1  0.88379356  0.86349398  0.91218034  1
  O  O264  1  0.05635331  0.38480663  0.41403180  1
  O  O265  1  0.06258315  0.38022794  0.91704319  1
  O  O266  1  0.05429109  0.90072890  0.40808301  1
  O  O267  1  0.04451758  0.89602579  0.91733439  1
  O  O268  1  0.37210058  0.38465497  0.42363828  1
  O  O269  1  0.39418053  0.38396429  0.91271162  1
  O  O270  1  0.38151213  0.88599095  0.42173452  1
  O  O271  1  0.39054020  0.89715950  0.91155967  1
  O  O272  1  0.71483968  0.39606682  0.42392852  1
  O  O273  1  0.72617367  0.37447468  0.91633247  1
  O  O274  1  0.73472106  0.87304656  0.41728472  1
  O  O275  1  0.72154175  0.87434066  0.91365803  1
  O  O276  1  0.21454491  0.14160920  0.41034847  1
  O  O277  1  0.22608960  0.14574362  0.91003826  1
  O  O278  1  0.23764868  0.63677411  0.42492796  1
  O  O279  1  0.22440884  0.64966798  0.93740060  1
  O  O280  1  0.55949702  0.15961384  0.42615391  1
  O  O281  1  0.55219018  0.13781928  0.91317272  1
  O  O282  1  0.55851209  0.64285484  0.41502149  1
  O  O283  1  0.54559455  0.63497412  0.91310928  1
  O  O284  1  0.90469546  0.14421749  0.42605592  1
  O  O285  1  0.87781563  0.12304606  0.92674040  1
  O  O286  1  0.86960367  0.65447141  0.41830804  1
  O  O287  1  0.88337061  0.65868983  0.92055089  1
  O  O288  1  0.19748769  0.00342833  0.08293115  1
  O  O289  1  0.18052998  0.01276567  0.57129733  1
  O  O290  1  0.20006943  0.49497187  0.08678929  1
  O  O291  1  0.18243239  0.49990311  0.58414770  1
  O  O292  1  0.50991802  -0.00691854  0.08446808  1
  O  O293  1  0.51320148  0.00021770  0.58455716  1
  O  O294  1  0.50044540  0.50655761  0.08705329  1
  O  O295  1  0.52569644  0.49889983  0.58464202  1
  O  O296  1  0.81784127  -0.00048291  0.08671944  1
  O  O297  1  0.85120111  0.00003060  0.58396943  1
  O  O298  1  0.82345646  0.49560149  0.08902709  1
  O  O299  1  0.84402065  0.49910663  0.58644150  1
  O  O300  1  0.00235951  0.26386233  0.07682473  1
  O  O301  1  0.01154154  0.25301783  0.58778727  1
  O  O302  1  -0.00023826  0.74936856  0.06437293  1
  O  O303  1  0.00451941  0.74565126  0.58194487  1
  O  O304  1  0.36326332  0.24933621  0.08380877  1
  O  O305  1  0.35568679  0.25419393  0.58236383  1
  O  O306  1  0.34272303  0.74971055  0.08702503  1
  O  O307  1  0.36086371  0.74414555  0.58303429  1
  O  O308  1  0.65628781  0.23903039  0.07325553  1
  O  O309  1  0.68486821  0.24854759  0.58664394  1
  O  O310  1  0.67611772  0.74730797  0.08678000  1
  O  O311  1  0.68323578  0.75107631  0.58419708  1
  O  O312  1  0.16786055  0.00285771  0.40978595  1
  O  O313  1  0.19074901  0.00805373  0.91587170  1
  O  O314  1  0.17800332  0.48308248  0.42256035  1
  O  O315  1  0.16832717  0.48943035  0.92643449  1
  O  O316  1  0.51306619  0.00212094  0.43717067  1
  O  O317  1  0.49356803  0.00514175  0.90998616  1
  O  O318  1  0.49297421  0.51277381  0.42569667  1
  O  O319  1  0.50494581  0.49351513  0.91358934  1
  O  O320  1  0.83015175  -0.01029873  0.42507150  1
  O  O321  1  0.80752401  -0.00622428  0.91589122  1
  O  O322  1  0.84548471  0.51220704  0.42352516  1
  O  O323  1  0.81988401  0.49247594  0.92576951  1
  O  O324  1  0.32618182  0.24679420  0.41403593  1
  O  O325  1  0.33655389  0.25099504  0.90958116  1
  O  O326  1  0.32102002  0.75535622  0.41303789  1
  O  O327  1  0.36218898  0.75871100  0.91699104  1
  O  O328  1  0.67712845  0.25833120  0.41980872  1
  O  O329  1  0.65705992  0.24629770  0.91403379  1
  O  O330  1  0.67632893  0.74270179  0.41516124  1
  O  O331  1  0.63605208  0.75222210  0.91415584  1
  O  O332  1  1.01410704  0.24743313  0.41058440  1
  O  O333  1  0.99215101  0.25494662  0.92062357  1
  O  O334  1  1.01595961  0.76370179  0.42036799  1
  O  O335  1  0.99862831  0.75893713  0.91390940  1
  O  O336  1  0.21118060  0.08682420  0.19077932  1
  O  O337  1  0.21043913  0.08682642  0.68865377  1
  O  O338  1  0.21502808  0.58207168  0.19394810  1
  O  O339  1  0.21135671  0.58148467  0.69345658  1
  O  O340  1  0.53396454  0.07611839  0.19633154  1
  O  O341  1  0.53733567  0.08367290  0.69197535  1
  O  O342  1  0.54436339  0.58518391  0.19794959  1
  O  O343  1  0.54601523  0.58001016  0.69478533  1
  O  O344  1  0.87401189  0.08380934  0.19127087  1
  O  O345  1  0.87439903  0.08113240  0.69333568  1
  O  O346  1  0.87415122  0.58149308  0.19437433  1
  O  O347  1  0.86591443  0.58283389  0.69512189  1
  O  O348  1  0.04427791  0.33509065  0.19374619  1
  O  O349  1  0.04819868  0.33919033  0.69556754  1
  O  O350  1  0.04495497  0.83360690  0.19707434  1
  O  O351  1  0.03845901  0.83257989  0.69039285  1
  O  O352  1  0.37680034  0.33250405  0.19501390  1
  O  O353  1  0.37699345  0.33510176  0.69281018  1
  O  O354  1  0.37905286  0.83132742  0.19561737  1
  O  O355  1  0.37632125  0.83276473  0.69010761  1
  O  O356  1  0.70819768  0.33323733  0.20125895  1
  O  O357  1  0.71131351  0.33582242  0.69643607  1
  O  O358  1  0.71017235  0.83002010  0.19587852  1
  O  O359  1  0.70807268  0.83345299  0.69424166  1
  O  O360  1  0.21350301  0.41464883  0.19618094  1
  O  O361  1  0.21176326  0.41572858  0.69392032  1
  O  O362  1  0.21171221  0.91681461  0.19119899  1
  O  O363  1  0.21295605  0.91754894  0.69582244  1
  O  O364  1  0.54333605  0.42009446  0.19380934  1
  O  O365  1  0.54354307  0.41646071  0.69485428  1
  O  O366  1  0.55037288  0.90687640  0.19453343  1
  O  O367  1  0.54246329  0.91688938  0.69280988  1
  O  O368  1  0.87757783  0.41442025  0.19513812  1
  O  O369  1  0.87470192  0.41602494  0.69677875  1
  O  O370  1  0.87469349  0.91502260  0.19264663  1
  O  O371  1  0.87401846  0.91646262  0.69407537  1
  O  O372  1  0.04358011  0.16753889  0.19847327  1
  O  O373  1  0.04825880  0.16061506  0.69280761  1
  O  O374  1  0.04656033  0.66664837  0.19655380  1
  O  O375  1  0.04619396  0.67257705  0.69470810  1
  O  O376  1  0.37439231  0.16854529  0.19361293  1
  O  O377  1  0.37668728  0.16904026  0.69091768  1
  O  O378  1  0.37964870  0.66828211  0.19832628  1
  O  O379  1  0.37563224  0.66408685  0.69383401  1
  O  O380  1  0.70882950  0.17300209  0.19171315  1
  O  O381  1  0.71153220  0.16321217  0.69499770  1
  O  O382  1  0.71036884  0.66558615  0.19693456  1
  O  O383  1  0.70636522  0.66793403  0.69368281  1
  O  O384  1  0.12285974  0.08246472  0.30049622  1
  O  O385  1  0.12821738  0.08389008  0.80411294  1
  O  O386  1  0.12506800  0.58134542  0.30001484  1
  O  O387  1  0.13708079  0.58413998  0.80554726  1
  O  O388  1  0.45225680  0.08267656  0.30540608  1
  O  O389  1  0.45449743  0.08626819  0.80089907  1
  O  O390  1  0.45790706  0.58545787  0.30809631  1
  O  O391  1  0.45325391  0.57564707  0.80617825  1
  O  O392  1  0.80013263  0.08185122  0.30165185  1
  O  O393  1  0.78826299  0.07934950  0.80763379  1
  O  O394  1  0.79122637  0.58435643  0.30769344  1
  O  O395  1  0.78438624  0.58409684  0.80126552  1
  O  O396  1  0.28960752  0.33257265  0.30544966  1
  O  O397  1  0.29329237  0.33456138  0.80267097  1
  O  O398  1  0.28877015  0.83671829  0.30364658  1
  O  O399  1  0.29557723  0.83468953  0.80527829  1
  O  O400  1  0.62227831  0.33918301  0.31120786  1
  O  O401  1  0.62090209  0.33364719  0.80500311  1
  O  O402  1  0.62778844  0.82755884  0.30820722  1
  O  O403  1  0.61911965  0.83407820  0.80270541  1
  O  O404  1  0.95777864  0.33212084  0.30526536  1
  O  O405  1  0.95240285  0.33945442  0.80913691  1
  O  O406  1  0.95838925  0.83488046  0.30394728  1
  O  O407  1  0.95386381  0.83749721  0.80394478  1
  O  O408  1  0.12368444  0.41461548  0.30487356  1
  O  O409  1  0.12746061  0.41505732  0.80867241  1
  O  O410  1  0.12434129  0.92084050  0.29972650  1
  O  O411  1  0.12161582  0.91704955  0.79647818  1
  O  O412  1  0.45468133  0.41861649  0.30041274  1
  O  O413  1  0.45837059  0.41334671  0.80362645  1
  O  O414  1  0.45456040  0.91480619  0.30087872  1
  O  O415  1  0.45588377  0.91938315  0.80049969  1
  O  O416  1  0.79126713  0.41830626  0.30112193  1
  O  O417  1  0.78818195  0.41521212  0.80941880  1
  O  O418  1  0.79373957  0.91352362  0.30733848  1
  O  O419  1  0.78528194  0.91485197  0.80422251  1
  O  O420  1  0.28844520  0.16514642  0.30446980  1
  O  O421  1  0.29320908  0.16774948  0.80012347  1
  O  O422  1  0.29082958  0.66754182  0.30637333  1
  O  O423  1  0.29080420  0.66775225  0.80000683  1
  O  O424  1  0.62265486  0.17760895  0.31264370  1
  O  O425  1  0.61684426  0.16686130  0.80334763  1
  O  O426  1  0.62471496  0.66524158  0.30554535  1
  O  O427  1  0.62269375  0.66697994  0.80680737  1
  O  O428  1  0.95689897  0.16562296  0.30510585  1
  O  O429  1  0.94745919  0.15548576  0.80126381  1
  O  O430  1  0.95714112  0.66722755  0.29940423  1
  O  O431  1  0.94818020  0.67809536  0.80815759  1
  F  F432  1  0.04471137  0.00133845  0.19616614  1
  F  F433  1  0.04292246  0.00205028  0.69848713  1
  F  F434  1  0.04635982  0.49710744  0.20083950  1
  F  F435  1  0.04953926  0.49073414  0.70147126  1
  F  F436  1  0.36458255  -0.00036694  0.19283236  1
  F  F437  1  0.37948985  0.00109665  0.69729593  1
  F  F438  1  0.37847590  0.50342296  0.20217719  1
  F  F439  1  0.37950860  0.49841526  0.69952385  1
  F  F440  1  0.71425509  -0.01304459  0.20009143  1
  F  F441  1  0.71295720  -0.00625870  0.69796190  1
  F  F442  1  0.71027618  0.50278091  0.20255608  1
  F  F443  1  0.70908226  0.49705414  0.70308425  1
  F  F444  1  0.21434514  0.25114973  0.20153403  1
  F  F445  1  0.21348509  0.25202710  0.69789832  1
  F  F446  1  0.21574453  0.74939606  0.20195740  1
  F  F447  1  0.21279290  0.75194107  0.70057803  1
  F  F448  1  0.54589895  0.25828283  0.20153900  1
  F  F449  1  0.53544929  0.25178470  0.69419810  1
  F  F450  1  0.54638710  0.74831142  0.20435197  1
  F  F451  1  0.54728667  0.75484732  0.69577130  1
  F  F452  1  0.87870777  0.24981473  0.20283697  1
  F  F453  1  0.86472509  0.25032758  0.69848892  1
  F  F454  1  0.87625746  0.75088071  0.19989450  1
  F  F455  1  0.87468793  0.75106966  0.70092332  1
  F  F456  1  0.28451015  0.00136399  0.29440104  1
  F  F457  1  0.29114575  0.00407602  0.79295434  1
  F  F458  1  0.28940849  0.49978020  0.29822188  1
  F  F459  1  0.29038303  0.49665537  0.79594654  1
  F  F460  1  0.62374105  -0.01650657  0.31210464  1
  F  F461  1  0.61702114  -0.00443399  0.79816443  1
  F  F462  1  0.62093685  0.50145858  0.29881183  1
  F  F463  1  0.62015728  0.49789112  0.79906101  1
  F  F464  1  0.95625652  -0.00117972  0.29205001  1
  F  F465  1  0.95245948  -0.00214828  0.79490119  1
  F  F466  1  0.95624114  0.49975109  0.29597678  1
  F  F467  1  0.94872878  0.49109964  0.80399898  1
  F  F468  1  0.12243853  0.25052079  0.29606181  1
  F  F469  1  0.13797056  0.24995319  0.80041411  1
  F  F470  1  0.12631988  0.75160025  0.29775226  1
  F  F471  1  0.12105791  0.75384727  0.79604825  1
  F  F472  1  0.45066918  0.25734008  0.30289376  1
  F  F473  1  0.45331359  0.25032942  0.79517968  1
  F  F474  1  0.45612110  0.74999750  0.30057880  1
  F  F475  1  0.45590021  0.75430853  0.79506082  1
  F  F476  1  0.78981061  0.24836875  0.29903211  1
  F  F477  1  0.78971081  0.24896175  0.80310552  1
  F  F478  1  0.78983747  0.74978744  0.29697954  1
  F  F479  1  0.78180995  0.75237907  0.79614362  1
