# generated using pymatgen
data_K24Na3Li5Mg64Fe17Si79(O5F)48
_symmetry_space_group_name_H-M   'P 1'
_cell_length_a   16.11340224
_cell_length_b   18.60974977
_cell_length_c   20.58562017
_cell_angle_alpha   90.02032833
_cell_angle_beta   99.99932950
_cell_angle_gamma   89.95566964
_symmetry_Int_Tables_number   1
_chemical_formula_structural   K24Na3Li5Mg64Fe17Si79(O5F)48
_chemical_formula_sum   'K24 Na3 Li5 Mg64 Fe17 Si79 O240 F48'
_cell_volume   6079.16528837
_cell_formula_units_Z   1
loop_
 _symmetry_equiv_pos_site_id
 _symmetry_equiv_pos_as_xyz
  1  'x, y, z'
loop_
 _atom_site_type_symbol
 _atom_site_label
 _atom_site_symmetry_multiplicity
 _atom_site_fract_x
 _atom_site_fract_y
 _atom_site_fract_z
 _atom_site_occupancy
  K  K0  1  -0.00481970  -0.00640927  -0.00973026  1
  K  K1  1  0.00702038  -0.00220050  0.51737618  1
  K  K2  1  0.00196128  0.49574101  -0.00347078  1
  K  K3  1  0.01111407  0.49462858  0.50857433  1
  K  K4  1  0.33483550  0.01189511  -0.01551145  1
  K  K5  1  0.33262912  0.00668161  0.52453107  1
  K  K6  1  0.33084213  0.49504633  -0.01039094  1
  K  K7  1  0.33024668  0.49795910  0.50424899  1
  K  K8  1  0.65228446  -0.00407185  -0.01819746  1
  K  K9  1  0.66866420  0.00193784  0.51765972  1
  K  K10  1  0.66935266  0.50191597  -0.00441800  1
  K  K11  1  0.66892130  0.49666783  0.51150531  1
  K  K12  1  0.17151526  0.25899520  -0.01146305  1
  K  K13  1  0.18297939  0.25606964  0.51887464  1
  K  K14  1  0.16833191  0.74004073  -0.00822732  1
  K  K15  1  0.17835819  0.75413075  0.51646164  1
  K  K16  1  0.49278850  0.25465564  -0.01359349  1
  K  K17  1  0.48787946  0.25654655  0.51210518  1
  K  K18  1  0.50138072  0.74931271  -0.00979921  1
  K  K19  1  0.50574124  0.74922702  0.51534903  1
  K  K20  1  0.82461650  0.24866280  -0.00692300  1
  K  K21  1  0.83811426  0.25414613  0.51000048  1
  K  K22  1  0.81430014  0.75169819  -0.01121522  1
  K  K23  1  0.83352031  0.75172242  0.50637922  1
  Na  Na24  1  0.16756089  0.50155638  0.74737772  1
  Na  Na25  1  0.66717305  0.08098460  0.75061263  1
  Na  Na26  1  0.33196070  0.91588614  0.74864287  1
  Li  Li27  1  0.34016976  0.75405322  0.74899663  1
  Li  Li28  1  0.33487384  0.25348170  0.74396027  1
  Li  Li29  1  0.66930876  0.58380038  0.75927320  1
  Li  Li30  1  0.83407161  0.83221397  0.24652937  1
  Li  Li31  1  0.16911263  0.33587396  0.26429149  1
  Mg  Mg32  1  0.49990873  0.49895735  0.24696754  1
  Mg  Mg33  1  0.83402817  -0.00345582  0.25019566  1
  Mg  Mg34  1  0.16628419  0.49608529  0.25624688  1
  Mg  Mg35  1  0.82967692  0.50003687  0.75202437  1
  Mg  Mg36  1  0.00033616  0.25119835  0.75299905  1
  Mg  Mg37  1  -0.00214772  0.75025509  0.75073360  1
  Mg  Mg38  1  0.00255406  0.25020756  0.25415826  1
  Mg  Mg39  1  0.49850329  0.00148689  0.74973919  1
  Mg  Mg40  1  0.16753938  -0.00107610  0.25215474  1
  Mg  Mg41  1  0.50178040  -0.00154762  0.24621803  1
  Mg  Mg42  1  0.83022718  -0.00103240  0.75328165  1
  Mg  Mg43  1  -0.00151944  0.74977051  0.24923378  1
  Mg  Mg44  1  0.33531743  0.74973145  0.24996340  1
  Mg  Mg45  1  0.83430644  0.49981356  0.24531351  1
  Mg  Mg46  1  0.32831807  0.25108795  0.25170852  1
  Mg  Mg47  1  0.66424357  0.25016013  0.24772008  1
  Mg  Mg48  1  0.50219616  0.50121278  0.74584013  1
  Mg  Mg49  1  0.16768130  0.00099003  0.74984910  1
  Mg  Mg50  1  0.66532864  0.74635869  0.75395815  1
  Mg  Mg51  1  0.67226058  0.75172774  0.24641134  1
  Mg  Mg52  1  0.66730044  0.25126190  0.75023432  1
  Mg  Mg53  1  0.50247408  0.83439801  0.24586543  1
  Mg  Mg54  1  0.50190310  0.66600184  0.24798043  1
  Mg  Mg55  1  0.83133956  0.83457904  0.75426403  1
  Mg  Mg56  1  0.33390410  0.58277531  0.25188860  1
  Mg  Mg57  1  0.32964518  0.41362065  0.25370325  1
  Mg  Mg58  1  -0.00078820  0.91390532  0.25159346  1
  Mg  Mg59  1  0.49739303  0.16646408  0.24908936  1
  Mg  Mg60  1  0.00182024  0.08384459  0.75334685  1
  Mg  Mg61  1  0.66478646  0.08345938  0.24861769  1
  Mg  Mg62  1  0.67029635  0.41977496  0.75040675  1
  Mg  Mg63  1  -0.00115667  0.58321061  0.24997509  1
  Mg  Mg64  1  0.00144870  0.91600533  0.75135212  1
  Mg  Mg65  1  0.83246172  0.33283767  0.24870928  1
  Mg  Mg66  1  0.00058911  0.41585463  0.75113689  1
  Mg  Mg67  1  0.49928808  0.33352265  0.74697007  1
  Mg  Mg68  1  0.49905348  0.83340448  0.75110163  1
  Mg  Mg69  1  0.83297357  0.16434006  0.25067016  1
  Mg  Mg70  1  0.66601858  0.91497215  0.75268839  1
  Mg  Mg71  1  0.83572500  0.33511806  0.75369782  1
  Mg  Mg72  1  0.83466679  0.16654786  0.75452773  1
  Mg  Mg73  1  0.16751062  0.83335280  0.25113118  1
  Mg  Mg74  1  -0.00025158  0.58315298  0.75081809  1
  Mg  Mg75  1  0.33342388  0.08887264  0.74923838  1
  Mg  Mg76  1  0.33374236  0.08283878  0.25162629  1
  Mg  Mg77  1  0.16851338  0.33416752  0.74647374  1
  Mg  Mg78  1  0.66771263  0.91534539  0.24639227  1
  Mg  Mg79  1  0.00049766  0.08291595  0.25196963  1
  Mg  Mg80  1  0.50137293  0.66671640  0.75001301  1
  Mg  Mg81  1  0.33240666  0.41584558  0.74517796  1
  Mg  Mg82  1  0.16776659  0.16644223  0.25390753  1
  Mg  Mg83  1  0.16666704  0.66485804  0.25166182  1
  Mg  Mg84  1  0.83393313  0.66703154  0.24588849  1
  Mg  Mg85  1  0.00320598  0.41384592  0.25248776  1
  Mg  Mg86  1  0.16836590  0.83300505  0.74841693  1
  Mg  Mg87  1  0.17049327  0.67018201  0.74931843  1
  Mg  Mg88  1  0.49592505  0.33620290  0.24741808  1
  Mg  Mg89  1  0.66276328  0.41558399  0.24485546  1
  Mg  Mg90  1  0.49838514  0.16926376  0.74865208  1
  Mg  Mg91  1  0.33538903  0.91453424  0.24897735  1
  Mg  Mg92  1  0.16897915  0.16716864  0.74854231  1
  Mg  Mg93  1  0.66705811  0.58452348  0.24416098  1
  Mg  Mg94  1  0.33312575  0.58528760  0.74631950  1
  Mg  Mg95  1  0.83141419  0.66460630  0.75304947  1
  Fe  Fe96  1  0.30839833  0.32693152  0.39276443  1
  Fe  Fe97  1  0.52339656  0.91667759  0.10684917  1
  Fe  Fe98  1  0.35940867  0.16601690  0.60918790  1
  Fe  Fe99  1  0.14680320  0.07882820  0.88889106  1
  Fe  Fe100  1  0.98084436  0.32835136  0.89277074  1
  Fe  Fe101  1  0.63338560  0.83199070  0.89128030  1
  Fe  Fe102  1  0.46398211  0.92286887  0.89023111  1
  Fe  Fe103  1  0.52331520  0.41671019  0.10568571  1
  Fe  Fe104  1  0.36074350  0.34194823  0.60655748  1
  Fe  Fe105  1  0.18831278  0.91213221  0.60791581  1
  Fe  Fe106  1  0.85875951  0.58170460  0.10782480  1
  Fe  Fe107  1  0.18584366  0.42396046  0.60558896  1
  Fe  Fe108  1  0.81258655  0.58646422  0.89144660  1
  Fe  Fe109  1  0.80894148  0.91920879  0.89412181  1
  Fe  Fe110  1  0.13461086  0.41554457  0.39480907  1
  Fe  Fe111  1  0.30245416  0.82363571  0.88938933  1
  Fe  Fe112  1  0.81138955  0.41508579  0.89401501  1
  Si  Si113  1  0.81145037  0.09015288  0.88909030  1
  Si  Si114  1  0.85627360  0.91827618  0.61588381  1
  Si  Si115  1  0.80882276  0.58060347  0.38290165  1
  Si  Si116  1  0.14091411  0.08090759  0.38737829  1
  Si  Si117  1  0.63964037  0.16769603  0.38482202  1
  Si  Si118  1  0.35549651  0.82849687  0.11354301  1
  Si  Si119  1  0.63476692  0.33381676  0.38374027  1
  Si  Si120  1  0.02991796  0.83321812  0.11595167  1
  Si  Si121  1  0.01627522  0.83158353  0.61179557  1
  Si  Si122  1  0.31183515  0.83556525  0.38603578  1
  Si  Si123  1  0.31331803  0.15600754  0.38844936  1
  Si  Si124  1  0.35236559  0.33284283  0.11255137  1
  Si  Si125  1  0.97588110  0.83379710  0.88627961  1
  Si  Si126  1  0.52807579  0.08150869  0.61151932  1
  Si  Si127  1  0.64167712  0.17314358  0.88327132  1
  Si  Si128  1  0.53489957  0.42143411  0.61091735  1
  Si  Si129  1  0.47103087  0.57756794  0.88163622  1
  Si  Si130  1  0.69505366  0.83176820  0.61467490  1
  Si  Si131  1  0.03256719  0.66700383  0.11426541  1
  Si  Si132  1  0.47277537  0.42098459  0.38687197  1
  Si  Si133  1  0.30966907  0.65843596  0.88597467  1
  Si  Si134  1  0.19440036  0.91654144  0.11603594  1
  Si  Si135  1  0.18394897  0.08534263  0.60837613  1
  Si  Si136  1  0.80602751  0.08284339  0.38622396  1
  Si  Si137  1  0.19169047  0.08162232  0.11745590  1
  Si  Si138  1  0.69076376  0.16203394  0.11476168  1
  Si  Si139  1  0.30644328  0.33963651  0.88175869  1
  Si  Si140  1  0.35559967  0.66591431  0.11682161  1
  Si  Si141  1  0.97880382  0.16164674  0.88956096  1
  Si  Si142  1  0.36412711  0.66611578  0.61155513  1
  Si  Si143  1  0.01944593  0.66880101  0.61446235  1
  Si  Si144  1  0.85871646  0.58178225  0.61436441  1
  Si  Si145  1  0.14344871  0.58959132  0.38960433  1
  Si  Si146  1  0.63489450  0.66105379  0.88852578  1
  Si  Si147  1  0.69465467  0.16910054  0.61536199  1
  Si  Si148  1  0.19504172  0.58112912  0.11806511  1
  Si  Si149  1  0.69582564  0.33269041  0.61431433  1
  Si  Si150  1  0.02848393  0.33056356  0.11949311  1
  Si  Si151  1  0.35357480  0.16907592  0.11714604  1
  Si  Si152  1  0.19083626  0.41811921  0.11831358  1
  Si  Si153  1  0.53068935  0.91520204  0.61261003  1
  Si  Si154  1  0.86548877  0.91565105  0.11694379  1
  Si  Si155  1  0.47854803  0.07702774  0.38445028  1
  Si  Si156  1  0.69810750  0.83831392  0.11440132  1
  Si  Si157  1  0.47344795  0.41557325  0.87998213  1
  Si  Si158  1  0.13949822  0.58601252  0.88331734  1
  Si  Si159  1  0.51837823  0.08822216  0.11287932  1
  Si  Si160  1  0.31158724  0.66959269  0.38614250  1
  Si  Si161  1  0.01895403  0.16772321  0.61536058  1
  Si  Si162  1  0.53043389  0.58624557  0.61442204  1
  Si  Si163  1  0.36744232  0.83089090  0.60940362  1
  Si  Si164  1  0.97332913  0.66861762  0.38589015  1
  Si  Si165  1  0.30798617  0.17493157  0.88563818  1
  Si  Si166  1  0.85673613  0.08356797  0.61669604  1
  Si  Si167  1  0.80746071  0.91823434  0.38482085  1
  Si  Si168  1  0.97360132  0.83366491  0.38521634  1
  Si  Si169  1  0.85830251  0.41720396  0.61495345  1
  Si  Si170  1  0.63760016  0.33651998  0.88474997  1
  Si  Si171  1  0.14157584  0.91412305  0.38691912  1
  Si  Si172  1  0.96300512  0.33097591  0.38823587  1
  Si  Si173  1  0.48022489  0.91332962  0.38463212  1
  Si  Si174  1  0.14128891  0.41863931  0.88708059  1
  Si  Si175  1  0.19015448  0.59722750  0.61040938  1
  Si  Si176  1  0.69601851  0.66904454  0.61534134  1
  Si  Si177  1  0.64529066  0.66608715  0.38315748  1
  Si  Si178  1  0.47867874  0.58602848  0.38465255  1
  Si  Si179  1  0.97953107  0.67213005  0.88691692  1
  Si  Si180  1  0.02044805  0.33229252  0.61183278  1
  Si  Si181  1  0.13966136  0.91057221  0.88760730  1
  Si  Si182  1  0.69636748  0.32777710  0.11222091  1
  Si  Si183  1  0.85942457  0.08098075  0.11589506  1
  Si  Si184  1  0.52185849  0.58985754  0.11071305  1
  Si  Si185  1  0.97371019  0.16439276  0.38725575  1
  Si  Si186  1  0.79923057  0.41471774  0.38221579  1
  Si  Si187  1  0.02594169  0.16526924  0.11721357  1
  Si  Si188  1  0.47670589  0.09343987  0.88696726  1
  Si  Si189  1  0.68955774  0.67251585  0.11061198  1
  Si  Si190  1  0.64581692  0.83069841  0.38439303  1
  Si  Si191  1  0.86112609  0.40905358  0.11461901  1
  O  O192  1  0.27282911  0.11603254  0.08978606  1
  O  O193  1  0.25535800  0.12221742  0.57294587  1
  O  O194  1  0.27990832  0.60838325  0.09026387  1
  O  O195  1  0.26994401  0.63377850  0.57883258  1
  O  O196  1  0.60317275  0.11934686  0.08645812  1
  O  O197  1  0.61052312  0.12178893  0.58610383  1
  O  O198  1  0.60075174  0.62904574  0.08421978  1
  O  O199  1  0.60396935  0.63272542  0.58408699  1
  O  O200  1  0.93744993  0.12177906  0.08855620  1
  O  O201  1  0.93361516  0.11974119  0.58487153  1
  O  O202  1  0.95683036  0.61691780  0.07984487  1
  O  O203  1  0.93794846  0.61645086  0.58292080  1
  O  O204  1  0.10758181  0.36848516  0.09171412  1
  O  O205  1  0.09058813  0.36464858  0.57373823  1
  O  O206  1  0.10944716  0.87007416  0.08792390  1
  O  O207  1  0.08863203  0.85835128  0.57229583  1
  O  O208  1  0.42780837  0.35829121  0.07537280  1
  O  O209  1  0.45079165  0.38579012  0.57192431  1
  O  O210  1  0.43640723  0.84822106  0.08188182  1
  O  O211  1  0.44383000  0.87383381  0.57781254  1
  O  O212  1  0.78644471  0.34917575  0.09055023  1
  O  O213  1  0.77311736  0.37085382  0.58326908  1
  O  O214  1  0.78701936  0.86251023  0.08997611  1
  O  O215  1  0.76856455  0.87580130  0.58351368  1
  O  O216  1  0.26811615  0.38282620  0.08585580  1
  O  O217  1  0.27065369  0.39429693  0.56308865  1
  O  O218  1  0.27403869  0.88166013  0.08811387  1
  O  O219  1  0.27998419  0.86861469  0.57414779  1
  O  O220  1  0.61981993  0.37759649  0.07713598  1
  O  O221  1  0.61352945  0.38031225  0.58235116  1
  O  O222  1  0.62724030  0.89527356  0.08239670  1
  O  O223  1  0.60590733  0.87129521  0.58204215  1
  O  O224  1  0.94469164  0.37704112  0.08818314  1
  O  O225  1  0.93248016  0.37812582  0.58254701  1
  O  O226  1  0.94732784  0.88283296  0.08836709  1
  O  O227  1  0.93046308  0.88047322  0.58208608  1
  O  O228  1  0.10434556  0.12558318  0.08933433  1
  O  O229  1  0.09458803  0.13227434  0.58276084  1
  O  O230  1  0.12000238  0.63820890  0.08970601  1
  O  O231  1  0.10405850  0.64796628  0.58392425  1
  O  O232  1  0.43907815  0.14504238  0.08901645  1
  O  O233  1  0.44410468  0.11670833  0.56979249  1
  O  O234  1  0.43960773  0.64364126  0.08744519  1
  O  O235  1  0.43802214  0.62097453  0.57976082  1
  O  O236  1  0.77061251  0.12338431  0.08787377  1
  O  O237  1  0.77116400  0.12856424  0.58384172  1
  O  O238  1  0.76440994  0.63996633  0.07722221  1
  O  O239  1  0.77062788  0.62590996  0.58330568  1
  O  O240  1  0.06198339  0.12076113  0.41493791  1
  O  O241  1  0.04328359  0.09694562  0.91764542  1
  O  O242  1  0.06520175  0.63367517  0.41622286  1
  O  O243  1  0.06104772  0.61907621  0.91641793  1
  O  O244  1  0.39297817  0.09884983  0.41175917  1
  O  O245  1  0.40115347  0.13849970  0.91468692  1
  O  O246  1  0.39898853  0.62379896  0.41344259  1
  O  O247  1  0.38568912  0.59856713  0.91120678  1
  O  O248  1  0.72869466  0.12504510  0.41406154  1
  O  O249  1  0.72652052  0.12584677  0.91282697  1
  O  O250  1  0.73064355  0.61938135  0.41315797  1
  O  O251  1  0.70946325  0.60573882  0.91939257  1
  O  O252  1  0.21162824  0.34540946  0.42541332  1
  O  O253  1  0.23286432  0.37854640  0.91612072  1
  O  O254  1  0.23180755  0.87245515  0.41395901  1
  O  O255  1  0.19904678  0.84399394  0.91724367  1
  O  O256  1  0.55734245  0.37025156  0.41365773  1
  O  O257  1  0.54894471  0.35976307  0.91012291  1
  O  O258  1  0.56444720  0.86447718  0.41327457  1
  O  O259  1  0.54779072  0.86363447  0.93311934  1
  O  O260  1  0.87362253  0.35773424  0.41164136  1
  O  O261  1  0.88898335  0.34718797  0.93198707  1
  O  O262  1  0.89848582  0.87881089  0.41348956  1
  O  O263  1  0.89775887  0.85258197  0.92287897  1
  O  O264  1  0.03323420  0.38517834  0.42314046  1
  O  O265  1  0.07361448  0.38772626  0.92954664  1
  O  O266  1  0.06543137  0.87182345  0.41527415  1
  O  O267  1  0.04791227  0.89460944  0.91215304  1
  O  O268  1  0.39622204  0.39571558  0.42091214  1
  O  O269  1  0.39191784  0.38673323  0.91091045  1
  O  O270  1  0.39907232  0.88034476  0.41403685  1
  O  O271  1  0.37157222  0.89702924  0.92652294  1
  O  O272  1  0.71731132  0.38419792  0.41211078  1
  O  O273  1  0.70857021  0.38986670  0.92222486  1
  O  O274  1  0.73236733  0.87531079  0.41527761  1
  O  O275  1  0.72378628  0.88593208  0.93424145  1
  O  O276  1  0.23070291  0.11992980  0.41528143  1
  O  O277  1  0.23794686  0.14034662  0.92495123  1
  O  O278  1  0.23032863  0.63885605  0.41479741  1
  O  O279  1  0.22610192  0.62864794  0.91631692  1
  O  O280  1  0.56172586  0.12764574  0.41309934  1
  O  O281  1  0.56364963  0.14019130  0.91572377  1
  O  O282  1  0.56417111  0.63369212  0.41284758  1
  O  O283  1  0.54764096  0.63059010  0.91399949  1
  O  O284  1  0.89577050  0.12305679  0.41558462  1
  O  O285  1  0.88827709  0.14745622  0.91646708  1
  O  O286  1  0.89672694  0.62387218  0.41284063  1
  O  O287  1  0.90019423  0.65461776  0.92201762  1
  O  O288  1  0.17911178  -0.00085758  0.08889040  1
  O  O289  1  0.16554315  0.00612198  0.57422804  1
  O  O290  1  0.17277476  0.50050691  0.08716501  1
  O  O291  1  0.16588474  0.52055183  0.57641111  1
  O  O292  1  0.49033080  0.01163406  0.08114590  1
  O  O293  1  0.53265166  -0.00283417  0.58233833  1
  O  O294  1  0.50086235  0.51260047  0.07631890  1
  O  O295  1  0.53865497  0.50551399  0.58345043  1
  O  O296  1  0.85160070  -0.00150576  0.08751340  1
  O  O297  1  0.84415096  0.00115600  0.58590509  1
  O  O298  1  0.83361772  0.48565981  0.08197021  1
  O  O299  1  0.84469249  0.49951802  0.58357180  1
  O  O300  1  0.01802989  0.24771508  0.08934738  1
  O  O301  1  -0.00213431  0.24869500  0.58473777  1
  O  O302  1  0.02012774  0.75126252  0.08770533  1
  O  O303  1  -0.01163422  0.74884004  0.58556214  1
  O  O304  1  0.32599253  0.24919729  0.08889020  1
  O  O305  1  0.35180904  0.25301213  0.56632766  1
  O  O306  1  0.32270589  0.74601466  0.09132218  1
  O  O307  1  0.36728594  0.74713012  0.57841334  1
  O  O308  1  0.68047837  0.24374269  0.08600761  1
  O  O309  1  0.68530839  0.25071262  0.58164429  1
  O  O310  1  0.67355107  0.75655767  0.08675317  1
  O  O311  1  0.69260660  0.75049548  0.58093679  1
  O  O312  1  0.14589288  -0.00300043  0.41486226  1
  O  O313  1  0.17485100  -0.01394815  0.92171278  1
  O  O314  1  0.15753186  0.51301168  0.42464388  1
  O  O315  1  0.15691275  0.50358010  0.91060816  1
  O  O316  1  0.50264643  -0.00494827  0.41260739  1
  O  O317  1  0.48782915  0.01756992  0.92477859  1
  O  O318  1  0.49842453  0.50480592  0.41325830  1
  O  O319  1  0.49614138  0.49607306  0.91102538  1
  O  O320  1  0.81123916  0.00055386  0.41638686  1
  O  O321  1  0.83245633  0.01453445  0.92722329  1
  O  O322  1  0.81751680  0.49725757  0.41149572  1
  O  O323  1  0.85192405  0.50119314  0.93100599  1
  O  O324  1  0.34305669  0.23170266  0.42026246  1
  O  O325  1  0.32080237  0.25906328  0.91434078  1
  O  O326  1  0.32691011  0.75285393  0.41411458  1
  O  O327  1  0.33818708  0.73167171  0.92568331  1
  O  O328  1  0.65002283  0.25077587  0.41302584  1
  O  O329  1  0.65831625  0.25441065  0.91501902  1
  O  O330  1  0.66046986  0.74815890  0.41355700  1
  O  O331  1  0.65406032  0.73801928  0.92504741  1
  O  O332  1  0.97641957  0.24649159  0.41588162  1
  O  O333  1  1.01905605  0.23594830  0.92175656  1
  O  O334  1  0.97166364  0.75147885  0.41524697  1
  O  O335  1  1.01455724  0.75367116  0.90973427  1
  O  O336  1  0.20963443  0.08024432  0.19810204  1
  O  O337  1  0.20569490  0.08553258  0.68889277  1
  O  O338  1  0.21183258  0.58317240  0.19870075  1
  O  O339  1  0.21374169  0.59631018  0.68962397  1
  O  O340  1  0.54160022  0.08616046  0.19442351  1
  O  O341  1  0.53642166  0.08386136  0.69048121  1
  O  O342  1  0.54186199  0.58538746  0.19237264  1
  O  O343  1  0.54258628  0.58552057  0.69316002  1
  O  O344  1  0.87685378  0.08196354  0.19682952  1
  O  O345  1  0.87447803  0.08353322  0.69623688  1
  O  O346  1  0.87902966  0.58369050  0.20052138  1
  O  O347  1  0.87646138  0.58442149  0.69366788  1
  O  O348  1  0.03937948  0.32904594  0.19890407  1
  O  O349  1  0.04041978  0.33362680  0.69190984  1
  O  O350  1  0.04677225  0.83367709  0.19680906  1
  O  O351  1  0.03495309  0.83351373  0.69198448  1
  O  O352  1  0.37559562  0.33410115  0.19328354  1
  O  O353  1  0.38262819  0.33762500  0.69659302  1
  O  O354  1  0.37546934  0.83176851  0.19534906  1
  O  O355  1  0.38761138  0.82861258  0.68766175  1
  O  O356  1  0.70886075  0.32994600  0.19381049  1
  O  O357  1  0.71236102  0.33181078  0.69378225  1
  O  O358  1  0.71125585  0.83528322  0.19509096  1
  O  O359  1  0.71224787  0.83028358  0.69367033  1
  O  O360  1  0.21357618  0.42376910  0.19712038  1
  O  O361  1  0.21384099  0.41090884  0.69424557  1
  O  O362  1  0.21107936  0.91567171  0.19711729  1
  O  O363  1  0.19579417  0.91758685  0.69648802  1
  O  O364  1  0.54286283  0.41647742  0.19837069  1
  O  O365  1  0.54847874  0.41808077  0.69101745  1
  O  O366  1  0.54579314  0.91687010  0.20021865  1
  O  O367  1  0.54621118  0.91592676  0.69164066  1
  O  O368  1  0.87803676  0.41273358  0.19623654  1
  O  O369  1  0.87594077  0.41729689  0.69412202  1
  O  O370  1  0.88275007  0.91985005  0.19687727  1
  O  O371  1  0.87653282  0.91612049  0.69514655  1
  O  O372  1  0.04249614  0.16305004  0.19772296  1
  O  O373  1  0.03654329  0.16751117  0.69495373  1
  O  O374  1  0.04689154  0.66757399  0.19569659  1
  O  O375  1  0.03691970  0.66643983  0.69403354  1
  O  O376  1  0.37454080  0.16546819  0.19778259  1
  O  O377  1  0.37957037  0.16840157  0.69932364  1
  O  O378  1  0.37663777  0.66568531  0.19771559  1
  O  O379  1  0.38167087  0.66293769  0.69057936  1
  O  O380  1  0.70959454  0.16387521  0.19576740  1
  O  O381  1  0.71696995  0.17399086  0.69391971  1
  O  O382  1  0.70914841  0.66755712  0.19222396  1
  O  O383  1  0.71405811  0.67192142  0.69386709  1
  O  O384  1  0.12247062  0.07996078  0.30667343  1
  O  O385  1  0.12209074  0.08446657  0.79740536  1
  O  O386  1  0.12415076  0.58753624  0.30833620  1
  O  O387  1  0.11841886  0.59268527  0.80428953  1
  O  O388  1  0.46046090  0.08024132  0.30385335  1
  O  O389  1  0.46006229  0.08796137  0.80694784  1
  O  O390  1  0.45915185  0.58602855  0.30424420  1
  O  O391  1  0.45668475  0.58148189  0.80165891  1
  O  O392  1  0.78910997  0.08306195  0.30584973  1
  O  O393  1  0.80040417  0.08415809  0.80930178  1
  O  O394  1  0.78819844  0.58217124  0.30302630  1
  O  O395  1  0.79235530  0.58320108  0.80028132  1
  O  O396  1  0.29174760  0.33107727  0.30094329  1
  O  O397  1  0.28692797  0.33812726  0.80305990  1
  O  O398  1  0.29229794  0.83405868  0.30551327  1
  O  O399  1  0.28349022  0.82136210  0.80101552  1
  O  O400  1  0.62096990  0.33162370  0.30351816  1
  O  O401  1  0.62461154  0.33594748  0.80396848  1
  O  O402  1  0.62699551  0.83170038  0.30462247  1
  O  O403  1  0.62287381  0.83077603  0.79921010  1
  O  O404  1  0.95057628  0.32959596  0.30731681  1
  O  O405  1  0.95576787  0.33330490  0.80028470  1
  O  O406  1  0.96121122  0.83299746  0.30580615  1
  O  O407  1  0.95469441  0.83398311  0.80493363  1
  O  O408  1  0.11823725  0.41910007  0.30335483  1
  O  O409  1  0.11774783  0.40949760  0.80801095  1
  O  O410  1  0.12466545  0.91479492  0.30630747  1
  O  O411  1  0.12062072  0.91523142  0.80623906  1
  O  O412  1  0.45670842  0.41927720  0.30589370  1
  O  O413  1  0.45875170  0.41818468  0.80042438  1
  O  O414  1  0.45786758  0.91397722  0.30450472  1
  O  O415  1  0.46509489  0.91820769  0.80151323  1
  O  O416  1  0.78431563  0.41567847  0.30181847  1
  O  O417  1  0.78961076  0.41596888  0.80094612  1
  O  O418  1  0.78744397  0.92064197  0.30556789  1
  O  O419  1  0.78812749  0.91674509  0.80169113  1
  O  O420  1  0.29099700  0.15915717  0.30731894  1
  O  O421  1  0.28619328  0.16890989  0.80629238  1
  O  O422  1  0.29305497  0.66853180  0.30566126  1
  O  O423  1  0.28847933  0.66030031  0.80619467  1
  O  O424  1  0.62268808  0.16647169  0.30437078  1
  O  O425  1  0.62109956  0.17517582  0.80417389  1
  O  O426  1  0.62564732  0.66605993  0.30306361  1
  O  O427  1  0.61997352  0.66660843  0.80803893  1
  O  O428  1  0.95470476  0.16310869  0.30668297  1
  O  O429  1  0.95816188  0.16564577  0.80774357  1
  O  O430  1  0.95773188  0.66832773  0.30579521  1
  O  O431  1  0.95736014  0.66739137  0.80589856  1
  F  F432  1  0.04626209  -0.00158494  0.20459017  1
  F  F433  1  0.03843764  -0.00024715  0.69983270  1
  F  F434  1  0.04570842  0.50229222  0.20349824  1
  F  F435  1  0.03081954  0.50007711  0.69773129  1
  F  F436  1  0.37768886  -0.00065777  0.20323978  1
  F  F437  1  0.38143220  0.01181603  0.69729748  1
  F  F438  1  0.37798635  0.50093895  0.20425238  1
  F  F439  1  0.38131767  0.50201557  0.69581516  1
  F  F440  1  0.71383450  0.00263963  0.20217194  1
  F  F441  1  0.71624823  -0.00919654  0.69489201  1
  F  F442  1  0.71113197  0.49931373  0.19945585  1
  F  F443  1  0.71523719  0.49359674  0.69363471  1
  F  F444  1  0.21235437  0.23823967  0.20064532  1
  F  F445  1  0.20174302  0.24903757  0.69645165  1
  F  F446  1  0.21312939  0.74996547  0.20468669  1
  F  F447  1  0.19604850  0.75075541  0.69245348  1
  F  F448  1  0.54415969  0.24887624  0.20114018  1
  F  F449  1  0.54918467  0.25224528  0.69756651  1
  F  F450  1  0.54754977  0.74915461  0.20271199  1
  F  F451  1  0.54857535  0.74606265  0.69791902  1
  F  F452  1  0.87882611  0.24586254  0.20443975  1
  F  F453  1  0.87790093  0.24803225  0.70257199  1
  F  F454  1  0.88253382  0.74811170  0.20081163  1
  F  F455  1  0.87631397  0.75017494  0.70338155  1
  F  F456  1  0.28950837  -0.00360736  0.29937090  1
  F  F457  1  0.28431747  0.01337716  0.79893382  1
  F  F458  1  0.29061750  0.50355764  0.30207425  1
  F  F459  1  0.30246585  0.50085505  0.79681277  1
  F  F460  1  0.62324526  0.00208591  0.29881909  1
  F  F461  1  0.61748316  -0.00712546  0.80021860  1
  F  F462  1  0.62268742  0.50287812  0.29589233  1
  F  F463  1  0.61907429  0.49750102  0.79560528  1
  F  F464  1  0.95566727  -0.00025837  0.30103942  1
  F  F465  1  0.95323272  -0.00102802  0.79645426  1
  F  F466  1  0.95274998  0.49848966  0.29917376  1
  F  F467  1  0.95424944  0.50055647  0.79807586  1
  F  F468  1  0.11717843  0.23939470  0.30382159  1
  F  F469  1  0.12137215  0.25057746  0.79586637  1
  F  F470  1  0.12261025  0.75073290  0.29929712  1
  F  F471  1  0.11699052  0.75054742  0.79408223  1
  F  F472  1  0.45551905  0.24961938  0.29620448  1
  F  F473  1  0.46628570  0.25336238  0.80029033  1
  F  F474  1  0.45744073  0.75067318  0.29777808  1
  F  F475  1  0.46000697  0.74828018  0.79686221  1
  F  F476  1  0.78493146  0.24780344  0.29760052  1
  F  F477  1  0.78808315  0.25067746  0.79930106  1
  F  F478  1  0.78729535  0.74374253  0.29937113  1
  F  F479  1  0.78795620  0.74961241  0.79960881  1
