# generated using pymatgen
data_K24Na3Li5Mg64Fe17Si79(O5F)48
_symmetry_space_group_name_H-M   'P 1'
_cell_length_a   16.11014731
_cell_length_b   18.62070774
_cell_length_c   20.59449695
_cell_angle_alpha   90.00774477
_cell_angle_beta   100.04392782
_cell_angle_gamma   89.96384008
_symmetry_Int_Tables_number   1
_chemical_formula_structural   K24Na3Li5Mg64Fe17Si79(O5F)48
_chemical_formula_sum   'K24 Na3 Li5 Mg64 Fe17 Si79 O240 F48'
_cell_volume   6083.30250574
_cell_formula_units_Z   1
loop_
 _symmetry_equiv_pos_site_id
 _symmetry_equiv_pos_as_xyz
  1  'x, y, z'
loop_
 _atom_site_type_symbol
 _atom_site_label
 _atom_site_symmetry_multiplicity
 _atom_site_fract_x
 _atom_site_fract_y
 _atom_site_fract_z
 _atom_site_occupancy
  K  K0  1  -0.00752560  0.00679934  -0.01172043  1
  K  K1  1  0.00184271  0.00471987  0.51289110  1
  K  K2  1  -0.00242575  0.49799192  -0.01235541  1
  K  K3  1  0.00467827  0.50675283  0.51095599  1
  K  K4  1  0.33186994  -0.00258226  -0.00006184  1
  K  K5  1  0.32728924  -0.00162828  0.50945854  1
  K  K6  1  0.32963705  0.50041205  -0.00774777  1
  K  K7  1  0.33067045  0.51070929  0.50833165  1
  K  K8  1  0.66993884  0.00231916  -0.01809712  1
  K  K9  1  0.67166989  -0.00851948  0.51610745  1
  K  K10  1  0.66514643  0.49654299  -0.00989521  1
  K  K11  1  0.67033355  0.49499147  0.51107271  1
  K  K12  1  0.14739486  0.24076118  -0.01542300  1
  K  K13  1  0.17375301  0.24746811  0.51216490  1
  K  K14  1  0.15442818  0.75812622  0.00375237  1
  K  K15  1  0.17229478  0.74960702  0.50347895  1
  K  K16  1  0.49919684  0.24575086  -0.01839285  1
  K  K17  1  0.50779483  0.24828783  0.51669619  1
  K  K18  1  0.49226583  0.76528879  -0.00620486  1
  K  K19  1  0.49159401  0.76468585  0.50865815  1
  K  K20  1  0.83512149  0.23263849  -0.01402667  1
  K  K21  1  0.83077609  0.24008072  0.51448974  1
  K  K22  1  0.84122662  0.74962156  -0.00409201  1
  K  K23  1  0.83783655  0.75689153  0.51048900  1
  Na  Na24  1  0.33305632  0.75114628  0.25524748  1
  Na  Na25  1  0.66912929  0.42002620  0.24749023  1
  Na  Na26  1  -0.00035639  0.58121181  0.75339413  1
  Li  Li27  1  0.33950673  0.24936495  0.74897163  1
  Li  Li28  1  0.82819812  -0.00243754  0.74840256  1
  Li  Li29  1  0.67177250  0.07842426  0.74469966  1
  Li  Li30  1  0.49608170  0.32585004  0.74716861  1
  Li  Li31  1  0.83336534  0.84586658  0.75219048  1
  Mg  Mg32  1  0.83326520  0.50061834  0.25053338  1
  Mg  Mg33  1  0.66913072  0.25171629  0.24833154  1
  Mg  Mg34  1  0.49986595  0.49631852  0.74524897  1
  Mg  Mg35  1  0.16753542  0.50174882  0.25376443  1
  Mg  Mg36  1  0.50170139  0.00293061  0.75104550  1
  Mg  Mg37  1  0.66870292  0.75245631  0.75124379  1
  Mg  Mg38  1  -0.00308486  0.75084472  0.75201708  1
  Mg  Mg39  1  0.33544361  0.25025836  0.24728660  1
  Mg  Mg40  1  0.66447133  0.74994792  0.25218610  1
  Mg  Mg41  1  0.16318910  0.00244012  0.74895405  1
  Mg  Mg42  1  0.83340416  -0.00157214  0.25087002  1
  Mg  Mg43  1  0.66606115  0.24653921  0.74677283  1
  Mg  Mg44  1  0.83197370  0.49916170  0.74964217  1
  Mg  Mg45  1  0.33289111  0.75058375  0.75054301  1
  Mg  Mg46  1  0.00179351  0.24933056  0.24717654  1
  Mg  Mg47  1  0.16791035  0.49831827  0.74939136  1
  Mg  Mg48  1  -0.00027224  0.75096903  0.25597612  1
  Mg  Mg49  1  0.50120264  0.50039275  0.24917603  1
  Mg  Mg50  1  0.49959064  -0.00101199  0.25253997  1
  Mg  Mg51  1  -0.00084073  0.24740695  0.74810596  1
  Mg  Mg52  1  0.16907206  -0.00148230  0.24908322  1
  Mg  Mg53  1  -0.00458108  0.91754228  0.75145795  1
  Mg  Mg54  1  0.33393443  0.58528713  0.25323672  1
  Mg  Mg55  1  0.83515275  0.16482062  0.24723673  1
  Mg  Mg56  1  0.33353853  0.58404406  0.74933099  1
  Mg  Mg57  1  0.49815724  0.83628238  0.74913576  1
  Mg  Mg58  1  0.16682680  0.16628480  0.74852547  1
  Mg  Mg59  1  0.33522292  0.08479881  0.24706664  1
  Mg  Mg60  1  0.16531777  0.83491219  0.75181064  1
  Mg  Mg61  1  0.16869117  0.83549975  0.25194244  1
  Mg  Mg62  1  0.33523743  0.41621633  0.24901026  1
  Mg  Mg63  1  0.00308625  0.58434399  0.25699145  1
  Mg  Mg64  1  0.16640950  0.66540744  0.75221699  1
  Mg  Mg65  1  0.32944898  0.91734745  0.75019232  1
  Mg  Mg66  1  0.16863838  0.66653287  0.25772969  1
  Mg  Mg67  1  0.16607446  0.16615878  0.24393541  1
  Mg  Mg68  1  0.83434126  0.33409784  0.24952619  1
  Mg  Mg69  1  0.83441593  0.83349469  0.25448439  1
  Mg  Mg70  1  0.66798303  0.08433140  0.24951138  1
  Mg  Mg71  1  0.16732097  0.33515553  0.24819314  1
  Mg  Mg72  1  0.00088423  0.91457459  0.25402102  1
  Mg  Mg73  1  0.66217223  0.41183464  0.74551138  1
  Mg  Mg74  1  0.33291797  0.91471895  0.25065656  1
  Mg  Mg75  1  0.50348484  0.33514846  0.24802691  1
  Mg  Mg76  1  0.83209355  0.16084730  0.74506787  1
  Mg  Mg77  1  0.49993222  0.17059894  0.74924411  1
  Mg  Mg78  1  0.83373513  0.66960970  0.75209950  1
  Mg  Mg79  1  -0.00090680  0.41571944  0.74905979  1
  Mg  Mg80  1  0.00179792  0.08440607  0.24602999  1
  Mg  Mg81  1  0.16907003  0.33089972  0.74839993  1
  Mg  Mg82  1  0.33700299  0.41257126  0.74866275  1
  Mg  Mg83  1  0.00148856  0.41591123  0.25164360  1
  Mg  Mg84  1  0.66532215  0.58384623  0.74710175  1
  Mg  Mg85  1  0.49802462  0.66631772  0.74811127  1
  Mg  Mg86  1  0.66685959  0.58306451  0.24988784  1
  Mg  Mg87  1  0.50323292  0.16691947  0.24986980  1
  Mg  Mg88  1  0.66582430  0.91523396  0.25336028  1
  Mg  Mg89  1  0.83101311  0.33212136  0.74800048  1
  Mg  Mg90  1  0.83450958  0.66603388  0.25500547  1
  Mg  Mg91  1  0.49691639  0.83463704  0.25320653  1
  Mg  Mg92  1  0.67110744  0.91960683  0.75214870  1
  Mg  Mg93  1  0.33064071  0.08810350  0.74823207  1
  Mg  Mg94  1  0.49972205  0.66606455  0.24983733  1
  Mg  Mg95  1  -0.00193079  0.08423588  0.74730076  1
  Fe  Fe96  1  0.14318848  0.57871584  0.39488948  1
  Fe  Fe97  1  0.02441321  0.17126493  0.10696658  1
  Fe  Fe98  1  0.35866841  0.66811161  0.61072373  1
  Fe  Fe99  1  0.97266078  0.83673704  0.39416284  1
  Fe  Fe100  1  0.69337136  0.32962436  0.60660329  1
  Fe  Fe101  1  0.01778571  0.17232227  0.60492362  1
  Fe  Fe102  1  0.30753421  0.82758714  0.89015004  1
  Fe  Fe103  1  0.80173407  0.07537117  0.88439533  1
  Fe  Fe104  1  0.19153233  0.91703415  0.10802684  1
  Fe  Fe105  1  0.69104254  0.83434794  0.61338828  1
  Fe  Fe106  1  0.96910005  0.82934852  0.89202567  1
  Fe  Fe107  1  0.13867116  0.91411651  0.89022016  1
  Fe  Fe108  1  0.15090258  0.08450582  0.89090050  1
  Fe  Fe109  1  0.30334891  0.83737407  0.39535523  1
  Fe  Fe110  1  0.18974118  0.08625441  0.60641262  1
  Fe  Fe111  1  0.97319207  0.16561120  0.88825566  1
  Fe  Fe112  1  0.47428330  0.92067932  0.39330808  1
  Si  Si113  1  0.02328970  0.66371985  0.11941759  1
  Si  Si114  1  0.86479462  0.91341655  0.61336027  1
  Si  Si115  1  0.64490100  0.17268756  0.38392463  1
  Si  Si116  1  0.35860750  0.33477085  0.11190750  1
  Si  Si117  1  0.02289236  0.34032298  0.61337336  1
  Si  Si118  1  0.86115704  0.42303204  0.61229994  1
  Si  Si119  1  0.97302613  0.33920891  0.88510895  1
  Si  Si120  1  0.85503195  0.42114091  0.11455830  1
  Si  Si121  1  0.31350453  0.66319012  0.39205012  1
  Si  Si122  1  0.52933134  0.91817127  0.11531700  1
  Si  Si123  1  0.13479538  0.92381543  0.38995203  1
  Si  Si124  1  0.80551479  0.58202208  0.38679628  1
  Si  Si125  1  0.69097518  0.15979120  0.60997455  1
  Si  Si126  1  0.69009241  0.66472394  0.61308707  1
  Si  Si127  1  0.69158891  0.83245658  0.11705748  1
  Si  Si128  1  0.63837478  0.66658099  0.88450849  1
  Si  Si129  1  0.35636826  0.83802990  0.61385241  1
  Si  Si130  1  0.63787506  0.16933848  0.88511918  1
  Si  Si131  1  0.63087769  0.83169690  0.88595597  1
  Si  Si132  1  0.18830534  0.91629691  0.61267785  1
  Si  Si133  1  0.80471905  0.58347677  0.88519996  1
  Si  Si134  1  0.14642122  0.40766420  0.38805818  1
  Si  Si135  1  0.19399779  0.58652653  0.11665961  1
  Si  Si136  1  0.31198005  0.17261622  0.88624394  1
  Si  Si137  1  0.02511350  0.66685586  0.61797350  1
  Si  Si138  1  0.81467837  0.41720450  0.38502542  1
  Si  Si139  1  0.97427791  0.16350698  0.38284507  1
  Si  Si140  1  0.47751360  0.41644976  0.88281584  1
  Si  Si141  1  0.18798570  0.58075837  0.61430406  1
  Si  Si142  1  0.19228657  0.41492520  0.61507680  1
  Si  Si143  1  0.19750761  0.08981515  0.11012693  1
  Si  Si144  1  0.52338830  0.08602537  0.61747291  1
  Si  Si145  1  0.97566390  0.32915037  0.38502189  1
  Si  Si146  1  0.35824634  0.33556326  0.61452856  1
  Si  Si147  1  0.85701629  0.07771994  0.11241713  1
  Si  Si148  1  0.85637652  0.58532624  0.11788042  1
  Si  Si149  1  0.52474911  0.41526924  0.11207537  1
  Si  Si150  1  0.97648587  0.66135528  0.89052335  1
  Si  Si151  1  0.36217992  0.16969209  0.61213321  1
  Si  Si152  1  0.52810159  0.58165032  0.61163676  1
  Si  Si153  1  0.79789027  0.91660374  0.38842120  1
  Si  Si154  1  0.14610571  0.08718449  0.38212867  1
  Si  Si155  1  0.69459516  0.16599526  0.11265827  1
  Si  Si156  1  0.31452463  0.33090751  0.38302326  1
  Si  Si157  1  0.52629167  0.58063413  0.11236942  1
  Si  Si158  1  0.14661422  0.57959956  0.88667992  1
  Si  Si159  1  0.02886366  0.82943057  0.61513226  1
  Si  Si160  1  0.02199719  0.82936465  0.11671326  1
  Si  Si161  1  0.64153137  0.66364065  0.38441149  1
  Si  Si162  1  0.31196144  0.33650114  0.88400510  1
  Si  Si163  1  0.52144404  0.92234705  0.61529615  1
  Si  Si164  1  0.69031587  0.66763793  0.11643723  1
  Si  Si165  1  0.31286983  0.16699890  0.38178927  1
  Si  Si166  1  0.31322837  0.65932607  0.88950678  1
  Si  Si167  1  0.69395998  0.33064144  0.11271052  1
  Si  Si168  1  0.63664254  0.82805619  0.38640184  1
  Si  Si169  1  0.52180349  0.41729809  0.60975012  1
  Si  Si170  1  0.97175721  0.66362208  0.39278056  1
  Si  Si171  1  0.85699578  0.07884199  0.60808262  1
  Si  Si172  1  0.47946230  0.41569819  0.38402536  1
  Si  Si173  1  0.19297822  0.42024365  0.11433567  1
  Si  Si174  1  0.36545515  0.16859866  0.11312235  1
  Si  Si175  1  0.47698744  0.58091677  0.38536860  1
  Si  Si176  1  0.85583665  0.58734680  0.61749747  1
  Si  Si177  1  0.79863593  0.90883876  0.89268496  1
  Si  Si178  1  0.64160890  0.33237302  0.88318488  1
  Si  Si179  1  0.85597041  0.91276842  0.11682082  1
  Si  Si180  1  0.80653202  0.08292443  0.38410934  1
  Si  Si181  1  0.80409682  0.41869223  0.88405874  1
  Si  Si182  1  0.36296934  0.66414991  0.11487976  1
  Si  Si183  1  0.64598447  0.33485533  0.38282219  1
  Si  Si184  1  0.36654371  0.83236374  0.11231264  1
  Si  Si185  1  0.47786874  0.57783573  0.88437581  1
  Si  Si186  1  0.52939520  0.08425097  0.11457764  1
  Si  Si187  1  0.48242508  0.08910901  0.38605710  1
  Si  Si188  1  0.47331649  0.08675947  0.88358415  1
  Si  Si189  1  0.02141641  0.34288348  0.11157633  1
  Si  Si190  1  0.14488283  0.41478070  0.88519424  1
  Si  Si191  1  0.47045481  0.92145020  0.88686301  1
  O  O192  1  0.28623462  0.11771670  0.08547215  1
  O  O193  1  0.28421227  0.12364471  0.57289902  1
  O  O194  1  0.26961643  0.62731715  0.08600511  1
  O  O195  1  0.26155896  0.61301298  0.57911730  1
  O  O196  1  0.60770314  0.12114389  0.08482340  1
  O  O197  1  0.60378405  0.11324428  0.58486711  1
  O  O198  1  0.60537259  0.62077515  0.08529288  1
  O  O199  1  0.61740645  0.60289218  0.58742601  1
  O  O200  1  0.93361691  0.10748287  0.08005239  1
  O  O201  1  0.91996333  0.12041469  0.56690055  1
  O  O202  1  0.93835470  0.61545654  0.08852442  1
  O  O203  1  0.93781803  0.62151616  0.59040747  1
  O  O204  1  0.10241419  0.38232579  0.08493372  1
  O  O205  1  0.10830249  0.36804193  0.58541785  1
  O  O206  1  0.09563886  0.85900424  0.08117393  1
  O  O207  1  0.11165473  0.85807897  0.58590004  1
  O  O208  1  0.43480625  0.37497265  0.08069070  1
  O  O209  1  0.43240414  0.37479161  0.58108569  1
  O  O210  1  0.44820581  0.86945899  0.08362746  1
  O  O211  1  0.43548127  0.87613008  0.58671226  1
  O  O212  1  0.77011290  0.37360371  0.08388960  1
  O  O213  1  0.78496215  0.37408695  0.57391105  1
  O  O214  1  0.77241738  0.86347173  0.08798184  1
  O  O215  1  0.78350838  0.86778531  0.57676550  1
  O  O216  1  0.27014665  0.37894518  0.08511593  1
  O  O217  1  0.27005280  0.37991366  0.58306677  1
  O  O218  1  0.28263052  0.87185981  0.07596004  1
  O  O219  1  0.27331672  0.88735358  0.58640113  1
  O  O220  1  0.60386936  0.37358420  0.08614068  1
  O  O221  1  0.59379246  0.38252205  0.57290534  1
  O  O222  1  0.60982242  0.88233449  0.08676130  1
  O  O223  1  0.59576163  0.89204173  0.57944188  1
  O  O224  1  0.93932053  0.39675070  0.08589457  1
  O  O225  1  0.95132985  0.40324384  0.58885219  1
  O  O226  1  0.93359140  0.87417113  0.08918769  1
  O  O227  1  0.94729104  0.87856936  0.58381572  1
  O  O228  1  0.12866619  0.15128318  0.08361501  1
  O  O229  1  0.10230890  0.14120550  0.56144299  1
  O  O230  1  0.10296289  0.62678523  0.08971661  1
  O  O231  1  0.09864380  0.62352758  0.58655299  1
  O  O232  1  0.44718484  0.13429213  0.08548252  1
  O  O233  1  0.44716003  0.14086865  0.58420566  1
  O  O234  1  0.43547959  0.61863186  0.08212994  1
  O  O235  1  0.45337254  0.63398489  0.57710076  1
  O  O236  1  0.77096192  0.12596861  0.08463179  1
  O  O237  1  0.76189803  0.11250609  0.57958209  1
  O  O238  1  0.77215249  0.63396684  0.08820156  1
  O  O239  1  0.77389011  0.63512608  0.58388012  1
  O  O240  1  0.06376963  0.12228516  0.40882827  1
  O  O241  1  0.06626710  0.11897354  0.93318229  1
  O  O242  1  0.04143773  0.60380139  0.42225183  1
  O  O243  1  0.06231185  0.60931676  0.91353689  1
  O  O244  1  0.39632611  0.11931804  0.41142500  1
  O  O245  1  0.39680226  0.12311474  0.91591477  1
  O  O246  1  0.39628179  0.60776986  0.41594442  1
  O  O247  1  0.39463959  0.60371046  0.91414481  1
  O  O248  1  0.72934650  0.12467234  0.41199548  1
  O  O249  1  0.71664943  0.12423949  0.92286479  1
  O  O250  1  0.72036801  0.60928021  0.41334374  1
  O  O251  1  0.72959922  0.62735410  0.91524103  1
  O  O252  1  0.23122726  0.35696678  0.41183031  1
  O  O253  1  0.23174617  0.36974466  0.91670941  1
  O  O254  1  0.20246943  0.86552482  0.42508178  1
  O  O255  1  0.20990879  0.83989015  0.92271352  1
  O  O256  1  0.56549931  0.36941615  0.41211021  1
  O  O257  1  0.56359164  0.37131925  0.91403913  1
  O  O258  1  0.55635389  0.84734785  0.41887697  1
  O  O259  1  0.55353130  0.87017641  0.91606647  1
  O  O260  1  0.90009356  0.37078228  0.41535028  1
  O  O261  1  0.89828831  0.38676061  0.91360390  1
  O  O262  1  0.87367143  0.86695913  0.42383856  1
  O  O263  1  0.87265714  0.85425245  0.92596296  1
  O  O264  1  0.06691862  0.36606025  0.41366403  1
  O  O265  1  0.06287841  0.38362050  0.91384686  1
  O  O266  1  0.04688232  0.91347855  0.41785147  1
  O  O267  1  0.04723659  0.89649992  0.93013943  1
  O  O268  1  0.39847668  0.37999081  0.41158359  1
  O  O269  1  0.39657458  0.38570667  0.91445899  1
  O  O270  1  0.38400134  0.90342240  0.43377856  1
  O  O271  1  0.39598253  0.89327216  0.92365932  1
  O  O272  1  0.73060768  0.38343182  0.40967487  1
  O  O273  1  0.72999068  0.37604487  0.91550950  1
  O  O274  1  0.71192111  0.88670307  0.41241401  1
  O  O275  1  0.71435727  0.87420552  0.92080335  1
  O  O276  1  0.22888286  0.13868299  0.40929590  1
  O  O277  1  0.23872965  0.14973599  0.92580678  1
  O  O278  1  0.23790818  0.63395325  0.42860055  1
  O  O279  1  0.23326346  0.62277700  0.92017650  1
  O  O280  1  0.55914943  0.14870939  0.41049456  1
  O  O281  1  0.55493299  0.13662516  0.91403933  1
  O  O282  1  0.56017963  0.63079331  0.41292019  1
  O  O283  1  0.56375688  0.62366681  0.91545012  1
  O  O284  1  0.89680064  0.12326855  0.41121394  1
  O  O285  1  0.89287629  0.12583567  0.92951964  1
  O  O286  1  0.88185570  0.63627781  0.41629296  1
  O  O287  1  0.89780416  0.61562938  0.91746391  1
  O  O288  1  0.17435530  0.01214412  0.07770478  1
  O  O289  1  0.16393672  -0.00860738  0.57523036  1
  O  O290  1  0.18909603  0.50352381  0.08620479  1
  O  O291  1  0.17305793  0.49696695  0.58696014  1
  O  O292  1  0.51656225  0.00149863  0.08650284  1
  O  O293  1  0.49851462  0.00512860  0.58834064  1
  O  O294  1  0.52232830  0.49785300  0.08212180  1
  O  O295  1  0.50493587  0.50049619  0.58166601  1
  O  O296  1  0.83546192  -0.00589194  0.08802764  1
  O  O297  1  0.85331539  -0.00488959  0.58089412  1
  O  O298  1  0.83408479  0.50396841  0.08800359  1
  O  O299  1  0.84210925  0.50639651  0.58482740  1
  O  O300  1  -0.00128467  0.26680416  0.07712280  1
  O  O301  1  -0.00939756  0.26813845  0.57454914  1
  O  O302  1  0.00334311  0.74469953  0.09066117  1
  O  O303  1  0.01203046  0.74708494  0.58424946  1
  O  O304  1  0.35185716  0.25180451  0.08431213  1
  O  O305  1  0.34895074  0.25394592  0.58339171  1
  O  O306  1  0.36592200  0.74640092  0.08784634  1
  O  O307  1  0.33891706  0.76105949  0.57758923  1
  O  O308  1  0.68369736  0.24846761  0.08203802  1
  O  O309  1  0.67965042  0.23628308  0.56978577  1
  O  O310  1  0.67412322  0.74992956  0.08795209  1
  O  O311  1  0.66266339  0.74027674  0.57811939  1
  O  O312  1  0.16770973  0.00756187  0.41255376  1
  O  O313  1  0.19169933  -0.00341955  0.92378569  1
  O  O314  1  0.16468219  0.48288769  0.42546984  1
  O  O315  1  0.16064391  0.49653009  0.91671450  1
  O  O316  1  0.51516951  0.01475023  0.41989319  1
  O  O317  1  0.49335179  0.00495317  0.91344562  1
  O  O318  1  0.49666407  0.49754388  0.41244444  1
  O  O319  1  0.49761167  0.49698849  0.91602941  1
  O  O320  1  0.81018791  0.00145341  0.41323991  1
  O  O321  1  0.81143534  -0.01337622  0.92955877  1
  O  O322  1  0.82637426  0.49956709  0.41487382  1
  O  O323  1  0.80240599  0.50093246  0.91523341  1
  O  O324  1  0.33493176  0.24898422  0.41026319  1
  O  O325  1  0.33731058  0.25643895  0.91329753  1
  O  O326  1  0.34280734  0.74232007  0.41829621  1
  O  O327  1  0.34188354  0.73424144  0.92466634  1
  O  O328  1  0.66653326  0.25401236  0.41317077  1
  O  O329  1  0.64836203  0.25269715  0.91728444  1
  O  O330  1  0.66766232  0.74499726  0.41055057  1
  O  O331  1  0.63877153  0.74780277  0.91532728  1
  O  O332  1  0.97938192  0.24604176  0.41177306  1
  O  O333  1  0.98005633  0.26325263  0.92150661  1
  O  O334  1  0.99650084  0.74168939  0.42474685  1
  O  O335  1  0.99196633  0.73445999  0.93231835  1
  O  O336  1  0.21488956  0.08748773  0.19202864  1
  O  O337  1  0.21208422  0.08513145  0.69781430  1
  O  O338  1  0.21281046  0.58265147  0.19650344  1
  O  O339  1  0.20925774  0.58193068  0.69494038  1
  O  O340  1  0.54687612  0.08527761  0.19500862  1
  O  O341  1  0.53899223  0.08572356  0.69673018  1
  O  O342  1  0.54431144  0.58127261  0.19252353  1
  O  O343  1  0.54233505  0.58259028  0.69283102  1
  O  O344  1  0.87375314  0.08183009  0.19357383  1
  O  O345  1  0.88009087  0.08755995  0.68679409  1
  O  O346  1  0.87643079  0.58464466  0.19812103  1
  O  O347  1  0.86529720  0.58310147  0.69635077  1
  O  O348  1  0.04272790  0.33862746  0.19288366  1
  O  O349  1  0.04290444  0.33540393  0.69409603  1
  O  O350  1  0.04097320  0.83184868  0.19741058  1
  O  O351  1  0.04523098  0.82928225  0.69468559  1
  O  O352  1  0.37802868  0.33510779  0.19241188  1
  O  O353  1  0.37571249  0.33718406  0.69305585  1
  O  O354  1  0.38453303  0.83826238  0.19167541  1
  O  O355  1  0.37668510  0.83390906  0.69451962  1
  O  O356  1  0.71577663  0.32700724  0.19193997  1
  O  O357  1  0.71127615  0.33327382  0.69756859  1
  O  O358  1  0.70896810  0.83238854  0.19744091  1
  O  O359  1  0.70830828  0.83253899  0.70334267  1
  O  O360  1  0.21153980  0.41801504  0.19484061  1
  O  O361  1  0.21211459  0.41541147  0.69511045  1
  O  O362  1  0.21106815  0.91845682  0.19979104  1
  O  O363  1  0.20774963  0.91788079  0.69299395  1
  O  O364  1  0.53447550  0.41706495  0.19111688  1
  O  O365  1  0.54383273  0.41920510  0.68960642  1
  O  O366  1  0.54791165  0.91876350  0.19540544  1
  O  O367  1  0.53997612  0.91819837  0.69582845  1
  O  O368  1  0.87479197  0.41734626  0.19480026  1
  O  O369  1  0.87425029  0.41856322  0.69294534  1
  O  O370  1  0.87238606  0.91539948  0.19725682  1
  O  O371  1  0.88041807  0.91482432  0.69222211  1
  O  O372  1  0.04398287  0.16870614  0.19942297  1
  O  O373  1  0.04538505  0.17020990  0.69598294  1
  O  O374  1  0.03962129  0.66381504  0.19935601  1
  O  O375  1  0.04811054  0.67063393  0.69670151  1
  O  O376  1  0.38299889  0.17050753  0.19381515  1
  O  O377  1  0.37788764  0.16575803  0.69172702  1
  O  O378  1  0.38271411  0.65681996  0.19398000  1
  O  O379  1  0.37768470  0.66600648  0.70241948  1
  O  O380  1  0.71087389  0.16704178  0.19334114  1
  O  O381  1  0.71201246  0.17031632  0.68883946  1
  O  O382  1  0.70901764  0.66687460  0.19658846  1
  O  O383  1  0.70741173  0.66564148  0.69401947  1
  O  O384  1  0.12683788  0.08589624  0.30165381  1
  O  O385  1  0.12142877  0.08545823  0.79982916  1
  O  O386  1  0.12288600  0.58071004  0.30247775  1
  O  O387  1  0.13609730  0.57978818  0.80777784  1
  O  O388  1  0.46136732  0.08807522  0.30455103  1
  O  O389  1  0.45460111  0.08562819  0.80393525  1
  O  O390  1  0.45868184  0.58123098  0.30460335  1
  O  O391  1  0.46049246  0.57981983  0.80460931  1
  O  O392  1  0.78915172  0.08428607  0.30327925  1
  O  O393  1  0.78771289  0.08347578  0.79640508  1
  O  O394  1  0.78915022  0.58188249  0.30600854  1
  O  O395  1  0.78659679  0.58168382  0.80552729  1
  O  O396  1  0.29476620  0.33363148  0.30230359  1
  O  O397  1  0.28863948  0.34010646  0.80533859  1
  O  O398  1  0.28433119  0.84261389  0.30487215  1
  O  O399  1  0.28857738  0.83211363  0.79825615  1
  O  O400  1  0.62220810  0.32896443  0.30352601  1
  O  O401  1  0.62648404  0.33377040  0.80442285  1
  O  O402  1  0.62243506  0.83150650  0.30492025  1
  O  O403  1  0.61588260  0.83077316  0.80646977  1
  O  O404  1  0.95782365  0.33199660  0.30409739  1
  O  O405  1  0.95516842  0.33630483  0.80460661  1
  O  O406  1  0.95276830  0.83325257  0.30170032  1
  O  O407  1  0.95805196  0.83202062  0.80201244  1
  O  O408  1  0.12607519  0.41328987  0.30665534  1
  O  O409  1  0.12639800  0.41537674  0.80539012  1
  O  O410  1  0.11996139  0.92069977  0.30822339  1
  O  O411  1  0.12058601  0.91723691  0.79838298  1
  O  O412  1  0.45941648  0.41544441  0.30338034  1
  O  O413  1  0.45712530  0.42000841  0.80399316  1
  O  O414  1  0.45593749  0.91905656  0.29995603  1
  O  O415  1  0.45374844  0.91796565  0.80644589  1
  O  O416  1  0.80217637  0.41700799  0.30554643  1
  O  O417  1  0.78636677  0.41764152  0.80438136  1
  O  O418  1  0.78653894  0.91708750  0.30693940  1
  O  O419  1  0.78304419  0.91392860  0.81352643  1
  O  O420  1  0.29375050  0.16899878  0.30112041  1
  O  O421  1  0.29039374  0.16792511  0.80687790  1
  O  O422  1  0.28816993  0.65557202  0.31157820  1
  O  O423  1  0.29133098  0.66212983  0.80904184  1
  O  O424  1  0.62725943  0.16942294  0.30300057  1
  O  O425  1  0.62069964  0.17279681  0.80597128  1
  O  O426  1  0.62395876  0.66365639  0.30362122  1
  O  O427  1  0.62019173  0.66360339  0.80469191  1
  O  O428  1  0.95454939  0.16601912  0.30246077  1
  O  O429  1  0.95228755  0.16851735  0.79713891  1
  O  O430  1  0.95423456  0.66459802  0.31052932  1
  O  O431  1  0.95266218  0.67033990  0.81178910  1
  F  F432  1  0.04412625  -0.00118887  0.20293445  1
  F  F433  1  0.04295508  0.00036091  0.69743048  1
  F  F434  1  0.04495511  0.49811824  0.20307838  1
  F  F435  1  0.05088019  0.49132278  0.70072250  1
  F  F436  1  0.38312159  0.00618409  0.19928094  1
  F  F437  1  0.37879990  0.00027366  0.70335277  1
  F  F438  1  0.37885558  0.49900564  0.20166147  1
  F  F439  1  0.37773517  0.50057209  0.70024955  1
  F  F440  1  0.71127769  -0.00071277  0.20255099  1
  F  F441  1  0.70519138  -0.00546939  0.69665426  1
  F  F442  1  0.71761958  0.51035576  0.19654483  1
  F  F443  1  0.71018244  0.49918149  0.70156821  1
  F  F444  1  0.21509223  0.25443682  0.20018528  1
  F  F445  1  0.20858096  0.25125333  0.70062200  1
  F  F446  1  0.19774336  0.74553135  0.20197175  1
  F  F447  1  0.21199990  0.74525294  0.70259761  1
  F  F448  1  0.54711578  0.25072910  0.19895699  1
  F  F449  1  0.54738257  0.24760532  0.69693515  1
  F  F450  1  0.54752795  0.74803883  0.19977210  1
  F  F451  1  0.54409843  0.74960333  0.70308296  1
  F  F452  1  0.87879605  0.25091529  0.20094071  1
  F  F453  1  0.87782656  0.25478059  0.69842101  1
  F  F454  1  0.87536719  0.74662863  0.20405744  1
  F  F455  1  0.88135299  0.73939720  0.69874996  1
  F  F456  1  0.29088254  0.00752634  0.29642818  1
  F  F457  1  0.28883810  0.00104406  0.79708761  1
  F  F458  1  0.29075239  0.49609330  0.29797335  1
  F  F459  1  0.29097321  0.49882931  0.79661769  1
  F  F460  1  0.62323882  0.00289302  0.29767120  1
  F  F461  1  0.61625448  -0.00561635  0.80252690  1
  F  F462  1  0.61746987  0.50724230  0.29948727  1
  F  F463  1  0.62044089  0.49934075  0.79594596  1
  F  F464  1  0.95272802  0.00374670  0.29636365  1
  F  F465  1  0.95786438  0.00272953  0.79686657  1
  F  F466  1  0.95449503  0.49791530  0.29812293  1
  F  F467  1  0.94849369  0.48940319  0.80232762  1
  F  F468  1  0.12443730  0.25323430  0.29585652  1
  F  F469  1  0.12092902  0.25461591  0.79956863  1
  F  F470  1  0.11898949  0.74924555  0.30182424  1
  F  F471  1  0.12223681  0.74717161  0.79958103  1
  F  F472  1  0.45703524  0.25277688  0.29538265  1
  F  F473  1  0.45706954  0.24909745  0.79960230  1
  F  F474  1  0.46974310  0.74686626  0.30013673  1
  F  F475  1  0.45632993  0.75055278  0.79961999  1
  F  F476  1  0.79030686  0.24913018  0.29709731  1
  F  F477  1  0.78857882  0.24946700  0.79673454  1
  F  F478  1  0.78540249  0.74868575  0.29934063  1
  F  F479  1  0.78007965  0.73594489  0.80652547  1
