# generated using pymatgen
data_K24Na3Li5Mg64Fe17Si79(O5F)48
_symmetry_space_group_name_H-M   'P 1'
_cell_length_a   16.09347251
_cell_length_b   18.58572605
_cell_length_c   20.56322867
_cell_angle_alpha   90.01207359
_cell_angle_beta   100.00556585
_cell_angle_gamma   89.96903536
_symmetry_Int_Tables_number   1
_chemical_formula_structural   K24Na3Li5Mg64Fe17Si79(O5F)48
_chemical_formula_sum   'K24 Na3 Li5 Mg64 Fe17 Si79 O240 F48'
_cell_volume   6057.09730132
_cell_formula_units_Z   1
loop_
 _symmetry_equiv_pos_site_id
 _symmetry_equiv_pos_as_xyz
  1  'x, y, z'
loop_
 _atom_site_type_symbol
 _atom_site_label
 _atom_site_symmetry_multiplicity
 _atom_site_fract_x
 _atom_site_fract_y
 _atom_site_fract_z
 _atom_site_occupancy
  K  K0  1  -0.00339682  -0.00203371  -0.00493418  1
  K  K1  1  0.00188675  0.00264188  0.50795480  1
  K  K2  1  -0.00978900  0.48992658  -0.01491236  1
  K  K3  1  -0.01124772  0.49785686  0.50530788  1
  K  K4  1  0.33522134  -0.00190465  -0.00109477  1
  K  K5  1  0.33603017  -0.01369979  0.50073449  1
  K  K6  1  0.32688854  0.51226992  -0.00387233  1
  K  K7  1  0.33845178  0.49842064  0.49952768  1
  K  K8  1  0.66220993  -0.00457062  -0.00565387  1
  K  K9  1  0.65437765  0.00294224  0.49780784  1
  K  K10  1  0.67295380  0.50631066  -0.00911136  1
  K  K11  1  0.67181442  0.50246140  0.50628776  1
  K  K12  1  0.14835395  0.25018882  -0.01093774  1
  K  K13  1  0.16380626  0.24958895  0.49966653  1
  K  K14  1  0.18033573  0.74134664  -0.00779393  1
  K  K15  1  0.17320258  0.75290698  0.50805281  1
  K  K16  1  0.50399359  0.24752892  0.00131742  1
  K  K17  1  0.50632294  0.25398969  0.50035568  1
  K  K18  1  0.49616995  0.73870775  -0.00469152  1
  K  K19  1  0.49756387  0.74449655  0.50755689  1
  K  K20  1  0.83573874  0.25674070  -0.00805918  1
  K  K21  1  0.83563814  0.25346717  0.50390754  1
  K  K22  1  0.83797235  0.74839370  -0.01170808  1
  K  K23  1  0.82151404  0.74921078  0.50423225  1
  Na  Na24  1  0.16717133  0.00011403  0.24907348  1
  Na  Na25  1  0.49696868  0.66878413  0.74387395  1
  Na  Na26  1  0.67227548  0.41898836  0.74795287  1
  Li  Li27  1  0.16780329  -0.00267318  0.75802918  1
  Li  Li28  1  0.50223245  0.00304948  0.25048837  1
  Li  Li29  1  0.83546626  0.34120664  0.74968464  1
  Li  Li30  1  0.17138811  0.67144703  0.75336030  1
  Li  Li31  1  0.83461896  0.33314442  0.25722167  1
  Mg  Mg32  1  0.83367192  -0.00209405  0.75242931  1
  Mg  Mg33  1  0.66558385  0.75194951  0.74654285  1
  Mg  Mg34  1  0.16531635  0.49990122  0.24995023  1
  Mg  Mg35  1  0.83293077  0.00078598  0.25279104  1
  Mg  Mg36  1  -0.00485214  0.24984326  0.25326946  1
  Mg  Mg37  1  0.00083438  0.74914054  0.24802407  1
  Mg  Mg38  1  0.16657200  0.50142905  0.75281010  1
  Mg  Mg39  1  0.00451859  0.75084990  0.75271214  1
  Mg  Mg40  1  0.83559542  0.50059085  0.74940726  1
  Mg  Mg41  1  0.49768702  0.00039825  0.74839971  1
  Mg  Mg42  1  0.50281172  0.50074741  0.74820963  1
  Mg  Mg43  1  0.33255648  0.24954081  0.25169935  1
  Mg  Mg44  1  0.49863217  0.49902985  0.25090527  1
  Mg  Mg45  1  -0.00334903  0.24888455  0.75201128  1
  Mg  Mg46  1  0.66956905  0.24981178  0.25350801  1
  Mg  Mg47  1  0.66440923  0.75072631  0.25081538  1
  Mg  Mg48  1  0.33189688  0.25056340  0.75136147  1
  Mg  Mg49  1  0.33467664  0.74995308  0.24768370  1
  Mg  Mg50  1  0.67171726  0.25347072  0.75097189  1
  Mg  Mg51  1  0.83217305  0.49732523  0.25151689  1
  Mg  Mg52  1  0.33007141  0.75078918  0.74670376  1
  Mg  Mg53  1  0.33540700  0.08326323  0.25019357  1
  Mg  Mg54  1  0.33440825  0.41565639  0.25104924  1
  Mg  Mg55  1  0.66475062  0.58439239  0.25015725  1
  Mg  Mg56  1  0.66774445  0.08464745  0.25375703  1
  Mg  Mg57  1  0.83406869  0.16628673  0.25389956  1
  Mg  Mg58  1  0.16999268  0.83480098  0.75242007  1
  Mg  Mg59  1  -0.00020722  0.58320905  0.24853307  1
  Mg  Mg60  1  -0.00429966  0.41416162  0.25155530  1
  Mg  Mg61  1  0.33654116  0.92040912  0.24785078  1
  Mg  Mg62  1  0.83200307  0.66482030  0.24962817  1
  Mg  Mg63  1  0.49535609  0.83570022  0.74690833  1
  Mg  Mg64  1  0.50084365  0.83891534  0.24789111  1
  Mg  Mg65  1  0.50242096  0.33413972  0.25317312  1
  Mg  Mg66  1  0.49950760  0.66636892  0.25033750  1
  Mg  Mg67  1  0.66962916  0.41394864  0.25138526  1
  Mg  Mg68  1  0.66471928  0.08436143  0.74829278  1
  Mg  Mg69  1  0.66688979  0.91887661  0.25167213  1
  Mg  Mg70  1  0.66242251  0.91617882  0.74750471  1
  Mg  Mg71  1  0.16446372  0.33409056  0.25294054  1
  Mg  Mg72  1  0.16389658  0.33364415  0.75145406  1
  Mg  Mg73  1  0.33380421  0.41737257  0.75009822  1
  Mg  Mg74  1  0.32971289  0.08353698  0.75159099  1
  Mg  Mg75  1  0.00398987  0.58595402  0.74938077  1
  Mg  Mg76  1  0.83462011  0.16681945  0.75329455  1
  Mg  Mg77  1  0.00575375  0.91633426  0.75504991  1
  Mg  Mg78  1  0.33230387  0.58537587  0.74891603  1
  Mg  Mg79  1  0.16594333  0.16342607  0.75285654  1
  Mg  Mg80  1  0.50377449  0.16563737  0.25219610  1
  Mg  Mg81  1  -0.00426368  0.41494344  0.75153629  1
  Mg  Mg82  1  0.17011654  0.83432460  0.24894945  1
  Mg  Mg83  1  0.50257053  0.33388426  0.75029502  1
  Mg  Mg84  1  0.16485861  0.16528145  0.25081022  1
  Mg  Mg85  1  0.83562718  0.83380097  0.75022382  1
  Mg  Mg86  1  0.49912427  0.16741314  0.74832373  1
  Mg  Mg87  1  0.33473620  0.58622547  0.25019310  1
  Mg  Mg88  1  0.83368859  0.83336590  0.25013273  1
  Mg  Mg89  1  0.66674135  0.58613738  0.74831139  1
  Mg  Mg90  1  0.00116864  0.91575783  0.24863095  1
  Mg  Mg91  1  0.00422166  0.08063105  0.75485893  1
  Mg  Mg92  1  0.83309318  0.66701694  0.74888594  1
  Mg  Mg93  1  -0.00091244  0.08284298  0.25177862  1
  Mg  Mg94  1  0.33003458  0.91580382  0.74811421  1
  Mg  Mg95  1  0.16880270  0.66557862  0.24737927  1
  Fe  Fe96  1  0.35820192  0.66688155  0.10781336  1
  Fe  Fe97  1  0.81374632  0.07986446  0.39337538  1
  Fe  Fe98  1  0.47657866  0.41396946  0.39056349  1
  Fe  Fe99  1  0.80353271  0.42112580  0.89390040  1
  Fe  Fe100  1  0.97398159  0.33520564  0.39045567  1
  Fe  Fe101  1  0.14881853  0.08183797  0.89204718  1
  Fe  Fe102  1  0.63673722  0.67089579  0.38874236  1
  Fe  Fe103  1  0.85707780  0.41849594  0.60820454  1
  Fe  Fe104  1  0.31191490  0.83167133  0.89094217  1
  Fe  Fe105  1  0.97048159  0.33014834  0.89099757  1
  Fe  Fe106  1  0.64493320  0.16724200  0.39316267  1
  Fe  Fe107  1  0.68663766  0.66986191  0.60931104  1
  Fe  Fe108  1  0.35432069  0.82590807  0.60401029  1
  Fe  Fe109  1  0.30543506  0.66776535  0.38874378  1
  Fe  Fe110  1  0.52148409  0.92060186  0.60817659  1
  Fe  Fe111  1  0.31461585  0.66030227  0.88892962  1
  Fe  Fe112  1  0.97852868  0.83428419  0.89136133  1
  Si  Si113  1  0.19326611  0.91913634  0.11368481  1
  Si  Si114  1  0.46859380  0.09044775  0.38665630  1
  Si  Si115  1  0.19316515  0.08594346  0.61541337  1
  Si  Si116  1  0.98034613  0.16700690  0.39134868  1
  Si  Si117  1  0.97929318  0.66427517  0.88737485  1
  Si  Si118  1  0.85830417  0.41839250  0.11523434  1
  Si  Si119  1  0.69251991  0.16386243  0.61512679  1
  Si  Si120  1  0.85978818  0.91490871  0.11437431  1
  Si  Si121  1  0.13993444  0.91178071  0.38391539  1
  Si  Si122  1  0.47271267  0.92399730  0.88698521  1
  Si  Si123  1  0.52938427  0.57841913  0.11088795  1
  Si  Si124  1  0.69041185  0.32760713  0.61203881  1
  Si  Si125  1  0.69364463  0.84175021  0.61210161  1
  Si  Si126  1  0.69420210  0.33156405  0.11537191  1
  Si  Si127  1  0.35462257  0.17141548  0.61484229  1
  Si  Si128  1  0.13763337  0.58526370  0.38464447  1
  Si  Si129  1  0.80440259  0.41945481  0.38588490  1
  Si  Si130  1  0.47533035  0.08769138  0.88456439  1
  Si  Si131  1  0.69211197  0.83324977  0.11379832  1
  Si  Si132  1  0.35100749  0.65470051  0.60835697  1
  Si  Si133  1  0.13965506  0.42192259  0.38681677  1
  Si  Si134  1  0.69535652  0.16663252  0.11389233  1
  Si  Si135  1  0.13622157  0.07929511  0.38525720  1
  Si  Si136  1  0.48188166  0.57425012  0.88529457  1
  Si  Si137  1  0.02818715  0.32944955  0.61326021  1
  Si  Si138  1  0.47666192  0.41333644  0.88456748  1
  Si  Si139  1  0.18963443  0.41464553  0.61591972  1
  Si  Si140  1  0.03234091  0.67038916  0.61670682  1
  Si  Si141  1  0.85971338  0.08114200  0.11520123  1
  Si  Si142  1  0.18952204  0.41203005  0.11469491  1
  Si  Si143  1  0.97737827  0.82598581  0.38421735  1
  Si  Si144  1  0.18580781  0.57826126  0.11074028  1
  Si  Si145  1  0.02389090  0.66645567  0.11224349  1
  Si  Si146  1  0.80124566  0.07941432  0.88569968  1
  Si  Si147  1  0.14557280  0.91512686  0.89177530  1
  Si  Si148  1  0.69344839  0.66660467  0.11323343  1
  Si  Si149  1  0.02761755  0.83358068  0.11271116  1
  Si  Si150  1  0.80685642  0.58297541  0.38556930  1
  Si  Si151  1  0.35991399  0.16649527  0.11375665  1
  Si  Si152  1  0.97162766  0.15732952  0.89208372  1
  Si  Si153  1  0.64047129  0.16727454  0.88453205  1
  Si  Si154  1  0.64770390  0.33458053  0.38829167  1
  Si  Si155  1  0.18904139  0.57658690  0.61488727  1
  Si  Si156  1  0.64409181  0.84184979  0.38643747  1
  Si  Si157  1  0.63540599  0.32927263  0.88807149  1
  Si  Si158  1  0.19316121  0.08751513  0.11465412  1
  Si  Si159  1  0.52284793  0.57402984  0.60899520  1
  Si  Si160  1  0.02300913  0.33149407  0.11577716  1
  Si  Si161  1  0.63308444  0.83473950  0.88458179  1
  Si  Si162  1  0.31322960  0.83772390  0.38439832  1
  Si  Si163  1  0.86000716  0.08111907  0.61834478  1
  Si  Si164  1  0.97243976  0.66206535  0.38271609  1
  Si  Si165  1  0.51926743  0.09015564  0.61209040  1
  Si  Si166  1  0.85833221  0.58376923  0.11302447  1
  Si  Si167  1  0.81702414  0.91258615  0.38665510  1
  Si  Si168  1  0.13970531  0.57861000  0.88654058  1
  Si  Si169  1  0.31241252  0.33720283  0.88547298  1
  Si  Si170  1  0.30003046  0.16423706  0.38621009  1
  Si  Si171  1  0.02403220  0.16585025  0.11554852  1
  Si  Si172  1  0.52823689  0.41239706  0.11372500  1
  Si  Si173  1  0.47230758  0.58193890  0.38809944  1
  Si  Si174  1  0.19115983  0.92039542  0.61258354  1
  Si  Si175  1  0.35459448  0.33500716  0.61519803  1
  Si  Si176  1  0.35840516  0.33254687  0.11401467  1
  Si  Si177  1  0.86298064  0.91589653  0.61656480  1
  Si  Si178  1  0.80808167  0.59159475  0.88858013  1
  Si  Si179  1  0.31302070  0.17317292  0.88926747  1
  Si  Si180  1  0.80134331  0.91340249  0.88802135  1
  Si  Si181  1  0.02954258  0.83610122  0.61621860  1
  Si  Si182  1  0.02533849  0.16470997  0.61721910  1
  Si  Si183  1  0.52161240  0.40970045  0.61364956  1
  Si  Si184  1  0.64018202  0.67062437  0.88342295  1
  Si  Si185  1  0.86420739  0.59111389  0.61059660  1
  Si  Si186  1  0.52895447  0.08601986  0.11458577  1
  Si  Si187  1  0.35958015  0.84089930  0.11066986  1
  Si  Si188  1  0.47527075  0.92437387  0.38092258  1
  Si  Si189  1  0.30122676  0.33156937  0.38842385  1
  Si  Si190  1  0.14396162  0.41334157  0.88838413  1
  Si  Si191  1  0.52957289  0.92011231  0.11392383  1
  O  O192  1  0.27151890  0.12402188  0.08295200  1
  O  O193  1  0.27180163  0.12254684  0.58326135  1
  O  O194  1  0.25823920  0.61404638  0.07670863  1
  O  O195  1  0.26930098  0.60068500  0.58057499  1
  O  O196  1  0.60349872  0.12873920  0.08252470  1
  O  O197  1  0.60456942  0.12049475  0.58617596  1
  O  O198  1  0.60998740  0.61887917  0.08404402  1
  O  O199  1  0.59369528  0.61120241  0.57301521  1
  O  O200  1  0.93786767  0.11970235  0.08555892  1
  O  O201  1  0.93886999  0.11867712  0.58885546  1
  O  O202  1  0.93315422  0.62701168  0.08372417  1
  O  O203  1  0.94689863  0.62765409  0.58298226  1
  O  O204  1  0.10366779  0.36530287  0.08606950  1
  O  O205  1  0.11544385  0.35703146  0.58706861  1
  O  O206  1  0.10393352  0.87548634  0.08443972  1
  O  O207  1  0.09962023  0.88037779  0.58321544  1
  O  O208  1  0.43602591  0.37321898  0.08525837  1
  O  O209  1  0.43453980  0.36381484  0.58341651  1
  O  O210  1  0.43809931  0.88399789  0.08400852  1
  O  O211  1  0.44021985  0.86079377  0.56303018  1
  O  O212  1  0.76921763  0.37602714  0.08633425  1
  O  O213  1  0.75717593  0.36739136  0.57402024  1
  O  O214  1  0.77136253  0.87166083  0.08476992  1
  O  O215  1  0.78211303  0.86667285  0.58569441  1
  O  O216  1  0.26891973  0.37470842  0.08518108  1
  O  O217  1  0.27401731  0.38738208  0.58676287  1
  O  O218  1  0.27289783  0.88827761  0.08183041  1
  O  O219  1  0.25833173  0.88452421  0.57228421  1
  O  O220  1  0.60108436  0.36683530  0.08318319  1
  O  O221  1  0.59655433  0.36614117  0.58587224  1
  O  O222  1  0.60595852  0.87819867  0.08281090  1
  O  O223  1  0.62682436  0.90398424  0.58347541  1
  O  O224  1  0.93662384  0.37736704  0.08739388  1
  O  O225  1  0.95036131  0.37600453  0.57611813  1
  O  O226  1  0.93720542  0.87515950  0.08482155  1
  O  O227  1  0.94102123  0.87869159  0.58653767  1
  O  O228  1  0.10437961  0.13126568  0.08572321  1
  O  O229  1  0.10446995  0.12933627  0.58623064  1
  O  O230  1  0.09589412  0.62129227  0.08274528  1
  O  O231  1  0.11001189  0.63113706  0.58662748  1
  O  O232  1  0.43804950  0.12664813  0.08437802  1
  O  O233  1  0.44062417  0.14823051  0.58733500  1
  O  O234  1  0.44541220  0.61826597  0.07473209  1
  O  O235  1  0.43112807  0.61388758  0.58267958  1
  O  O236  1  0.77022591  0.12208516  0.08434389  1
  O  O237  1  0.77187889  0.12375531  0.58851031  1
  O  O238  1  0.77163499  0.62874152  0.08333093  1
  O  O239  1  0.78505528  0.64191590  0.57930068  1
  O  O240  1  0.05690712  0.10703117  0.41840084  1
  O  O241  1  0.04891980  0.10525965  0.92458238  1
  O  O242  1  0.04636059  0.60331783  0.40915105  1
  O  O243  1  0.05254470  0.60332512  0.91376325  1
  O  O244  1  0.38204147  0.11521526  0.41580644  1
  O  O245  1  0.39783593  0.12301479  0.91649104  1
  O  O246  1  0.38271886  0.59361872  0.41424904  1
  O  O247  1  0.40708387  0.59832592  0.92346201  1
  O  O248  1  0.72032761  0.09772572  0.43108711  1
  O  O249  1  0.72121887  0.11588915  0.91455727  1
  O  O250  1  0.72867795  0.60851069  0.41900187  1
  O  O251  1  0.73276087  0.63778872  0.91714238  1
  O  O252  1  0.21695997  0.36480393  0.41381294  1
  O  O253  1  0.23156523  0.36608739  0.91594367  1
  O  O254  1  0.22878640  0.87024182  0.41226469  1
  O  O255  1  0.21140161  0.85168198  0.92166329  1
  O  O256  1  0.56337277  0.34870993  0.41989747  1
  O  O257  1  0.54525942  0.35055626  0.91349732  1
  O  O258  1  0.56300292  0.88105473  0.41184975  1
  O  O259  1  0.55857676  0.87602796  0.91533855  1
  O  O260  1  0.87476788  0.36326284  0.42089382  1
  O  O261  1  0.89513686  0.37017846  0.93929123  1
  O  O262  1  0.89109860  0.84984591  0.41104980  1
  O  O263  1  0.88161787  0.86845071  0.92461013  1
  O  O264  1  0.06013893  0.40344720  0.42150282  1
  O  O265  1  0.07370128  0.37871807  0.92569171  1
  O  O266  1  0.06045380  0.87546089  0.41506235  1
  O  O267  1  0.05906575  0.90341002  0.92327720  1
  O  O268  1  0.38136642  0.37718840  0.42390087  1
  O  O269  1  0.39046642  0.39220746  0.91378598  1
  O  O270  1  0.39269755  0.89309597  0.40940883  1
  O  O271  1  0.39781685  0.89990647  0.92426856  1
  O  O272  1  0.71398365  0.40264279  0.41039333  1
  O  O273  1  0.70618688  0.38322344  0.92439808  1
  O  O274  1  0.72910956  0.89150191  0.41288554  1
  O  O275  1  0.71913300  0.87934485  0.91630243  1
  O  O276  1  0.22050887  0.12739414  0.41513610  1
  O  O277  1  0.23667430  0.14977587  0.92547481  1
  O  O278  1  0.20301027  0.64526607  0.41821974  1
  O  O279  1  0.21756086  0.62731510  0.92171161  1
  O  O280  1  0.54196927  0.14329380  0.42262603  1
  O  O281  1  0.55865832  0.13671929  0.91438122  1
  O  O282  1  0.53543745  0.64808703  0.41552698  1
  O  O283  1  0.56731188  0.62420827  0.91242443  1
  O  O284  1  0.90094129  0.14548611  0.42584440  1
  O  O285  1  0.88590396  0.12318016  0.91768632  1
  O  O286  1  0.88810750  0.63770751  0.41112099  1
  O  O287  1  0.89442388  0.63838471  0.91651135  1
  O  O288  1  0.17860410  0.00371991  0.08862098  1
  O  O289  1  0.17824411  0.00503275  0.58472719  1
  O  O290  1  0.17292803  0.49347832  0.08472370  1
  O  O291  1  0.16294254  0.49447784  0.58493980  1
  O  O292  1  0.52671606  0.00341606  0.08422120  1
  O  O293  1  0.49072605  0.01566996  0.57607207  1
  O  O294  1  0.52823690  0.49408222  0.08335737  1
  O  O295  1  0.50961808  0.48976527  0.58010957  1
  O  O296  1  0.85089289  -0.00217211  0.08529967  1
  O  O297  1  0.85183238  -0.00099480  0.58747883  1
  O  O298  1  0.85009278  0.50118885  0.08358070  1
  O  O299  1  0.85118040  0.51299564  0.57469317  1
  O  O300  1  0.00998319  0.24865916  0.08681077  1
  O  O301  1  0.01452687  0.24555669  0.58572162  1
  O  O302  1  0.01840142  0.75014418  0.08445833  1
  O  O303  1  0.02547660  0.75346690  0.58612261  1
  O  O304  1  0.35302239  0.24971297  0.08379440  1
  O  O305  1  0.33079052  0.25338284  0.58643394  1
  O  O306  1  0.34870830  0.76250717  0.07721940  1
  O  O307  1  0.33244723  0.73078055  0.57055327  1
  O  O308  1  0.69286185  0.24917868  0.08380326  1
  O  O309  1  0.67991185  0.24365930  0.58186949  1
  O  O310  1  0.68242125  0.75005456  0.08447573  1
  O  O311  1  0.66569904  0.76479443  0.57835290  1
  O  O312  1  0.15269370  -0.00472971  0.41076811  1
  O  O313  1  0.18776081  -0.00865346  0.92197265  1
  O  O314  1  0.17060951  0.50439789  0.41050423  1
  O  O315  1  0.16196795  0.49597071  0.91597033  1
  O  O316  1  0.48810705  0.00627975  0.41126420  1
  O  O317  1  0.49856017  0.00740353  0.91457487  1
  O  O318  1  0.51296619  0.50599382  0.41881290  1
  O  O319  1  0.51130911  0.49148917  0.91375445  1
  O  O320  1  0.85613845  -0.01402207  0.41967962  1
  O  O321  1  0.80791343  -0.00245501  0.91642820  1
  O  O322  1  0.83584941  0.50162431  0.41153379  1
  O  O323  1  0.81519666  0.51667838  0.92869215  1
  O  O324  1  0.30899419  0.24690148  0.41554155  1
  O  O325  1  0.34158218  0.25660008  0.91401788  1
  O  O326  1  0.33755098  0.76121320  0.41880950  1
  O  O327  1  0.34721224  0.74550340  0.93077851  1
  O  O328  1  0.68987684  0.25956340  0.41774108  1
  O  O329  1  0.65841582  0.24675527  0.91814845  1
  O  O330  1  0.66451784  0.76449496  0.42060421  1
  O  O331  1  0.63881124  0.75275329  0.91555872  1
  O  O332  1  1.01805116  0.24428475  0.41915957  1
  O  O333  1  0.98546855  0.23567638  0.92668792  1
  O  O334  1  1.00015941  0.74333285  0.41095135  1
  O  O335  1  1.00727527  0.74019911  0.92365916  1
  O  O336  1  0.21468494  0.09333165  0.19371598  1
  O  O337  1  0.21484653  0.09146225  0.69433532  1
  O  O338  1  0.20383502  0.58017410  0.19151909  1
  O  O339  1  0.21072604  0.57405311  0.69395904  1
  O  O340  1  0.54651205  0.08714651  0.19370354  1
  O  O341  1  0.53988938  0.08705225  0.69336347  1
  O  O342  1  0.54381612  0.58000645  0.19149399  1
  O  O343  1  0.54660792  0.57373423  0.68863722  1
  O  O344  1  0.87744486  0.08084963  0.19505901  1
  O  O345  1  0.87653613  0.08124822  0.69856185  1
  O  O346  1  0.87589689  0.58436133  0.19339055  1
  O  O347  1  0.88196746  0.58830063  0.69214433  1
  O  O348  1  0.04381223  0.33278301  0.19564780  1
  O  O349  1  0.04529110  0.33107626  0.69387828  1
  O  O350  1  0.04303852  0.83265058  0.19297660  1
  O  O351  1  0.04608047  0.83564483  0.69588487  1
  O  O352  1  0.37392998  0.33151384  0.19405005  1
  O  O353  1  0.37408125  0.33292474  0.69550090  1
  O  O354  1  0.37774492  0.83797632  0.19156437  1
  O  O355  1  0.37705213  0.83574837  0.69534871  1
  O  O356  1  0.70687314  0.33215841  0.19458991  1
  O  O357  1  0.71170580  0.32403113  0.69106269  1
  O  O358  1  0.71114343  0.83320365  0.19410580  1
  O  O359  1  0.71294390  0.83802504  0.69390085  1
  O  O360  1  0.20874331  0.41343861  0.19522433  1
  O  O361  1  0.20957005  0.41436304  0.69632584  1
  O  O362  1  0.21383213  0.91084882  0.19268166  1
  O  O363  1  0.21014549  0.91835834  0.69217717  1
  O  O364  1  0.54530202  0.41381373  0.19373987  1
  O  O365  1  0.53290232  0.41338665  0.69293431  1
  O  O366  1  0.54999293  0.91604602  0.19310659  1
  O  O367  1  0.54245296  0.92090563  0.70059868  1
  O  O368  1  0.87746389  0.42261292  0.19424564  1
  O  O369  1  0.88066734  0.42142240  0.69783655  1
  O  O370  1  0.87667499  0.91386950  0.19460337  1
  O  O371  1  0.87710741  0.91795787  0.69666256  1
  O  O372  1  0.04246134  0.16507212  0.19568111  1
  O  O373  1  0.04318899  0.16568969  0.69713349  1
  O  O374  1  0.04147964  0.66627500  0.19284962  1
  O  O375  1  0.04423467  0.66909241  0.69605916  1
  O  O376  1  0.37698632  0.16835503  0.19384987  1
  O  O377  1  0.37379346  0.16933515  0.69528912  1
  O  O378  1  0.38052417  0.66657542  0.19915212  1
  O  O379  1  0.36458841  0.66230696  0.68758476  1
  O  O380  1  0.71151129  0.16611600  0.19332935  1
  O  O381  1  0.70952420  0.16432714  0.69564083  1
  O  O382  1  0.71250000  0.66747693  0.19328317  1
  O  O383  1  0.71191207  0.66970776  0.70059431  1
  O  O384  1  0.11751569  0.08781635  0.30601150  1
  O  O385  1  0.12344648  0.08510291  0.80160432  1
  O  O386  1  0.12087248  0.58467567  0.30301599  1
  O  O387  1  0.12240628  0.57879893  0.80660851  1
  O  O388  1  0.45221996  0.09245414  0.30634771  1
  O  O389  1  0.45594168  0.08779640  0.80425804  1
  O  O390  1  0.45732114  0.58120252  0.30541024  1
  O  O391  1  0.45475959  0.57363279  0.80598658  1
  O  O392  1  0.79029663  0.08213178  0.30022308  1
  O  O393  1  0.78623076  0.08069950  0.80555264  1
  O  O394  1  0.78967948  0.58442699  0.30394334  1
  O  O395  1  0.79288253  0.58679625  0.80833365  1
  O  O396  1  0.28768832  0.33236205  0.30700270  1
  O  O397  1  0.29137696  0.33471298  0.80502360  1
  O  O398  1  0.29176976  0.83541268  0.30324385  1
  O  O399  1  0.28973392  0.83521291  0.79962233  1
  O  O400  1  0.62524816  0.33403699  0.30614264  1
  O  O401  1  0.61881740  0.32555731  0.80835964  1
  O  O402  1  0.62583208  0.83690514  0.30505293  1
  O  O403  1  0.62143008  0.83498494  0.80489911  1
  O  O404  1  0.95643020  0.33338410  0.29945057  1
  O  O405  1  0.95996236  0.33049062  0.80104693  1
  O  O406  1  0.95841311  0.82981840  0.30339350  1
  O  O407  1  0.95539243  0.83400093  0.80003622  1
  O  O408  1  0.12202736  0.41837212  0.30525104  1
  O  O409  1  0.12509973  0.41372353  0.80740196  1
  O  O410  1  0.11757146  0.90720591  0.30456715  1
  O  O411  1  0.12378676  0.91434006  0.81040509  1
  O  O412  1  0.45374448  0.41542672  0.29799137  1
  O  O413  1  0.45659264  0.41321134  0.80431230  1
  O  O414  1  0.45771158  0.91871669  0.30121417  1
  O  O415  1  0.45529725  0.92310322  0.80678353  1
  O  O416  1  0.78834724  0.41985394  0.30522560  1
  O  O417  1  0.80150856  0.42106900  0.80665009  1
  O  O418  1  0.79489497  0.91371302  0.30507243  1
  O  O419  1  0.78687301  0.91578837  0.80728680  1
  O  O420  1  0.28614913  0.16686112  0.30565142  1
  O  O421  1  0.29306735  0.16960649  0.80839438  1
  O  O422  1  0.28568778  0.66789046  0.29651519  1
  O  O423  1  0.29339194  0.66616435  0.79894419  1
  O  O424  1  0.62314233  0.16739020  0.30024441  1
  O  O425  1  0.62168985  0.16615368  0.80439337  1
  O  O426  1  0.62127903  0.66773356  0.29617802  1
  O  O427  1  0.62904743  0.67129831  0.80472135  1
  O  O428  1  0.95870762  0.16382784  0.30934888  1
  O  O429  1  0.95557648  0.16100231  0.81066025  1
  O  O430  1  0.95535876  0.66579145  0.30178877  1
  O  O431  1  0.95895362  0.66708742  0.80653045  1
  F  F432  1  0.03180716  -0.00064648  0.19716257  1
  F  F433  1  0.03612159  -0.00135033  0.70163708  1
  F  F434  1  0.04373626  0.49903536  0.20113209  1
  F  F435  1  0.04756302  0.49795523  0.70317079  1
  F  F436  1  0.37415018  0.00408344  0.19675991  1
  F  F437  1  0.37785888  0.00511457  0.70071803  1
  F  F438  1  0.37563548  0.50002538  0.19930406  1
  F  F439  1  0.37786062  0.49718113  0.70138688  1
  F  F440  1  0.71406061  -0.00295367  0.19946222  1
  F  F441  1  0.71245539  0.00091418  0.70349522  1
  F  F442  1  0.71215163  0.50083135  0.20058380  1
  F  F443  1  0.72004059  0.51306566  0.69767550  1
  F  F444  1  0.21102902  0.25152112  0.20286639  1
  F  F445  1  0.21185051  0.25025406  0.70432264  1
  F  F446  1  0.20912645  0.75145100  0.19745838  1
  F  F447  1  0.20930634  0.75576005  0.69690828  1
  F  F448  1  0.54400800  0.25221538  0.20126660  1
  F  F449  1  0.54502709  0.24950724  0.70169489  1
  F  F450  1  0.54618148  0.75478020  0.19859968  1
  F  F451  1  0.54993449  0.76240954  0.69580642  1
  F  F452  1  0.88211266  0.23823682  0.19785379  1
  F  F453  1  0.88170571  0.23819878  0.70010356  1
  F  F454  1  0.87833612  0.74942547  0.19987930  1
  F  F455  1  0.88036991  0.75009348  0.70198179  1
  F  F456  1  0.29925808  0.00109118  0.30044926  1
  F  F457  1  0.29388716  0.00193384  0.79844787  1
  F  F458  1  0.28540993  0.49928975  0.29445312  1
  F  F459  1  0.28845337  0.49690490  0.79901980  1
  F  F460  1  0.62600219  0.00021522  0.29786194  1
  F  F461  1  0.62086247  0.00455060  0.79904975  1
  F  F462  1  0.62109634  0.49953515  0.29427294  1
  F  F463  1  0.61864379  0.50983544  0.80023626  1
  F  F464  1  0.95535056  -0.00350938  0.29829997  1
  F  F465  1  0.95184563  -0.00087034  0.80181528  1
  F  F466  1  0.95425232  0.50283441  0.29664470  1
  F  F467  1  0.95851519  0.50445793  0.79844342  1
  F  F468  1  0.12068847  0.24944051  0.29726933  1
  F  F469  1  0.12209690  0.24942147  0.79900124  1
  F  F470  1  0.12044657  0.74908854  0.29398747  1
  F  F471  1  0.12154824  0.75382181  0.79974050  1
  F  F472  1  0.45226809  0.25077324  0.29691812  1
  F  F473  1  0.45361653  0.24975050  0.79693249  1
  F  F474  1  0.45670952  0.75545591  0.29477750  1
  F  F475  1  0.45147908  0.75895516  0.79912079  1
  F  F476  1  0.78873681  0.24751805  0.29746129  1
  F  F477  1  0.78482018  0.24014885  0.80431867  1
  F  F478  1  0.78881384  0.74978469  0.29590181  1
  F  F479  1  0.78922256  0.75387916  0.79890927  1
