# generated using pymatgen
data_K24Na3Li5Mg64Fe17Si79(O5F)48
_symmetry_space_group_name_H-M   'P 1'
_cell_length_a   16.09748011
_cell_length_b   18.58644207
_cell_length_c   20.54672600
_cell_angle_alpha   89.98540877
_cell_angle_beta   100.00432192
_cell_angle_gamma   90.02503735
_symmetry_Int_Tables_number   1
_chemical_formula_structural   K24Na3Li5Mg64Fe17Si79(O5F)48
_chemical_formula_sum   'K24 Na3 Li5 Mg64 Fe17 Si79 O240 F48'
_cell_volume   6054.00007170
_cell_formula_units_Z   1
loop_
 _symmetry_equiv_pos_site_id
 _symmetry_equiv_pos_as_xyz
  1  'x, y, z'
loop_
 _atom_site_type_symbol
 _atom_site_label
 _atom_site_symmetry_multiplicity
 _atom_site_fract_x
 _atom_site_fract_y
 _atom_site_fract_z
 _atom_site_occupancy
  K  K0  1  0.00045074  0.00575106  0.00570201  1
  K  K1  1  0.00286730  0.00532928  0.50040088  1
  K  K2  1  0.00451990  0.50255212  0.00802909  1
  K  K3  1  -0.00060280  0.49410968  0.49578319  1
  K  K4  1  0.34786374  -0.00879959  0.00295582  1
  K  K5  1  0.32057560  0.00767593  0.50031108  1
  K  K6  1  0.33074224  0.49653223  0.00512401  1
  K  K7  1  0.32610588  0.49041298  0.49415681  1
  K  K8  1  0.65782679  0.00650604  0.00522699  1
  K  K9  1  0.66522587  0.00033891  0.49352977  1
  K  K10  1  0.66408342  0.50042194  0.00955389  1
  K  K11  1  0.66529713  0.49810597  0.48746127  1
  K  K12  1  0.15905817  0.25320562  0.00945735  1
  K  K13  1  0.16532311  0.25174042  0.49244358  1
  K  K14  1  0.17808841  0.74784381  0.00095900  1
  K  K15  1  0.17041943  0.75466879  0.50266343  1
  K  K16  1  0.51500568  0.25246495  0.00901093  1
  K  K17  1  0.48394693  0.25037730  0.48711057  1
  K  K18  1  0.49504027  0.75016614  0.00539591  1
  K  K19  1  0.49964587  0.74846234  0.49559891  1
  K  K20  1  0.83172478  0.25159006  0.01402744  1
  K  K21  1  0.82838721  0.25122402  0.48870925  1
  K  K22  1  0.83386640  0.74633049  0.00265811  1
  K  K23  1  0.82874311  0.74681715  0.49554017  1
  Na  Na24  1  -0.00272252  0.25268573  0.25041060  1
  Na  Na25  1  0.66913783  0.91614340  0.75220977  1
  Na  Na26  1  0.49937896  0.66771686  0.24757216  1
  Li  Li27  1  0.66822539  0.75413589  0.75098986  1
  Li  Li28  1  0.17024302  -0.00019323  0.73860110  1
  Li  Li29  1  0.83540489  0.33407840  0.25345718  1
  Li  Li30  1  0.83178678  0.66680437  0.25136688  1
  Li  Li31  1  0.15891516  0.33049773  0.24877630  1
  Mg  Mg32  1  0.50192604  -0.00068089  0.75118041  1
  Mg  Mg33  1  0.33589061  0.75004531  0.24797436  1
  Mg  Mg34  1  0.49949800  0.49860683  0.25181031  1
  Mg  Mg35  1  0.00232189  0.75008962  0.74472136  1
  Mg  Mg36  1  0.83364333  0.50093999  0.25324194  1
  Mg  Mg37  1  0.16698252  0.50021426  0.74574733  1
  Mg  Mg38  1  0.16460827  0.49707253  0.24631123  1
  Mg  Mg39  1  0.83210363  -0.00025385  0.24957563  1
  Mg  Mg40  1  0.50207817  0.50161964  0.75245331  1
  Mg  Mg41  1  0.33296421  0.24890398  0.74488057  1
  Mg  Mg42  1  0.83306555  0.50069669  0.75394581  1
  Mg  Mg43  1  0.32850932  0.25056649  0.25114714  1
  Mg  Mg44  1  0.66886362  0.74899900  0.24912299  1
  Mg  Mg45  1  0.83408109  -0.00154354  0.75195523  1
  Mg  Mg46  1  -0.00219395  0.74941435  0.24649772  1
  Mg  Mg47  1  0.33252236  0.75037717  0.74825625  1
  Mg  Mg48  1  -0.00088891  0.24906414  0.74991188  1
  Mg  Mg49  1  0.50059691  0.00022772  0.25084950  1
  Mg  Mg50  1  0.16442639  0.00152431  0.24634386  1
  Mg  Mg51  1  0.67003107  0.25369139  0.25604803  1
  Mg  Mg52  1  0.66727310  0.24945005  0.75645637  1
  Mg  Mg53  1  0.49968073  0.83435486  0.25022026  1
  Mg  Mg54  1  0.33498457  0.91514495  0.24972697  1
  Mg  Mg55  1  0.16315351  0.16970870  0.24887285  1
  Mg  Mg56  1  -0.00124909  0.41510529  0.75085801  1
  Mg  Mg57  1  0.00286765  0.91736983  0.74509527  1
  Mg  Mg58  1  0.49947219  0.33506850  0.25309648  1
  Mg  Mg59  1  0.33017429  0.08229751  0.74630475  1
  Mg  Mg60  1  0.33350763  0.58558661  0.74872647  1
  Mg  Mg61  1  0.66793341  0.08321238  0.75545414  1
  Mg  Mg62  1  0.16654449  0.66491080  0.24687092  1
  Mg  Mg63  1  0.33150865  0.91760495  0.74616432  1
  Mg  Mg64  1  0.33138143  0.41624912  0.74615347  1
  Mg  Mg65  1  0.66831000  0.58348645  0.25243798  1
  Mg  Mg66  1  0.83364242  0.83209182  0.75044270  1
  Mg  Mg67  1  0.66949248  0.58864650  0.75371844  1
  Mg  Mg68  1  0.83333733  0.33451029  0.75710501  1
  Mg  Mg69  1  0.50240883  0.16520606  0.75109620  1
  Mg  Mg70  1  0.16706233  0.66669846  0.74596725  1
  Mg  Mg71  1  0.16708907  0.83791019  0.74428197  1
  Mg  Mg72  1  -0.00463420  0.08508116  0.24810877  1
  Mg  Mg73  1  0.16511790  0.33434414  0.74520749  1
  Mg  Mg74  1  0.00294838  0.08218690  0.74684537  1
  Mg  Mg75  1  0.83216462  0.16890733  0.25172526  1
  Mg  Mg76  1  0.33006574  0.41415039  0.24830571  1
  Mg  Mg77  1  0.50416807  0.66885591  0.75221960  1
  Mg  Mg78  1  0.66792714  0.41646920  0.25324094  1
  Mg  Mg79  1  -0.00287704  0.91579804  0.24786966  1
  Mg  Mg80  1  0.66759777  0.08499206  0.25327033  1
  Mg  Mg81  1  0.66562857  0.91497885  0.24945897  1
  Mg  Mg82  1  0.00027373  0.58477821  0.74752400  1
  Mg  Mg83  1  0.67045481  0.41738779  0.75707370  1
  Mg  Mg84  1  0.49984358  0.16568906  0.25406952  1
  Mg  Mg85  1  0.83292539  0.83175624  0.24863154  1
  Mg  Mg86  1  0.33325517  0.08357045  0.25111778  1
  Mg  Mg87  1  0.33204078  0.58249015  0.24912650  1
  Mg  Mg88  1  0.16628446  0.83421126  0.24658311  1
  Mg  Mg89  1  0.50189618  0.33424577  0.75155378  1
  Mg  Mg90  1  0.16566982  0.16352921  0.74472579  1
  Mg  Mg91  1  -0.00259157  0.58591365  0.24844703  1
  Mg  Mg92  1  0.50349755  0.83239794  0.74808720  1
  Mg  Mg93  1  0.83290973  0.66862654  0.75012034  1
  Mg  Mg94  1  0.83362978  0.16394297  0.75494762  1
  Mg  Mg95  1  -0.00266905  0.41542073  0.25066895  1
  Fe  Fe96  1  0.52021405  0.41493088  0.11081313  1
  Fe  Fe97  1  0.81087314  0.08192864  0.39140033  1
  Fe  Fe98  1  0.18909420  0.91443883  0.60358111  1
  Fe  Fe99  1  0.30775055  0.66442994  0.88877633  1
  Fe  Fe100  1  0.19156552  0.58097862  0.10825480  1
  Fe  Fe101  1  0.53305130  0.91937412  0.10969246  1
  Fe  Fe102  1  0.81041366  0.42257958  0.89604466  1
  Fe  Fe103  1  0.18780856  0.09132093  0.60391881  1
  Fe  Fe104  1  0.81375662  0.41708295  0.39254810  1
  Fe  Fe105  1  0.36073293  0.83385988  0.10850283  1
  Fe  Fe106  1  0.47088404  0.08255593  0.39230920  1
  Fe  Fe107  1  0.02107799  0.16676566  0.10809231  1
  Fe  Fe108  1  0.85780622  0.91388395  0.11031736  1
  Fe  Fe109  1  0.47111062  0.41625294  0.39219306  1
  Fe  Fe110  1  0.18892045  0.41358659  0.60593266  1
  Fe  Fe111  1  0.01986942  0.66504878  0.60678841  1
  Fe  Fe112  1  0.64556517  0.16565329  0.89366393  1
  Si  Si113  1  0.35849081  0.66407890  0.11229479  1
  Si  Si114  1  0.81381110  0.07553075  0.89126497  1
  Si  Si115  1  0.13550375  0.57896809  0.88510332  1
  Si  Si116  1  0.30644259  0.33265026  0.88281045  1
  Si  Si117  1  0.18790143  0.41243674  0.11085711  1
  Si  Si118  1  0.47987835  0.57951921  0.88833582  1
  Si  Si119  1  0.64052710  0.16699211  0.39164394  1
  Si  Si120  1  0.85351920  0.57736130  0.61383270  1
  Si  Si121  1  0.64004463  0.33738213  0.89147361  1
  Si  Si122  1  0.97723024  0.16175769  0.88584803  1
  Si  Si123  1  0.97769286  0.33339390  0.38860960  1
  Si  Si124  1  0.69692558  0.82702380  0.11162618  1
  Si  Si125  1  0.69576329  0.66826025  0.61576858  1
  Si  Si126  1  0.30545281  0.83246005  0.38508522  1
  Si  Si127  1  0.02139771  0.66993455  0.11033225  1
  Si  Si128  1  0.36828427  0.33415003  0.61180906  1
  Si  Si129  1  0.97624126  0.32769420  0.88938121  1
  Si  Si130  1  0.01967104  0.33845311  0.11256406  1
  Si  Si131  1  0.01443289  0.33309771  0.61284229  1
  Si  Si132  1  0.30498702  0.16745541  0.88287073  1
  Si  Si133  1  0.36503675  0.83064582  0.60995060  1
  Si  Si134  1  0.81503436  0.90971542  0.88640727  1
  Si  Si135  1  0.30979495  0.83625116  0.88424272  1
  Si  Si136  1  0.64280940  0.83064008  0.38687489  1
  Si  Si137  1  0.01493679  0.83337392  0.60724406  1
  Si  Si138  1  0.35163011  0.32579784  0.11173267  1
  Si  Si139  1  0.30692977  0.66786057  0.38562433  1
  Si  Si140  1  0.64143569  0.66852708  0.88760270  1
  Si  Si141  1  0.85587948  0.58705576  0.11611944  1
  Si  Si142  1  0.13671459  0.41891801  0.38314005  1
  Si  Si143  1  0.68807453  0.66399736  0.11653257  1
  Si  Si144  1  0.02889550  0.83570521  0.11131967  1
  Si  Si145  1  0.97929251  0.66815266  0.38448999  1
  Si  Si146  1  0.53416752  0.41915492  0.61838755  1
  Si  Si147  1  0.81081472  0.91077636  0.38845895  1
  Si  Si148  1  0.29831723  0.16619300  0.38684078  1
  Si  Si149  1  0.47445530  0.58542332  0.38894680  1
  Si  Si150  1  0.19473636  0.58703451  0.60751553  1
  Si  Si151  1  0.86102751  0.42390729  0.11614932  1
  Si  Si152  1  0.69282467  0.17391682  0.11845725  1
  Si  Si153  1  0.47564272  0.91237222  0.39018552  1
  Si  Si154  1  0.85604923  0.08406112  0.61699927  1
  Si  Si155  1  0.84976941  0.08122946  0.11041425  1
  Si  Si156  1  0.19221776  0.08275447  0.11288053  1
  Si  Si157  1  0.85599221  0.91979871  0.61397513  1
  Si  Si158  1  0.97634973  0.66971165  0.88261103  1
  Si  Si159  1  0.97781092  0.83080167  0.38471764  1
  Si  Si160  1  0.52928672  0.91391184  0.61462119  1
  Si  Si161  1  0.69317815  0.16583115  0.61874414  1
  Si  Si162  1  0.81263957  0.59309115  0.88932239  1
  Si  Si163  1  0.69715729  0.83158150  0.61529730  1
  Si  Si164  1  0.64280627  0.33204956  0.39294648  1
  Si  Si165  1  0.47192437  0.41378717  0.88395000  1
  Si  Si166  1  0.14252738  0.91897321  0.88074491  1
  Si  Si167  1  0.46976013  0.08464377  0.88585350  1
  Si  Si168  1  0.13917809  0.41277742  0.88408048  1
  Si  Si169  1  0.01533026  0.17150505  0.61154761  1
  Si  Si170  1  0.69574816  0.33854584  0.11637784  1
  Si  Si171  1  0.53109703  0.07882761  0.61566616  1
  Si  Si172  1  0.97472161  0.16693083  0.38752482  1
  Si  Si173  1  0.14051180  0.91667961  0.38310098  1
  Si  Si174  1  0.52654536  0.09130541  0.11414288  1
  Si  Si175  1  0.14124410  0.08397194  0.88179458  1
  Si  Si176  1  0.30041498  0.33284675  0.38554861  1
  Si  Si177  1  0.35630950  0.16307651  0.11643774  1
  Si  Si178  1  0.53261797  0.58434452  0.61674489  1
  Si  Si179  1  0.36861521  0.16778513  0.61096058  1
  Si  Si180  1  0.36658610  0.66398695  0.61415859  1
  Si  Si181  1  0.81265632  0.58715567  0.38935357  1
  Si  Si182  1  0.19292515  0.91824090  0.11221984  1
  Si  Si183  1  0.69301304  0.32917923  0.61981560  1
  Si  Si184  1  0.13524046  0.08137555  0.38304313  1
  Si  Si185  1  0.98170983  0.83311565  0.88322775  1
  Si  Si186  1  0.47646967  0.91801897  0.88325218  1
  Si  Si187  1  0.14148826  0.58323045  0.38490574  1
  Si  Si188  1  0.85298694  0.41491723  0.61843068  1
  Si  Si189  1  0.52517852  0.58208168  0.11478082  1
  Si  Si190  1  0.64048278  0.83248004  0.88552102  1
  Si  Si191  1  0.64494223  0.66666255  0.38615346  1
  O  O192  1  0.28238179  0.10402972  0.08769933  1
  O  O193  1  0.28239481  0.13327926  0.57300067  1
  O  O194  1  0.29075076  0.60472859  0.07699955  1
  O  O195  1  0.28296208  0.61727159  0.58400116  1
  O  O196  1  0.60353830  0.13404288  0.08633494  1
  O  O197  1  0.61266690  0.11453725  0.58887055  1
  O  O198  1  0.60877252  0.61186845  0.08481875  1
  O  O199  1  0.60800026  0.62440996  0.58605799  1
  O  O200  1  0.92700725  0.10823815  0.07459542  1
  O  O201  1  0.93642872  0.11479928  0.58669336  1
  O  O202  1  0.93240102  0.62524906  0.08385067  1
  O  O203  1  0.93277655  0.59667159  0.57880477  1
  O  O204  1  0.10340099  0.36427286  0.08139083  1
  O  O205  1  0.09254204  0.35545342  0.57748881  1
  O  O206  1  0.11672751  0.85993008  0.08575512  1
  O  O207  1  0.09426449  0.85447456  0.57253604  1
  O  O208  1  0.42812380  0.35322201  0.07605020  1
  O  O209  1  0.44759136  0.37721630  0.58742198  1
  O  O210  1  0.44552046  0.86444176  0.06527585  1
  O  O211  1  0.44817076  0.86435876  0.58192970  1
  O  O212  1  0.77894274  0.37258101  0.08894679  1
  O  O213  1  0.77599021  0.35842974  0.59145770  1
  O  O214  1  0.78362297  0.83814048  0.08212407  1
  O  O215  1  0.77347538  0.87021990  0.58273501  1
  O  O216  1  0.26592024  0.37194944  0.08179872  1
  O  O217  1  0.28224445  0.37145800  0.57544562  1
  O  O218  1  0.27099414  0.89785774  0.07662377  1
  O  O219  1  0.28303319  0.87157725  0.57152995  1
  O  O220  1  0.61508323  0.38229484  0.07634479  1
  O  O221  1  0.61287942  0.38108761  0.59036210  1
  O  O222  1  0.62823833  0.88528881  0.07715393  1
  O  O223  1  0.61093609  0.87831126  0.58738306  1
  O  O224  1  0.94061169  0.39465780  0.08273993  1
  O  O225  1  0.93583098  0.38989853  0.58817578  1
  O  O226  1  0.95754590  0.89135231  0.07727591  1
  O  O227  1  0.93789322  0.89362266  0.58340725  1
  O  O228  1  0.11976435  0.13565526  0.07526386  1
  O  O229  1  0.09298675  0.15330460  0.57501581  1
  O  O230  1  0.09490080  0.63789139  0.07417623  1
  O  O231  1  0.12133059  0.64371174  0.57694149  1
  O  O232  1  0.44168367  0.14101640  0.08749534  1
  O  O233  1  0.44793960  0.12589143  0.58509432  1
  O  O234  1  0.45249157  0.64448936  0.09364266  1
  O  O235  1  0.44525715  0.62585881  0.58512644  1
  O  O236  1  0.76877698  0.13660163  0.08734302  1
  O  O237  1  0.77457322  0.13554246  0.58878667  1
  O  O238  1  0.77031530  0.63357436  0.08616211  1
  O  O239  1  0.77243182  0.63013254  0.58470159  1
  O  O240  1  0.05645959  0.11311547  0.41446475  1
  O  O241  1  0.06261042  0.11591193  0.91485322  1
  O  O242  1  0.06372511  0.62024384  0.41605092  1
  O  O243  1  0.04971524  0.61065241  0.91023578  1
  O  O244  1  0.37872781  0.12208564  0.42538122  1
  O  O245  1  0.38521751  0.11623101  0.91270911  1
  O  O246  1  0.39871828  0.63252168  0.41710658  1
  O  O247  1  0.40469896  0.60961768  0.92298516  1
  O  O248  1  0.71560168  0.11276009  0.42493928  1
  O  O249  1  0.73888851  0.10602097  0.92607569  1
  O  O250  1  0.73258777  0.62511338  0.41982004  1
  O  O251  1  0.73202534  0.62952637  0.91724665  1
  O  O252  1  0.22025550  0.37137474  0.41250082  1
  O  O253  1  0.22716936  0.36880374  0.91192607  1
  O  O254  1  0.22807229  0.87336754  0.41378413  1
  O  O255  1  0.23042364  0.87697361  0.91106913  1
  O  O256  1  0.56105301  0.35460812  0.42549757  1
  O  O257  1  0.54741722  0.35800970  0.91271919  1
  O  O258  1  0.56242219  0.86426008  0.41682285  1
  O  O259  1  0.56529916  0.87667875  0.91512820  1
  O  O260  1  0.90581666  0.35808361  0.43068187  1
  O  O261  1  0.90189141  0.35925634  0.92425907  1
  O  O262  1  0.89473826  0.85865263  0.41382482  1
  O  O263  1  0.89971523  0.86066909  0.91518133  1
  O  O264  1  0.06203779  0.38388608  0.41801176  1
  O  O265  1  0.06569306  0.37108292  0.91559239  1
  O  O266  1  0.06162347  0.88047839  0.41314628  1
  O  O267  1  0.06400010  0.88331739  0.91310517  1
  O  O268  1  0.38204076  0.37374202  0.42699491  1
  O  O269  1  0.38822523  0.38355537  0.91159365  1
  O  O270  1  0.39641323  0.86926007  0.41634362  1
  O  O271  1  0.39625104  0.88327924  0.91145099  1
  O  O272  1  0.72024906  0.38305084  0.42752455  1
  O  O273  1  0.70676208  0.39953708  0.92139072  1
  O  O274  1  0.73047764  0.87339867  0.41807206  1
  O  O275  1  0.73253596  0.87328938  0.91203252  1
  O  O276  1  0.21658701  0.13042472  0.41384539  1
  O  O277  1  0.22396335  0.13392345  0.91163815  1
  O  O278  1  0.23068412  0.62575195  0.41495876  1
  O  O279  1  0.21441278  0.62539168  0.92123297  1
  O  O280  1  0.55792579  0.14688187  0.42422694  1
  O  O281  1  0.54817705  0.13166944  0.92328161  1
  O  O282  1  0.56330108  0.63201621  0.41397436  1
  O  O283  1  0.56799949  0.62369019  0.91744774  1
  O  O284  1  0.90149210  0.14251072  0.42836140  1
  O  O285  1  0.90110379  0.12274550  0.91612312  1
  O  O286  1  0.89647664  0.64016406  0.41397727  1
  O  O287  1  0.89158551  0.64982156  0.91300752  1
  O  O288  1  0.16325270  0.00038582  0.08696808  1
  O  O289  1  0.16659054  0.00311831  0.56266208  1
  O  O290  1  0.17048867  0.48865312  0.07211949  1
  O  O291  1  0.17527052  0.50822052  0.57353533  1
  O  O292  1  0.51331086  0.01510479  0.07643379  1
  O  O293  1  0.51997013  -0.00308251  0.58510300  1
  O  O294  1  0.49520726  0.50817490  0.07514657  1
  O  O295  1  0.52734208  0.50139831  0.58916775  1
  O  O296  1  0.81634490  0.00369558  0.07896860  1
  O  O297  1  0.83349236  0.00273998  0.58782425  1
  O  O298  1  0.84058537  0.50561028  0.08396550  1
  O  O299  1  0.82133747  0.49469883  0.59099494  1
  O  O300  1  -0.00639320  0.26113281  0.07791426  1
  O  O301  1  -0.02249133  0.25256086  0.58954410  1
  O  O302  1  0.00355831  0.75364391  0.08364543  1
  O  O303  1  -0.02413258  0.75610995  0.57958600  1
  O  O304  1  0.32682524  0.24228492  0.08550628  1
  O  O305  1  0.37598716  0.25151477  0.58548525  1
  O  O306  1  0.33016089  0.74103305  0.07764992  1
  O  O307  1  0.35946281  0.74556352  0.58347098  1
  O  O308  1  0.68604442  0.25515310  0.08707498  1
  O  O309  1  0.67301555  0.24785930  0.59010293  1
  O  O310  1  0.66417338  0.74464343  0.08661141  1
  O  O311  1  0.68375779  0.74961351  0.58302018  1
  O  O312  1  0.15276383  -0.00132077  0.41198199  1
  O  O313  1  0.15606534  0.00157390  0.91007594  1
  O  O314  1  0.15347950  0.50126884  0.41484045  1
  O  O315  1  0.14599294  0.49491532  0.91285092  1
  O  O316  1  0.48996837  -0.01153696  0.42839671  1
  O  O317  1  0.48386193  0.00067702  0.91209892  1
  O  O318  1  0.48636726  0.51044959  0.42979513  1
  O  O319  1  0.49735505  0.49450141  0.91232971  1
  O  O320  1  0.83145791  -0.01312178  0.42548260  1
  O  O321  1  0.83349796  -0.00855433  0.91688207  1
  O  O322  1  0.83317731  0.51198447  0.42846486  1
  O  O323  1  0.83894484  0.51737570  0.92531160  1
  O  O324  1  0.30333050  0.24943454  0.41460837  1
  O  O325  1  0.32075514  0.25033658  0.91252966  1
  O  O326  1  0.30819636  0.75034121  0.41580470  1
  O  O327  1  0.32252828  0.75911975  0.92049589  1
  O  O328  1  0.66982749  0.24893748  0.41705226  1
  O  O329  1  0.66873321  0.26021341  0.92457900  1
  O  O330  1  0.65424682  0.74882078  0.41795210  1
  O  O331  1  0.64691253  0.75068248  0.91881653  1
  O  O332  1  1.00599806  0.24931889  0.41055175  1
  O  O333  1  0.99390685  0.24364754  0.91460291  1
  O  O334  1  0.99986961  0.74990165  0.41514184  1
  O  O335  1  1.00527125  0.75067476  0.91075277  1
  O  O336  1  0.21037360  0.08289383  0.19392985  1
  O  O337  1  0.21291003  0.08771453  0.69532417  1
  O  O338  1  0.20903622  0.58256241  0.19996477  1
  O  O339  1  0.21038111  0.58255131  0.68935908  1
  O  O340  1  0.54457995  0.08628352  0.19492519  1
  O  O341  1  0.54560166  0.08099159  0.69589435  1
  O  O342  1  0.54838361  0.57364958  0.19424187  1
  O  O343  1  0.54711659  0.58457753  0.69712732  1
  O  O344  1  0.87389607  0.08117677  0.19159795  1
  O  O345  1  0.87608884  0.08438524  0.69753303  1
  O  O346  1  0.87689308  0.58469998  0.19552774  1
  O  O347  1  0.87404457  0.58195173  0.69510163  1
  O  O348  1  0.04044313  0.34307136  0.19132937  1
  O  O349  1  0.03839949  0.33385752  0.69430981  1
  O  O350  1  0.04407510  0.83434360  0.19260275  1
  O  O351  1  0.03940577  0.83440618  0.68902900  1
  O  O352  1  0.37303023  0.32947202  0.19235198  1
  O  O353  1  0.37975199  0.33468926  0.69306725  1
  O  O354  1  0.37811973  0.83460443  0.20085523  1
  O  O355  1  0.37876894  0.83215376  0.69097277  1
  O  O356  1  0.70306237  0.33579840  0.19571666  1
  O  O357  1  0.70978762  0.33112421  0.70030976  1
  O  O358  1  0.71124286  0.83228425  0.19317800  1
  O  O359  1  0.71921798  0.82789872  0.69363694  1
  O  O360  1  0.21026366  0.41880858  0.19069173  1
  O  O361  1  0.21073319  0.41621620  0.69822696  1
  O  O362  1  0.21023948  0.91686045  0.19360609  1
  O  O363  1  0.21436143  0.91494461  0.69491217  1
  O  O364  1  0.54470555  0.41488001  0.20199954  1
  O  O365  1  0.54826172  0.41828833  0.69903979  1
  O  O366  1  0.54451064  0.91846743  0.20205161  1
  O  O367  1  0.53713495  0.91661480  0.69356031  1
  O  O368  1  0.88041177  0.42624219  0.19521838  1
  O  O369  1  0.87543236  0.41497786  0.69897160  1
  O  O370  1  0.87714369  0.91584697  0.20217554  1
  O  O371  1  0.87549990  0.91701718  0.69439959  1
  O  O372  1  0.04673679  0.15806359  0.19736763  1
  O  O373  1  0.03873034  0.16840885  0.69284047  1
  O  O374  1  0.04260950  0.66794169  0.19134447  1
  O  O375  1  0.04518319  0.66488053  0.69897344  1
  O  O376  1  0.37518434  0.16572246  0.19668923  1
  O  O377  1  0.38089016  0.16688677  0.69228435  1
  O  O378  1  0.36440326  0.66581670  0.19249126  1
  O  O379  1  0.38264081  0.66477343  0.69456126  1
  O  O380  1  0.70573171  0.16962558  0.19828574  1
  O  O381  1  0.71273285  0.16715209  0.69912102  1
  O  O382  1  0.70586726  0.66481361  0.19603316  1
  O  O383  1  0.71351654  0.66473085  0.69543500  1
  O  O384  1  0.12115009  0.07985360  0.30322558  1
  O  O385  1  0.12000917  0.08853223  0.80246565  1
  O  O386  1  0.12242884  0.58583348  0.30498874  1
  O  O387  1  0.12327698  0.57962136  0.80414319  1
  O  O388  1  0.45412775  0.08176717  0.30059071  1
  O  O389  1  0.45494328  0.08589688  0.80483229  1
  O  O390  1  0.45095119  0.57735561  0.30967209  1
  O  O391  1  0.45992486  0.58311981  0.80693174  1
  O  O392  1  0.78841300  0.08125658  0.29990049  1
  O  O393  1  0.79356151  0.08061310  0.81013363  1
  O  O394  1  0.79047761  0.58237089  0.30968086  1
  O  O395  1  0.79225937  0.58688158  0.80824006  1
  O  O396  1  0.29302802  0.33359364  0.30605851  1
  O  O397  1  0.29027381  0.33189206  0.80239613  1
  O  O398  1  0.28658679  0.83367477  0.30506998  1
  O  O399  1  0.29220161  0.83339248  0.80341358  1
  O  O400  1  0.62381811  0.33393481  0.31158542  1
  O  O401  1  0.62357765  0.33514581  0.80929133  1
  O  O402  1  0.62578309  0.83250364  0.30710408  1
  O  O403  1  0.61756115  0.82718475  0.80708421  1
  O  O404  1  0.95380497  0.34372013  0.31040111  1
  O  O405  1  0.95776657  0.33134479  0.80804731  1
  O  O406  1  0.96060296  0.83163741  0.30471263  1
  O  O407  1  0.96107151  0.83368941  0.80275343  1
  O  O408  1  0.11805986  0.42277785  0.30398566  1
  O  O409  1  0.12100239  0.41357934  0.80362147  1
  O  O410  1  0.12296825  0.91515952  0.30277554  1
  O  O411  1  0.12039262  0.91473518  0.80136221  1
  O  O412  1  0.45078800  0.41583058  0.30085980  1
  O  O413  1  0.45463700  0.41592320  0.80306035  1
  O  O414  1  0.45639541  0.91783947  0.30995720  1
  O  O415  1  0.45859664  0.91573924  0.80283187  1
  O  O416  1  0.78747396  0.42056040  0.30274879  1
  O  O417  1  0.79060367  0.41842505  0.80369796  1
  O  O418  1  0.78897077  0.91398532  0.30795846  1
  O  O419  1  0.80334801  0.91452132  0.80718347  1
  O  O420  1  0.28834635  0.16373509  0.30635753  1
  O  O421  1  0.28979904  0.16959361  0.80253587  1
  O  O422  1  0.28945767  0.66827197  0.30570623  1
  O  O423  1  0.28808817  0.66590478  0.79645447  1
  O  O424  1  0.62202400  0.16533682  0.31006688  1
  O  O425  1  0.62233488  0.16710018  0.80154818  1
  O  O426  1  0.63321835  0.66752287  0.30729793  1
  O  O427  1  0.62274687  0.66538889  0.80772365  1
  O  O428  1  0.94969333  0.15785859  0.30842892  1
  O  O429  1  0.95765471  0.16421998  0.80519750  1
  O  O430  1  0.96474270  0.66847958  0.30506257  1
  O  O431  1  0.95682553  0.66771772  0.80230085  1
  F  F432  1  0.04379460  -0.00246062  0.20102609  1
  F  F433  1  0.03749368  0.00122718  0.69595719  1
  F  F434  1  0.04328115  0.50458644  0.20081851  1
  F  F435  1  0.04360022  0.49787981  0.70179700  1
  F  F436  1  0.37744327  -0.00128091  0.20228360  1
  F  F437  1  0.38261713  0.00128219  0.70008933  1
  F  F438  1  0.37664247  0.50005568  0.20127611  1
  F  F439  1  0.38228515  0.50100091  0.70182659  1
  F  F440  1  0.70855949  -0.00134395  0.20277521  1
  F  F441  1  0.71773557  0.01027743  0.70195735  1
  F  F442  1  0.71242641  0.50224983  0.20319528  1
  F  F443  1  0.71080847  0.50259429  0.70537259  1
  F  F444  1  0.21484954  0.24434789  0.19823164  1
  F  F445  1  0.21182785  0.25123755  0.69880191  1
  F  F446  1  0.21125493  0.75072199  0.20166750  1
  F  F447  1  0.21244203  0.75170003  0.69794477  1
  F  F448  1  0.54607988  0.24981557  0.20807447  1
  F  F449  1  0.54697890  0.25272194  0.70294356  1
  F  F450  1  0.55117610  0.76012696  0.20058660  1
  F  F451  1  0.54124452  0.74805332  0.69893541  1
  F  F452  1  0.86223586  0.24808301  0.19901095  1
  F  F453  1  0.87588011  0.24985606  0.70715613  1
  F  F454  1  0.88088251  0.75209765  0.20095762  1
  F  F455  1  0.87951291  0.74971118  0.70085504  1
  F  F456  1  0.28544384  -0.00160777  0.29724353  1
  F  F457  1  0.29833904  0.00036451  0.79897545  1
  F  F458  1  0.28557269  0.49781902  0.29830078  1
  F  F459  1  0.28923594  0.50075026  0.79613211  1
  F  F460  1  0.62249458  0.00065932  0.30097219  1
  F  F461  1  0.61710659  0.00770836  0.80443788  1
  F  F462  1  0.62179819  0.50217525  0.30300990  1
  F  F463  1  0.62221939  0.50288354  0.80067573  1
  F  F464  1  0.95664875  -0.00079438  0.29885091  1
  F  F465  1  0.95725764  -0.00008329  0.79671911  1
  F  F466  1  0.95649458  0.50556944  0.30007768  1
  F  F467  1  0.95613990  0.50047170  0.79797292  1
  F  F468  1  0.13473632  0.24822620  0.30347657  1
  F  F469  1  0.12173875  0.25034095  0.79435950  1
  F  F470  1  0.12131340  0.75052843  0.29505433  1
  F  F471  1  0.12339142  0.75315184  0.79409354  1
  F  F472  1  0.45110651  0.24942327  0.29893837  1
  F  F473  1  0.45295467  0.25062353  0.79604789  1
  F  F474  1  0.45104059  0.75792459  0.30451846  1
  F  F475  1  0.45334563  0.75031694  0.79715812  1
  F  F476  1  0.78493758  0.24521036  0.30550126  1
  F  F477  1  0.78982465  0.24835981  0.80335403  1
  F  F478  1  0.78759765  0.75422183  0.29947363  1
  F  F479  1  0.79751868  0.74972872  0.80175541  1
