# generated using pymatgen
data_K24Na3Li5Mg64Fe17Si79(O5F)48
_symmetry_space_group_name_H-M   'P 1'
_cell_length_a   16.09235487
_cell_length_b   18.58375355
_cell_length_c   20.55096534
_cell_angle_alpha   89.98854422
_cell_angle_beta   100.01133128
_cell_angle_gamma   90.02834124
_symmetry_Int_Tables_number   1
_chemical_formula_structural   K24Na3Li5Mg64Fe17Si79(O5F)48
_chemical_formula_sum   'K24 Na3 Li5 Mg64 Fe17 Si79 O240 F48'
_cell_volume   6052.31488331
_cell_formula_units_Z   1
loop_
 _symmetry_equiv_pos_site_id
 _symmetry_equiv_pos_as_xyz
  1  'x, y, z'
loop_
 _atom_site_type_symbol
 _atom_site_label
 _atom_site_symmetry_multiplicity
 _atom_site_fract_x
 _atom_site_fract_y
 _atom_site_fract_z
 _atom_site_occupancy
  K  K0  1  -0.00445258  0.00514748  -0.00084762  1
  K  K1  1  0.00053419  0.00515128  0.49842752  1
  K  K2  1  -0.00312319  0.49639952  -0.00228223  1
  K  K3  1  0.00749579  0.49968705  0.49932488  1
  K  K4  1  0.33720785  -0.00310108  0.00453714  1
  K  K5  1  0.33333601  0.01209839  0.49249253  1
  K  K6  1  0.33851173  0.49553682  0.01923782  1
  K  K7  1  0.33768357  0.49823452  0.48883183  1
  K  K8  1  0.66319963  0.00407532  -0.00389976  1
  K  K9  1  0.65595023  0.00598008  0.49553872  1
  K  K10  1  0.66104579  0.50017899  -0.00062734  1
  K  K11  1  0.65401488  0.50031706  0.50204168  1
  K  K12  1  0.16823698  0.25705425  0.00463665  1
  K  K13  1  0.18462283  0.24942889  0.49270984  1
  K  K14  1  0.16676208  0.74569061  0.00714915  1
  K  K15  1  0.16766533  0.75540443  0.49412925  1
  K  K16  1  0.49084685  0.25113082  -0.00310884  1
  K  K17  1  0.49572452  0.24668954  0.50011161  1
  K  K18  1  0.50096344  0.73744276  0.01033082  1
  K  K19  1  0.49418306  0.74069284  0.49224192  1
  K  K20  1  0.84234206  0.24913174  -0.01029460  1
  K  K21  1  0.82589589  0.25156433  0.51345636  1
  K  K22  1  0.82369234  0.74631181  0.00270746  1
  K  K23  1  0.83149159  0.74975828  0.50016949  1
  Na  Na24  1  0.49945782  0.00005525  0.25123530  1
  Na  Na25  1  0.33811949  0.41887227  0.24776307  1
  Na  Na26  1  0.49987542  0.32408672  0.74538783  1
  Li  Li27  1  0.33660561  0.25512270  0.25670693  1
  Li  Li28  1  0.48865428  0.50424579  0.24716286  1
  Li  Li29  1  0.49688871  0.16875171  0.74785593  1
  Li  Li30  1  0.83446997  0.33453339  0.76134366  1
  Li  Li31  1  0.33976520  0.08914872  0.75069428  1
  Mg  Mg32  1  0.66707145  0.74792793  0.74960785  1
  Mg  Mg33  1  0.00094467  0.74927627  0.75417355  1
  Mg  Mg34  1  0.83219740  0.49741757  0.75652654  1
  Mg  Mg35  1  0.83283476  0.00317176  0.75019226  1
  Mg  Mg36  1  0.16783229  0.50347642  0.25213880  1
  Mg  Mg37  1  0.66699598  0.24837264  0.74609867  1
  Mg  Mg38  1  0.83202908  0.49916098  0.25174279  1
  Mg  Mg39  1  0.33293004  0.74995966  0.74872928  1
  Mg  Mg40  1  0.33613938  0.24534309  0.74986608  1
  Mg  Mg41  1  0.49986653  0.49793955  0.74570049  1
  Mg  Mg42  1  0.83440224  0.00066268  0.25115035  1
  Mg  Mg43  1  0.66481713  0.74918743  0.25269215  1
  Mg  Mg44  1  0.66668458  0.24885518  0.24896402  1
  Mg  Mg45  1  0.00297013  0.25219378  0.24985327  1
  Mg  Mg46  1  -0.00510063  0.25005705  0.75177545  1
  Mg  Mg47  1  0.33222604  0.75038761  0.25022927  1
  Mg  Mg48  1  0.16529400  0.49954019  0.75380868  1
  Mg  Mg49  1  0.17122660  0.00307682  0.75045225  1
  Mg  Mg50  1  -0.00031911  0.74906275  0.25077312  1
  Mg  Mg51  1  0.49668692  0.00411770  0.74485648  1
  Mg  Mg52  1  0.16946865  0.00181015  0.24820917  1
  Mg  Mg53  1  0.16577426  0.83525802  0.24919521  1
  Mg  Mg54  1  0.66114520  0.41675683  0.24860932  1
  Mg  Mg55  1  0.66281221  0.58150266  0.25355350  1
  Mg  Mg56  1  0.33169519  0.08731992  0.24453836  1
  Mg  Mg57  1  0.83607940  0.66401137  0.75388647  1
  Mg  Mg58  1  0.49914478  0.66412543  0.74791311  1
  Mg  Mg59  1  0.00270415  0.41805781  0.25472193  1
  Mg  Mg60  1  0.33193073  0.58315252  0.74792332  1
  Mg  Mg61  1  0.66222145  0.08716899  0.74702950  1
  Mg  Mg62  1  0.66659177  0.08252832  0.24889394  1
  Mg  Mg63  1  0.83412369  0.16946310  0.74920992  1
  Mg  Mg64  1  -0.00191018  0.41440931  0.75490739  1
  Mg  Mg65  1  0.33462766  0.92019612  0.74771432  1
  Mg  Mg66  1  0.16662522  0.66470642  0.75294070  1
  Mg  Mg67  1  0.83324404  0.83444507  0.25220966  1
  Mg  Mg68  1  0.66552192  0.91699141  0.74819653  1
  Mg  Mg69  1  0.16585537  0.66580337  0.25178486  1
  Mg  Mg70  1  0.66666571  0.91551913  0.25289095  1
  Mg  Mg71  1  0.00088362  0.58531872  0.25337558  1
  Mg  Mg72  1  0.33315361  0.58506112  0.24895130  1
  Mg  Mg73  1  0.83494449  0.16661071  0.24917196  1
  Mg  Mg74  1  0.49924469  0.83455225  0.74778341  1
  Mg  Mg75  1  0.16892016  0.83471886  0.74918205  1
  Mg  Mg76  1  0.33370389  0.41372233  0.74750127  1
  Mg  Mg77  1  0.83557774  0.83460302  0.75182496  1
  Mg  Mg78  1  0.50102432  0.83368103  0.25042420  1
  Mg  Mg79  1  0.16849783  0.16553390  0.75022339  1
  Mg  Mg80  1  0.49858471  0.33382798  0.24743773  1
  Mg  Mg81  1  0.83144372  0.66504257  0.25077630  1
  Mg  Mg82  1  0.00172289  0.58410624  0.75653061  1
  Mg  Mg83  1  0.17163138  0.16974375  0.24656834  1
  Mg  Mg84  1  0.00099170  0.08586404  0.75094311  1
  Mg  Mg85  1  0.00324709  0.08595792  0.24926877  1
  Mg  Mg86  1  0.66650356  0.58181218  0.74996837  1
  Mg  Mg87  1  0.00032601  0.91646836  0.24850684  1
  Mg  Mg88  1  0.17273657  0.33597643  0.25147911  1
  Mg  Mg89  1  0.33140278  0.91772955  0.24907090  1
  Mg  Mg90  1  0.49857472  0.66272220  0.25045206  1
  Mg  Mg91  1  0.83351122  0.33354171  0.25156948  1
  Mg  Mg92  1  0.49495433  0.16743265  0.24489699  1
  Mg  Mg93  1  0.00285092  0.91737476  0.75137308  1
  Mg  Mg94  1  0.16635892  0.33272094  0.75217587  1
  Mg  Mg95  1  0.66719879  0.41278865  0.75000920  1
  Fe  Fe96  1  0.35732687  0.32462129  0.10879508  1
  Fe  Fe97  1  0.64366087  0.83369472  0.39300443  1
  Fe  Fe98  1  0.52732806  0.58096932  0.11178881  1
  Fe  Fe99  1  0.18537837  0.91245916  0.10795024  1
  Fe  Fe100  1  0.52441437  0.58493248  0.60834392  1
  Fe  Fe101  1  0.98028674  0.33440250  0.89319548  1
  Fe  Fe102  1  0.79967775  0.58533747  0.89289454  1
  Fe  Fe103  1  0.97426797  0.67109685  0.89532620  1
  Fe  Fe104  1  0.47557840  0.57967595  0.39075101  1
  Fe  Fe105  1  0.30744495  0.67307837  0.39281356  1
  Fe  Fe106  1  0.14625405  0.58217781  0.89380448  1
  Fe  Fe107  1  0.97927184  0.15990033  0.89281172  1
  Fe  Fe108  1  0.18645134  0.08344466  0.10527819  1
  Fe  Fe109  1  0.31001703  0.16569763  0.38800533  1
  Fe  Fe110  1  0.01685942  0.66358245  0.11165910  1
  Fe  Fe111  1  0.13511239  0.58666481  0.39471599  1
  Fe  Fe112  1  0.68919798  0.16569823  0.60724713  1
  Si  Si113  1  0.80131492  0.57953162  0.38589371  1
  Si  Si114  1  0.86218297  0.08714093  0.11483740  1
  Si  Si115  1  0.62838751  0.66766456  0.88735818  1
  Si  Si116  1  0.69866387  0.83586280  0.11501483  1
  Si  Si117  1  0.85487610  0.41516369  0.11859975  1
  Si  Si118  1  0.69599818  0.32808675  0.11452063  1
  Si  Si119  1  0.02357261  0.17586250  0.11370459  1
  Si  Si120  1  0.13626877  0.91635546  0.38542770  1
  Si  Si121  1  0.96167193  0.66689569  0.39031113  1
  Si  Si122  1  0.19011898  0.92045778  0.61286869  1
  Si  Si123  1  0.02110482  0.34046476  0.11780263  1
  Si  Si124  1  0.81207359  0.92210826  0.38884681  1
  Si  Si125  1  0.46509735  0.58216086  0.88292974  1
  Si  Si126  1  0.69943748  0.66897454  0.61284811  1
  Si  Si127  1  0.63612113  0.16731337  0.88366033  1
  Si  Si128  1  0.30990125  0.16611555  0.88278634  1
  Si  Si129  1  0.86238543  0.91552595  0.61510309  1
  Si  Si130  1  0.85537371  0.57640132  0.11687422  1
  Si  Si131  1  0.85884983  0.42167192  0.61717788  1
  Si  Si132  1  0.86296421  0.08052528  0.61099665  1
  Si  Si133  1  0.01560320  0.82955194  0.11232585  1
  Si  Si134  1  0.64527987  0.66616997  0.39040399  1
  Si  Si135  1  0.64449853  0.16514071  0.38303204  1
  Si  Si136  1  0.03086156  0.66677865  0.61491692  1
  Si  Si137  1  0.15302722  0.41676333  0.88980849  1
  Si  Si138  1  0.48413738  0.41116397  0.38556661  1
  Si  Si139  1  0.80648053  0.91557964  0.88515749  1
  Si  Si140  1  0.30776442  0.67108062  0.88553617  1
  Si  Si141  1  0.69703103  0.66932573  0.11459658  1
  Si  Si142  1  0.53078632  0.40917034  0.10769141  1
  Si  Si143  1  0.80322779  0.41454393  0.89299240  1
  Si  Si144  1  0.36356658  0.15514668  0.10377310  1
  Si  Si145  1  0.14485510  0.41575165  0.39131720  1
  Si  Si146  1  0.52087376  0.41531480  0.61069592  1
  Si  Si147  1  0.51965866  0.07853815  0.60891546  1
  Si  Si148  1  0.97223327  0.16850771  0.38537157  1
  Si  Si149  1  0.63794019  0.33206166  0.88405627  1
  Si  Si150  1  0.02656713  0.16874471  0.61393349  1
  Si  Si151  1  0.31406576  0.83371648  0.88282467  1
  Si  Si152  1  0.31076066  0.32971389  0.88351538  1
  Si  Si153  1  0.47630169  0.92073076  0.88340294  1
  Si  Si154  1  0.19035888  0.41457152  0.61396477  1
  Si  Si155  1  0.47814090  0.08515985  0.38457271  1
  Si  Si156  1  0.15032047  0.07941725  0.88663878  1
  Si  Si157  1  0.63945203  0.83280895  0.88421415  1
  Si  Si158  1  0.18642347  0.41965691  0.11432728  1
  Si  Si159  1  0.80026561  0.08129775  0.88803351  1
  Si  Si160  1  0.86585072  0.58543582  0.61585296  1
  Si  Si161  1  0.02290435  0.33465685  0.61544209  1
  Si  Si162  1  0.47257894  0.91774679  0.38592353  1
  Si  Si163  1  0.53264734  0.07991866  0.11182301  1
  Si  Si164  1  0.35361561  0.83510457  0.61348759  1
  Si  Si165  1  0.02756598  0.83156305  0.61472486  1
  Si  Si166  1  0.35547518  0.16415010  0.61428617  1
  Si  Si167  1  0.47336242  0.08369714  0.88117216  1
  Si  Si168  1  0.35809652  0.66826489  0.11166042  1
  Si  Si169  1  0.36139597  0.83456719  0.11137777  1
  Si  Si170  1  0.69351780  0.83558792  0.61459453  1
  Si  Si171  1  0.19369665  0.58101526  0.61468668  1
  Si  Si172  1  0.35386067  0.32913285  0.61278754  1
  Si  Si173  1  0.86090229  0.92227513  0.11535027  1
  Si  Si174  1  0.30921126  0.84365793  0.38821280  1
  Si  Si175  1  0.35372718  0.67082679  0.61259129  1
  Si  Si176  1  0.97703696  0.33248670  0.38764986  1
  Si  Si177  1  0.52211517  0.91295086  0.61193053  1
  Si  Si178  1  0.69067577  0.33802894  0.61210005  1
  Si  Si179  1  0.47148775  0.41810760  0.88173982  1
  Si  Si180  1  0.64613660  0.32923876  0.38502650  1
  Si  Si181  1  0.15074356  0.91757222  0.88328026  1
  Si  Si182  1  0.81008962  0.41474517  0.38654430  1
  Si  Si183  1  0.69469044  0.16398656  0.11346119  1
  Si  Si184  1  0.53172811  0.91230791  0.11385309  1
  Si  Si185  1  0.13511281  0.08195115  0.38761859  1
  Si  Si186  1  0.98228102  0.84296723  0.88842106  1
  Si  Si187  1  0.80969311  0.08572967  0.38407951  1
  Si  Si188  1  0.31144365  0.33359008  0.38855316  1
  Si  Si189  1  0.18889270  0.08553613  0.61307685  1
  Si  Si190  1  0.19097666  0.58619826  0.11264825  1
  Si  Si191  1  0.97228754  0.83297331  0.38657917  1
  O  O192  1  0.28811374  0.09980111  0.07396237  1
  O  O193  1  0.26657215  0.12133092  0.58232309  1
  O  O194  1  0.27347977  0.61934838  0.08454909  1
  O  O195  1  0.27097360  0.61946890  0.58578331  1
  O  O196  1  0.61536379  0.11215173  0.08170230  1
  O  O197  1  0.58942687  0.11448870  0.57108816  1
  O  O198  1  0.61377016  0.63049937  0.07607042  1
  O  O199  1  0.61880263  0.62442914  0.57726507  1
  O  O200  1  0.94001685  0.12367144  0.08572957  1
  O  O201  1  0.94217458  0.12172000  0.58346740  1
  O  O202  1  0.93592878  0.59145224  0.08278515  1
  O  O203  1  0.94333893  0.62419252  0.58482514  1
  O  O204  1  0.09815747  0.37319974  0.08512049  1
  O  O205  1  0.09935337  0.37476672  0.58419023  1
  O  O206  1  0.09768171  0.84495256  0.07935151  1
  O  O207  1  0.10250248  0.87484621  0.58436118  1
  O  O208  1  0.45189041  0.35994194  0.07362518  1
  O  O209  1  0.43529890  0.36406580  0.58602265  1
  O  O210  1  0.44785620  0.86468494  0.08373200  1
  O  O211  1  0.43673096  0.86428342  0.58453350  1
  O  O212  1  0.78203069  0.35597002  0.08902894  1
  O  O213  1  0.76777761  0.38512336  0.58577546  1
  O  O214  1  0.77491569  0.87695865  0.08473873  1
  O  O215  1  0.76975232  0.87939906  0.58672623  1
  O  O216  1  0.26029247  0.38358100  0.08125325  1
  O  O217  1  0.26504070  0.37359050  0.58193848  1
  O  O218  1  0.28488371  0.88423525  0.07536728  1
  O  O219  1  0.27050369  0.88550565  0.58402842  1
  O  O220  1  0.61718459  0.37692078  0.08062873  1
  O  O221  1  0.60064877  0.37893068  0.58101026  1
  O  O222  1  0.61114165  0.87756010  0.08204605  1
  O  O223  1  0.60343096  0.87581100  0.58515208  1
  O  O224  1  0.93955805  0.39263831  0.08966554  1
  O  O225  1  0.93385263  0.37697916  0.58646185  1
  O  O226  1  0.94203834  0.89285532  0.08643398  1
  O  O227  1  0.93525764  0.86819596  0.58588610  1
  O  O228  1  0.10054720  0.15411883  0.07817395  1
  O  O229  1  0.10332879  0.13156593  0.58130658  1
  O  O230  1  0.11406984  0.63768551  0.07932720  1
  O  O231  1  0.10651957  0.62554910  0.58534870  1
  O  O232  1  0.45014612  0.12378765  0.07556202  1
  O  O233  1  0.42865331  0.12042669  0.58347165  1
  O  O234  1  0.43146843  0.63541788  0.07565444  1
  O  O235  1  0.43359591  0.64850339  0.58064657  1
  O  O236  1  0.77690438  0.13295771  0.08466365  1
  O  O237  1  0.77692790  0.11597320  0.57305745  1
  O  O238  1  0.77983089  0.63387249  0.08922527  1
  O  O239  1  0.78311706  0.63487745  0.58656394  1
  O  O240  1  0.05262198  0.11799449  0.41575421  1
  O  O241  1  0.07021257  0.09501967  0.92089268  1
  O  O242  1  0.03694734  0.61819797  0.42799405  1
  O  O243  1  0.05123041  0.60080022  0.92912954  1
  O  O244  1  0.40738090  0.11242907  0.42597193  1
  O  O245  1  0.39330306  0.11673412  0.91160529  1
  O  O246  1  0.39068379  0.61152698  0.43332784  1
  O  O247  1  0.38312616  0.61244967  0.91203070  1
  O  O248  1  0.72761865  0.11495492  0.41289239  1
  O  O249  1  0.71990897  0.11922322  0.91613114  1
  O  O250  1  0.71785524  0.60233974  0.41531766  1
  O  O251  1  0.70193456  0.61799480  0.92543407  1
  O  O252  1  0.23320437  0.37303675  0.41999305  1
  O  O253  1  0.22779902  0.35482039  0.91306437  1
  O  O254  1  0.22543739  0.87785564  0.41606577  1
  O  O255  1  0.22901914  0.86107489  0.91046837  1
  O  O256  1  0.56541755  0.35609459  0.41652406  1
  O  O257  1  0.55541989  0.36934781  0.90971489  1
  O  O258  1  0.54609762  0.86520903  0.42454884  1
  O  O259  1  0.56512211  0.87801690  0.91289892  1
  O  O260  1  0.89806786  0.37050488  0.41669913  1
  O  O261  1  0.88189627  0.36335995  0.92432568  1
  O  O262  1  0.89978159  0.87696500  0.41762870  1
  O  O263  1  0.89959166  0.88139176  0.91403881  1
  O  O264  1  0.06594591  0.37134829  0.41829094  1
  O  O265  1  0.07239653  0.39741163  0.92351372  1
  O  O266  1  0.06305912  0.87146369  0.41651122  1
  O  O267  1  0.06390199  0.89824611  0.91112368  1
  O  O268  1  0.39947084  0.37992616  0.41301882  1
  O  O269  1  0.39281161  0.38111416  0.91198904  1
  O  O270  1  0.38363230  0.90383190  0.41464311  1
  O  O271  1  0.39556317  0.88547902  0.91198956  1
  O  O272  1  0.73209034  0.37683097  0.41628779  1
  O  O273  1  0.71945954  0.37836283  0.91996795  1
  O  O274  1  0.73673110  0.89603378  0.42510782  1
  O  O275  1  0.73230597  0.86873656  0.91311168  1
  O  O276  1  0.21872218  0.12196943  0.42416895  1
  O  O277  1  0.23020551  0.13358953  0.91402555  1
  O  O278  1  0.21594597  0.65023671  0.43293436  1
  O  O279  1  0.22711036  0.65678206  0.91927415  1
  O  O280  1  0.56634520  0.13139321  0.41354039  1
  O  O281  1  0.55783675  0.12977956  0.91431013  1
  O  O282  1  0.56436560  0.64467332  0.42227084  1
  O  O283  1  0.54025348  0.63976970  0.91053492  1
  O  O284  1  0.88969694  0.13799521  0.41402703  1
  O  O285  1  0.88518336  0.11849997  0.92568589  1
  O  O286  1  0.87541115  0.63733376  0.41611841  1
  O  O287  1  0.87555239  0.65557306  0.92677992  1
  O  O288  1  0.14370270  -0.00281233  0.06884041  1
  O  O289  1  0.17454057  0.00220192  0.58276662  1
  O  O290  1  0.17299703  0.50296137  0.08469608  1
  O  O291  1  0.18167326  0.49817039  0.58604916  1
  O  O292  1  0.52227242  -0.00447279  0.08461644  1
  O  O293  1  0.50487383  -0.00662400  0.58019774  1
  O  O294  1  0.51925234  0.48885074  0.07449818  1
  O  O295  1  0.49946631  0.49222082  0.57408921  1
  O  O296  1  0.84483731  0.00486292  0.08632617  1
  O  O297  1  0.86752903  -0.00412881  0.58378407  1
  O  O298  1  0.82001633  0.49465056  0.09316346  1
  O  O299  1  0.85718000  0.50372774  0.58419564  1
  O  O300  1  -0.00675522  0.25890674  0.09127510  1
  O  O301  1  0.01324539  0.25182644  0.58506482  1
  O  O302  1  -0.02913662  0.75445355  0.08550012  1
  O  O303  1  0.02461981  0.74963490  0.58421003  1
  O  O304  1  0.34290053  0.23282125  0.06845078  1
  O  O305  1  0.34372416  0.24654567  0.58209823  1
  O  O306  1  0.34376357  0.75192992  0.08233189  1
  O  O307  1  0.32637355  0.75405091  0.58720404  1
  O  O308  1  0.67770946  0.24578066  0.08512984  1
  O  O309  1  0.68873479  0.26074332  0.57451538  1
  O  O310  1  0.69466675  0.75384068  0.08631773  1
  O  O311  1  0.69332784  0.75379426  0.58550021  1
  O  O312  1  0.13495297  -0.00204228  0.41603186  1
  O  O313  1  0.18559131  -0.00307587  0.90859468  1
  O  O314  1  0.14994949  0.49177973  0.42925268  1
  O  O315  1  0.19662083  0.49229147  0.91713418  1
  O  O316  1  0.50285702  0.00103823  0.40739018  1
  O  O317  1  0.48922104  0.00164975  0.91476692  1
  O  O318  1  0.50770835  0.48677058  0.42309645  1
  O  O319  1  0.48707549  0.50071532  0.91277864  1
  O  O320  1  0.83661979  0.00582634  0.41361830  1
  O  O321  1  0.79956123  -0.00376145  0.91550871  1
  O  O322  1  0.82691604  0.49749300  0.41464660  1
  O  O323  1  0.81851333  0.49280605  0.92900802  1
  O  O324  1  0.32500050  0.25731996  0.42811459  1
  O  O325  1  0.33228203  0.24777950  0.91197708  1
  O  O326  1  0.33418067  0.76915820  0.42627385  1
  O  O327  1  0.34310340  0.75312871  0.90947542  1
  O  O328  1  0.66792425  0.24638232  0.41250537  1
  O  O329  1  0.64594971  0.24921651  0.91528383  1
  O  O330  1  0.68431980  0.74212894  0.42217466  1
  O  O331  1  0.63968943  0.75213134  0.91530998  1
  O  O332  1  0.98655507  0.24970849  0.41627292  1
  O  O333  1  1.00681998  0.24605168  0.93458595  1
  O  O334  1  0.97359061  0.75161083  0.41732849  1
  O  O335  1  1.00732164  0.76756210  0.92332270  1
  O  O336  1  0.20556676  0.08398240  0.19771543  1
  O  O337  1  0.20309295  0.08307239  0.69226244  1
  O  O338  1  0.20680734  0.58565544  0.19321870  1
  O  O339  1  0.21029628  0.58298118  0.69485845  1
  O  O340  1  0.55236921  0.08748029  0.19089821  1
  O  O341  1  0.54520313  0.07499209  0.68841878  1
  O  O342  1  0.54952955  0.58479511  0.20195035  1
  O  O343  1  0.54501539  0.58475320  0.70045264  1
  O  O344  1  0.87827994  0.08527753  0.19546447  1
  O  O345  1  0.87806440  0.07922690  0.69163936  1
  O  O346  1  0.87477703  0.58101358  0.19820521  1
  O  O347  1  0.88186767  0.58453644  0.69565795  1
  O  O348  1  0.03989654  0.33783945  0.19840487  1
  O  O349  1  0.04455154  0.33406719  0.69514671  1
  O  O350  1  0.03683654  0.83425752  0.19430692  1
  O  O351  1  0.04528776  0.83388302  0.69493653  1
  O  O352  1  0.38309790  0.32181636  0.19669989  1
  O  O353  1  0.36354320  0.33047283  0.69176182  1
  O  O354  1  0.37736234  0.83478811  0.19231000  1
  O  O355  1  0.37458131  0.83518174  0.69405492  1
  O  O356  1  0.71320226  0.32967682  0.19520778  1
  O  O357  1  0.70569920  0.33449984  0.69185272  1
  O  O358  1  0.71530716  0.83663421  0.19515072  1
  O  O359  1  0.71045501  0.83517018  0.69522582  1
  O  O360  1  0.19670346  0.42015246  0.19415255  1
  O  O361  1  0.20770963  0.41505218  0.69418543  1
  O  O362  1  0.20791481  0.91637215  0.20073179  1
  O  O363  1  0.20898978  0.91752285  0.69293776  1
  O  O364  1  0.55004178  0.40707854  0.18820879  1
  O  O365  1  0.54473856  0.42163911  0.69028802  1
  O  O366  1  0.55124041  0.91035611  0.19294918  1
  O  O367  1  0.54218107  0.91377452  0.69257778  1
  O  O368  1  0.87587391  0.41467453  0.19930506  1
  O  O369  1  0.87904942  0.42380731  0.69631798  1
  O  O370  1  0.87596444  0.91941408  0.19601558  1
  O  O371  1  0.87925792  0.91589222  0.69555601  1
  O  O372  1  0.04005725  0.16931164  0.19484184  1
  O  O373  1  0.04606790  0.16592237  0.69378962  1
  O  O374  1  0.04065617  0.66769502  0.20354943  1
  O  O375  1  0.04674459  0.67025508  0.69463204  1
  O  O376  1  0.38444823  0.15566057  0.18393088  1
  O  O377  1  0.37153940  0.16657466  0.69269396  1
  O  O378  1  0.37653096  0.67172646  0.19191910  1
  O  O379  1  0.37319304  0.66875472  0.69392918  1
  O  O380  1  0.71394174  0.16463387  0.19396790  1
  O  O381  1  0.71447696  0.16246229  0.69829467  1
  O  O382  1  0.71111512  0.66849815  0.19564036  1
  O  O383  1  0.71207411  0.66970717  0.69375400  1
  O  O384  1  0.11906198  0.08364770  0.30718682  1
  O  O385  1  0.12670821  0.08218654  0.80522732  1
  O  O386  1  0.11963480  0.58366633  0.30300602  1
  O  O387  1  0.12360819  0.58409833  0.80034499  1
  O  O388  1  0.45389363  0.09295376  0.30541281  1
  O  O389  1  0.45823023  0.07790534  0.80270603  1
  O  O390  1  0.45101772  0.58694136  0.30116445  1
  O  O391  1  0.45065369  0.58336755  0.80247397  1
  O  O392  1  0.79344490  0.08525275  0.30360103  1
  O  O393  1  0.78795517  0.07988796  0.80734447  1
  O  O394  1  0.78909378  0.58136378  0.30552373  1
  O  O395  1  0.78603372  0.58448440  0.79979380  1
  O  O396  1  0.28461971  0.32927027  0.30997885  1
  O  O397  1  0.29061107  0.33194396  0.80308152  1
  O  O398  1  0.28886928  0.83647446  0.30761717  1
  O  O399  1  0.29325120  0.83535521  0.80207451  1
  O  O400  1  0.63133504  0.33096962  0.30489879  1
  O  O401  1  0.63080073  0.33055335  0.80516085  1
  O  O402  1  0.62461016  0.83367774  0.30114752  1
  O  O403  1  0.62239682  0.83388925  0.80364277  1
  O  O404  1  0.95687084  0.33273328  0.30728272  1
  O  O405  1  0.95874651  0.33197194  0.80145055  1
  O  O406  1  0.95493419  0.83489369  0.30618126  1
  O  O407  1  0.95983117  0.83827403  0.80678841  1
  O  O408  1  0.12325216  0.41670265  0.31054291  1
  O  O409  1  0.12793826  0.41516437  0.80754568  1
  O  O410  1  0.11766580  0.91739376  0.30543973  1
  O  O411  1  0.12811017  0.91595128  0.80240129  1
  O  O412  1  0.47330342  0.41351242  0.30668449  1
  O  O413  1  0.45094917  0.42287713  0.80246364  1
  O  O414  1  0.45268942  0.90787522  0.30643851  1
  O  O415  1  0.45838344  0.91677503  0.80312902  1
  O  O416  1  0.79240584  0.41350711  0.30634496  1
  O  O417  1  0.78599423  0.41957881  0.81201233  1
  O  O418  1  0.79442305  0.91824530  0.30776580  1
  O  O419  1  0.78927251  0.91606116  0.80444741  1
  O  O420  1  0.28883816  0.16729918  0.29788378  1
  O  O421  1  0.28668346  0.16680881  0.80337487  1
  O  O422  1  0.28686369  0.67059430  0.30006433  1
  O  O423  1  0.29036510  0.66893500  0.80397914  1
  O  O424  1  0.62884595  0.16500496  0.30293456  1
  O  O425  1  0.62381490  0.16525532  0.80462582  1
  O  O426  1  0.62843758  0.66747619  0.30903955  1
  O  O427  1  0.62012530  0.66985650  0.80656106  1
  O  O428  1  0.95614834  0.16831539  0.30494575  1
  O  O429  1  0.95511619  0.16371852  0.79983938  1
  O  O430  1  0.94985325  0.66727226  0.30962264  1
  O  O431  1  0.95656439  0.66944407  0.80121929  1
  F  F432  1  0.04186236  0.00147818  0.20249422  1
  F  F433  1  0.04689418  -0.00058801  0.70223548  1
  F  F434  1  0.04081047  0.49920757  0.20557898  1
  F  F435  1  0.04449870  0.49816545  0.70362397  1
  F  F436  1  0.36738069  -0.00113395  0.19958065  1
  F  F437  1  0.38018835  -0.00785009  0.69398373  1
  F  F438  1  0.37489044  0.51255883  0.19149958  1
  F  F439  1  0.37492616  0.50024304  0.69739398  1
  F  F440  1  0.71628859  -0.00033580  0.20072691  1
  F  F441  1  0.71325967  -0.00261443  0.70090737  1
  F  F442  1  0.71372657  0.49781252  0.20251028  1
  F  F443  1  0.71265142  0.49808500  0.70211917  1
  F  F444  1  0.19566359  0.25495731  0.19608729  1
  F  F445  1  0.20899013  0.24968678  0.70101973  1
  F  F446  1  0.20887244  0.75324818  0.20242811  1
  F  F447  1  0.21118487  0.75108341  0.70085815  1
  F  F448  1  0.55178434  0.24714247  0.19924172  1
  F  F449  1  0.55341233  0.23759233  0.69212540  1
  F  F450  1  0.54665608  0.74855305  0.20141535  1
  F  F451  1  0.54552235  0.75140733  0.70105111  1
  F  F452  1  0.87925937  0.25058472  0.20317961  1
  F  F453  1  0.88273965  0.24154244  0.69259172  1
  F  F454  1  0.87640697  0.75097819  0.20519069  1
  F  F455  1  0.87994609  0.75472516  0.70195134  1
  F  F456  1  0.28760937  0.00149997  0.30126555  1
  F  F457  1  0.28909794  -0.00371367  0.79672017  1
  F  F458  1  0.28313651  0.50941451  0.30135229  1
  F  F459  1  0.28869658  0.49897495  0.79425528  1
  F  F460  1  0.63808753  0.00122072  0.30190403  1
  F  F461  1  0.61985491  -0.00216293  0.79545175  1
  F  F462  1  0.63736460  0.49596623  0.30432756  1
  F  F463  1  0.61965441  0.49785649  0.79814809  1
  F  F464  1  0.95475220  0.00185036  0.29842156  1
  F  F465  1  0.95465370  -0.00042493  0.79682646  1
  F  F466  1  0.95233402  0.49884926  0.30216930  1
  F  F467  1  0.95509950  0.50030910  0.80105446  1
  F  F468  1  0.11880220  0.25022821  0.29985306  1
  F  F469  1  0.12083729  0.24822052  0.79669813  1
  F  F470  1  0.11867554  0.75639312  0.30090569  1
  F  F471  1  0.12417440  0.75350245  0.79726695  1
  F  F472  1  0.47030359  0.24832832  0.30009085  1
  F  F473  1  0.44762556  0.24137866  0.80423886  1
  F  F474  1  0.45485172  0.75037312  0.29575922  1
  F  F475  1  0.45465327  0.75161090  0.79532766  1
  F  F476  1  0.79035503  0.24812471  0.29865831  1
  F  F477  1  0.78729560  0.24718469  0.79783697  1
  F  F478  1  0.78856698  0.75094722  0.29892211  1
  F  F479  1  0.78699414  0.75329928  0.79744598  1
