# generated using pymatgen
data_K24Na3Li5Mg64Fe17Si79(O5F)48
_symmetry_space_group_name_H-M   'P 1'
_cell_length_a   16.09263404
_cell_length_b   18.58681696
_cell_length_c   20.54958231
_cell_angle_alpha   89.99946955
_cell_angle_beta   100.01008754
_cell_angle_gamma   90.00014824
_symmetry_Int_Tables_number   1
_chemical_formula_structural   K24Na3Li5Mg64Fe17Si79(O5F)48
_chemical_formula_sum   'K24 Na3 Li5 Mg64 Fe17 Si79 O240 F48'
_cell_volume   6053.03417286
_cell_formula_units_Z   1
loop_
 _symmetry_equiv_pos_site_id
 _symmetry_equiv_pos_as_xyz
  1  'x, y, z'
loop_
 _atom_site_type_symbol
 _atom_site_label
 _atom_site_symmetry_multiplicity
 _atom_site_fract_x
 _atom_site_fract_y
 _atom_site_fract_z
 _atom_site_occupancy
  K  K0  1  0.02138611  0.00751347  0.00677271  1
  K  K1  1  0.00519167  -0.00182515  0.50349022  1
  K  K2  1  0.00186091  0.50406100  0.00646580  1
  K  K3  1  0.00208283  0.49264866  0.49120051  1
  K  K4  1  0.32794864  0.00211888  -0.00058201  1
  K  K5  1  0.33144348  0.00857415  0.49662123  1
  K  K6  1  0.33510378  0.49754026  -0.00241220  1
  K  K7  1  0.32613160  0.49933204  0.50305620  1
  K  K8  1  0.65737841  0.00213604  -0.00235449  1
  K  K9  1  0.67066542  -0.00622295  0.50318910  1
  K  K10  1  0.66607289  0.48751310  0.00029462  1
  K  K11  1  0.67379299  0.49381419  0.50133659  1
  K  K12  1  0.17365471  0.23964859  0.01191801  1
  K  K13  1  0.16913551  0.24627465  0.49879102  1
  K  K14  1  0.15847608  0.76265966  -0.00009046  1
  K  K15  1  0.16795761  0.74890877  0.50192597  1
  K  K16  1  0.49308440  0.24201596  -0.00635769  1
  K  K17  1  0.49610290  0.24655749  0.50311893  1
  K  K18  1  0.49539939  0.75831563  0.00093750  1
  K  K19  1  0.49897236  0.76062821  0.50447365  1
  K  K20  1  0.84001469  0.24102154  0.00446289  1
  K  K21  1  0.81926507  0.25368319  0.49737679  1
  K  K22  1  0.83416650  0.75330512  0.00207093  1
  K  K23  1  0.83932550  0.75882934  0.50090177  1
  Na  Na24  1  0.33261087  0.75128222  0.75010351  1
  Na  Na25  1  0.32954870  0.07971168  0.25079370  1
  Na  Na26  1  0.33725995  0.41704095  0.74804791  1
  Li  Li27  1  0.17321499  0.00357358  0.25430532  1
  Li  Li28  1  0.16833421  -0.00111989  0.75562722  1
  Li  Li29  1  0.49513228  0.33177026  0.74629578  1
  Li  Li30  1  0.66125598  0.91562996  0.25063988  1
  Li  Li31  1  0.50327407  0.83813571  0.25044641  1
  Mg  Mg32  1  0.33717241  0.75056047  0.25092849  1
  Mg  Mg33  1  0.83299956  0.49834793  0.25007004  1
  Mg  Mg34  1  0.66515454  0.25070059  0.74903619  1
  Mg  Mg35  1  0.66519832  0.24812644  0.25101827  1
  Mg  Mg36  1  0.00117728  0.75312547  0.75128267  1
  Mg  Mg37  1  0.66711968  0.75010973  0.74642330  1
  Mg  Mg38  1  0.66355445  0.75523707  0.24870927  1
  Mg  Mg39  1  0.83024931  -0.00014082  0.24929956  1
  Mg  Mg40  1  0.00015568  0.75125169  0.25061372  1
  Mg  Mg41  1  0.83294155  0.49810088  0.74796849  1
  Mg  Mg42  1  0.50115438  -0.00524525  0.24987996  1
  Mg  Mg43  1  0.33811220  0.25116100  0.75130386  1
  Mg  Mg44  1  0.33071642  0.24812009  0.24697415  1
  Mg  Mg45  1  0.49841547  0.49806290  0.74601908  1
  Mg  Mg46  1  0.16871385  0.49996056  0.75079845  1
  Mg  Mg47  1  0.16494081  0.50243765  0.25093580  1
  Mg  Mg48  1  0.50139399  0.50118556  0.24880698  1
  Mg  Mg49  1  0.00055722  0.24907931  0.75034140  1
  Mg  Mg50  1  0.83455571  -0.00000484  0.74648048  1
  Mg  Mg51  1  0.49912996  0.00105875  0.75031368  1
  Mg  Mg52  1  0.00013389  0.24899055  0.24973873  1
  Mg  Mg53  1  0.66837507  0.41485139  0.25049339  1
  Mg  Mg54  1  0.83337555  0.66700723  0.25082730  1
  Mg  Mg55  1  0.66490698  0.58243546  0.74593375  1
  Mg  Mg56  1  0.33310161  0.41793151  0.24784457  1
  Mg  Mg57  1  0.66402482  0.07904129  0.24983337  1
  Mg  Mg58  1  0.83240637  0.66603138  0.74812335  1
  Mg  Mg59  1  0.66866387  0.58557344  0.25163679  1
  Mg  Mg60  1  0.66508791  0.08549411  0.74861970  1
  Mg  Mg61  1  0.00294953  0.91863662  0.25140267  1
  Mg  Mg62  1  0.83385315  0.16466726  0.25104018  1
  Mg  Mg63  1  0.66613137  0.91493016  0.74590909  1
  Mg  Mg64  1  0.50195995  0.66959271  0.24934798  1
  Mg  Mg65  1  0.00067904  0.41519095  0.74909025  1
  Mg  Mg66  1  0.33337294  0.58358648  0.74861474  1
  Mg  Mg67  1  0.00033601  0.58594662  0.25011275  1
  Mg  Mg68  1  0.83056717  0.16613232  0.74661383  1
  Mg  Mg69  1  0.82928049  0.33340998  0.74664680  1
  Mg  Mg70  1  0.16778600  0.66682264  0.75033859  1
  Mg  Mg71  1  0.49819031  0.33299149  0.24796587  1
  Mg  Mg72  1  0.00378131  0.08272312  0.24852831  1
  Mg  Mg73  1  0.49779801  0.66627223  0.74812549  1
  Mg  Mg74  1  0.16761807  0.83664150  0.75352017  1
  Mg  Mg75  1  0.16435482  0.66664821  0.25075808  1
  Mg  Mg76  1  0.49753851  0.83329648  0.74898913  1
  Mg  Mg77  1  0.00156135  0.91883630  0.75028154  1
  Mg  Mg78  1  0.16416239  0.16254987  0.24994927  1
  Mg  Mg79  1  0.33178598  0.91756284  0.75598790  1
  Mg  Mg80  1  0.83249906  0.83567224  0.74841866  1
  Mg  Mg81  1  -0.00178634  0.41582928  0.24999063  1
  Mg  Mg82  1  0.49567081  0.16238709  0.24970960  1
  Mg  Mg83  1  0.16962374  0.33314589  0.75144706  1
  Mg  Mg84  1  0.33428487  0.08409398  0.75372102  1
  Mg  Mg85  1  0.16822572  0.83613750  0.25043152  1
  Mg  Mg86  1  0.00027785  0.58445311  0.75074230  1
  Mg  Mg87  1  0.83330981  0.33479516  0.25133867  1
  Mg  Mg88  1  0.49808035  0.16782896  0.75181085  1
  Mg  Mg89  1  0.66025581  0.41261268  0.74553021  1
  Mg  Mg90  1  0.16641450  0.33453008  0.24858705  1
  Mg  Mg91  1  0.33338859  0.58591984  0.24949974  1
  Mg  Mg92  1  0.83038669  0.83640710  0.25094240  1
  Mg  Mg93  1  0.33450877  0.91530908  0.24856752  1
  Mg  Mg94  1  0.16999225  0.16419393  0.75281648  1
  Mg  Mg95  1  0.00245039  0.08284400  0.74971004  1
  Fe  Fe96  1  0.80840878  0.41559845  0.39178893  1
  Fe  Fe97  1  0.47378901  0.08155439  0.89352456  1
  Fe  Fe98  1  0.68802881  0.82907892  0.60647782  1
  Fe  Fe99  1  0.35876688  0.16792562  0.61088386  1
  Fe  Fe100  1  0.02482197  0.16796574  0.10826428  1
  Fe  Fe101  1  0.68406430  0.33737782  0.60532421  1
  Fe  Fe102  1  0.13983222  0.58468892  0.39211651  1
  Fe  Fe103  1  0.14145277  0.07949641  0.39319573  1
  Fe  Fe104  1  0.35654067  0.66901176  0.60904531  1
  Fe  Fe105  1  0.02084795  0.66805401  0.10916912  1
  Fe  Fe106  1  0.31106010  0.17135374  0.39069769  1
  Fe  Fe107  1  0.85158975  0.41537303  0.10973707  1
  Fe  Fe108  1  0.86324597  0.91729867  0.60858907  1
  Fe  Fe109  1  0.36709711  0.17187576  0.10562359  1
  Fe  Fe110  1  0.69082297  0.16509024  0.60859170  1
  Fe  Fe111  1  0.14381828  0.91864783  0.89301920  1
  Fe  Fe112  1  0.19597491  0.07849595  0.10559314  1
  Si  Si113  1  0.02854525  0.33084606  0.61523893  1
  Si  Si114  1  0.35450617  0.84107919  0.61497755  1
  Si  Si115  1  0.51652549  0.42244132  0.60977734  1
  Si  Si116  1  0.30763324  0.65991839  0.88661793  1
  Si  Si117  1  0.47321722  0.42137661  0.38215109  1
  Si  Si118  1  0.53345787  0.58395788  0.11482875  1
  Si  Si119  1  0.31361242  0.33890818  0.38357438  1
  Si  Si120  1  0.03182356  0.16633698  0.61663662  1
  Si  Si121  1  0.80941094  0.41733220  0.88493130  1
  Si  Si122  1  0.80256448  0.08476956  0.38546703  1
  Si  Si123  1  0.80763359  0.91924112  0.38481097  1
  Si  Si124  1  0.80763192  0.58208557  0.88416763  1
  Si  Si125  1  0.30402730  0.17317524  0.88990022  1
  Si  Si126  1  0.19497793  0.91922189  0.62007384  1
  Si  Si127  1  0.31339605  0.66714325  0.38671032  1
  Si  Si128  1  0.51922471  0.91801583  0.61323134  1
  Si  Si129  1  0.36538035  0.66239852  0.11364966  1
  Si  Si130  1  0.36116423  0.82729919  0.11493054  1
  Si  Si131  1  0.52383186  0.58436518  0.61220681  1
  Si  Si132  1  0.68966597  0.65737816  0.61124157  1
  Si  Si133  1  0.47742729  0.58111117  0.88656895  1
  Si  Si134  1  0.64522794  0.33383127  0.88600616  1
  Si  Si135  1  0.80772825  0.08187637  0.88503621  1
  Si  Si136  1  0.97414235  0.83651139  0.38635676  1
  Si  Si137  1  0.86425527  0.08887460  0.61111586  1
  Si  Si138  1  0.02567952  0.34088140  0.11025985  1
  Si  Si139  1  0.85023381  0.58345958  0.11203534  1
  Si  Si140  1  0.52939365  0.41888730  0.11404003  1
  Si  Si141  1  0.48114196  0.41692498  0.88510361  1
  Si  Si142  1  0.64456395  0.16827643  0.88971927  1
  Si  Si143  1  0.14626263  0.90900434  0.38819321  1
  Si  Si144  1  0.30888043  0.82804668  0.89142395  1
  Si  Si145  1  0.35941068  0.34302153  0.11038038  1
  Si  Si146  1  0.80463696  0.91651788  0.88572661  1
  Si  Si147  1  0.97004944  0.16809755  0.88402774  1
  Si  Si148  1  0.47789502  0.91406682  0.38493728  1
  Si  Si149  1  0.02649926  0.66791256  0.61599486  1
  Si  Si150  1  0.69298830  0.67299342  0.11527981  1
  Si  Si151  1  0.85401241  0.91963181  0.11533753  1
  Si  Si152  1  0.01807322  0.83730607  0.11341588  1
  Si  Si153  1  0.18790589  0.41593123  0.61595124  1
  Si  Si154  1  0.63612040  0.16467297  0.38449078  1
  Si  Si155  1  0.31395487  0.83093635  0.38492891  1
  Si  Si156  1  0.64198433  0.83029141  0.88434500  1
  Si  Si157  1  0.53084904  0.07873714  0.11302111  1
  Si  Si158  1  0.97439512  0.33406736  0.88498756  1
  Si  Si159  1  0.86217550  0.58397544  0.61451689  1
  Si  Si160  1  0.68597470  0.32400614  0.11222546  1
  Si  Si161  1  0.19364960  0.08096030  0.61841537  1
  Si  Si162  1  0.19293463  0.42204878  0.11460229  1
  Si  Si163  1  0.14326745  0.41207032  0.38674909  1
  Si  Si164  1  0.85591030  0.08281383  0.11350951  1
  Si  Si165  1  0.80504073  0.58699944  0.38778652  1
  Si  Si166  1  0.13892714  0.09176270  0.88762073  1
  Si  Si167  1  0.64310614  0.83312030  0.38376500  1
  Si  Si168  1  0.69019846  0.83594042  0.11463594  1
  Si  Si169  1  0.47660566  0.90919662  0.88974705  1
  Si  Si170  1  0.96704710  0.67106016  0.38848778  1
  Si  Si171  1  0.14166658  0.41621216  0.88684054  1
  Si  Si172  1  0.86477789  0.41734870  0.61201384  1
  Si  Si173  1  0.19378961  0.90624267  0.11260887  1
  Si  Si174  1  0.52737902  0.08021699  0.61334986  1
  Si  Si175  1  0.97320346  0.66597971  0.88564772  1
  Si  Si176  1  0.63306620  0.33180473  0.38579343  1
  Si  Si177  1  0.18722655  0.57941923  0.61265743  1
  Si  Si178  1  0.96971861  0.16119166  0.38789975  1
  Si  Si179  1  0.35418333  0.33432285  0.61187732  1
  Si  Si180  1  0.97037416  0.83250125  0.88913563  1
  Si  Si181  1  0.47792762  0.58484695  0.38365324  1
  Si  Si182  1  0.19530048  0.58736065  0.11152947  1
  Si  Si183  1  0.14004700  0.58239487  0.88696241  1
  Si  Si184  1  0.64026557  0.66966238  0.38530303  1
  Si  Si185  1  0.31044252  0.33687936  0.88631086  1
  Si  Si186  1  0.97836034  0.32646159  0.38808353  1
  Si  Si187  1  0.52353999  0.91519744  0.11595968  1
  Si  Si188  1  0.69166436  0.16123070  0.11734347  1
  Si  Si189  1  0.03448440  0.83319412  0.61426035  1
  Si  Si190  1  0.47844914  0.07678470  0.38679526  1
  Si  Si191  1  0.64222328  0.66493420  0.88368742  1
  O  O192  1  0.28097651  0.11407608  0.06496644  1
  O  O193  1  0.27196343  0.10058037  0.58226786  1
  O  O194  1  0.28216046  0.61382339  0.08406414  1
  O  O195  1  0.26323979  0.60679043  0.57741680  1
  O  O196  1  0.62197330  0.09974519  0.08994063  1
  O  O197  1  0.61403005  0.08941969  0.58336607  1
  O  O198  1  0.60897890  0.62460490  0.08488444  1
  O  O199  1  0.61650197  0.59599438  0.58810178  1
  O  O200  1  0.92965761  0.10828913  0.07538857  1
  O  O201  1  0.95412198  0.11329019  0.58703378  1
  O  O202  1  0.93051543  0.60495303  0.07764581  1
  O  O203  1  0.93747908  0.62661425  0.58613768  1
  O  O204  1  0.11336659  0.37083367  0.08474920  1
  O  O205  1  0.10965048  0.36122095  0.58470393  1
  O  O206  1  0.10324694  0.86305452  0.08576393  1
  O  O207  1  0.12234012  0.85936856  0.58999201  1
  O  O208  1  0.43607990  0.38821094  0.08300590  1
  O  O209  1  0.43263642  0.37304887  0.58200487  1
  O  O210  1  0.43806129  0.86778161  0.08459709  1
  O  O211  1  0.43823166  0.86591552  0.58407803  1
  O  O212  1  0.76245989  0.34990758  0.07635883  1
  O  O213  1  0.78265552  0.37553476  0.57611468  1
  O  O214  1  0.77172627  0.86824875  0.08432274  1
  O  O215  1  0.77735474  0.85761078  0.56764220  1
  O  O216  1  0.27598452  0.39471717  0.08520867  1
  O  O217  1  0.27256785  0.39104149  0.58849401  1
  O  O218  1  0.26843283  0.85979248  0.08306484  1
  O  O219  1  0.27896457  0.90026785  0.58758438  1
  O  O220  1  0.60109139  0.37374519  0.08372028  1
  O  O221  1  0.59380421  0.40062398  0.57260460  1
  O  O222  1  0.60366514  0.88029780  0.08384817  1
  O  O223  1  0.59586715  0.89162921  0.57738499  1
  O  O224  1  0.95296222  0.39865140  0.07898389  1
  O  O225  1  0.94873405  0.38331363  0.58644625  1
  O  O226  1  0.93814495  0.89342253  0.08638244  1
  O  O227  1  0.95963026  0.88274312  0.57595020  1
  O  O228  1  0.10357620  0.13022363  0.06318246  1
  O  O229  1  0.11487825  0.13720177  0.58910518  1
  O  O230  1  0.11891516  0.63756284  0.07609596  1
  O  O231  1  0.10142744  0.62756022  0.58584255  1
  O  O232  1  0.46416821  0.13556038  0.07573425  1
  O  O233  1  0.45764610  0.13891184  0.58105341  1
  O  O234  1  0.44370131  0.62322470  0.08436914  1
  O  O235  1  0.45785748  0.64446599  0.57767870  1
  O  O236  1  0.77534464  0.13770164  0.08719162  1
  O  O237  1  0.79597460  0.14965978  0.58170666  1
  O  O238  1  0.77504586  0.64472959  0.08607322  1
  O  O239  1  0.77407547  0.62493105  0.58456555  1
  O  O240  1  0.03986213  0.10598705  0.42343455  1
  O  O241  1  0.05707556  0.12789683  0.91525692  1
  O  O242  1  0.04548773  0.62322519  0.42453200  1
  O  O243  1  0.06253217  0.62396737  0.91509847  1
  O  O244  1  0.40025934  0.10548215  0.41849157  1
  O  O245  1  0.38241160  0.12495064  0.92526017  1
  O  O246  1  0.39590718  0.61410476  0.41268042  1
  O  O247  1  0.39691561  0.61638816  0.91626537  1
  O  O248  1  0.72234281  0.11942661  0.41405246  1
  O  O249  1  0.73360331  0.12298588  0.91643012  1
  O  O250  1  0.72047205  0.61801475  0.41459630  1
  O  O251  1  0.72952628  0.62015331  0.91369365  1
  O  O252  1  0.22914520  0.36478259  0.41256037  1
  O  O253  1  0.23444020  0.38096890  0.91653604  1
  O  O254  1  0.22927136  0.85524307  0.41398964  1
  O  O255  1  0.24063599  0.86359115  0.93086060  1
  O  O256  1  0.54732503  0.36354964  0.41068182  1
  O  O257  1  0.56807705  0.37226871  0.91839422  1
  O  O258  1  0.56264717  0.86522915  0.41472565  1
  O  O259  1  0.56390345  0.86150483  0.91689668  1
  O  O260  1  0.90561543  0.36127606  0.42402975  1
  O  O261  1  0.89994042  0.37780435  0.91455396  1
  O  O262  1  0.89703367  0.87764333  0.41564954  1
  O  O263  1  0.88676033  0.86685197  0.91573048  1
  O  O264  1  0.06720394  0.36958781  0.41536754  1
  O  O265  1  0.06586875  0.37254345  0.91510713  1
  O  O266  1  0.06452350  0.87320424  0.41788247  1
  O  O267  1  0.05223988  0.87408666  0.92674932  1
  O  O268  1  0.38567994  0.40279575  0.40833724  1
  O  O269  1  0.39910704  0.38167019  0.91340661  1
  O  O270  1  0.39687681  0.88052530  0.41545314  1
  O  O271  1  0.40376986  0.86232089  0.91866164  1
  O  O272  1  0.71226568  0.37867675  0.42193306  1
  O  O273  1  0.73257809  0.38007910  0.91611927  1
  O  O274  1  0.72950067  0.87975171  0.41367754  1
  O  O275  1  0.72582335  0.87851478  0.91527851  1
  O  O276  1  0.22261913  0.14397522  0.43190726  1
  O  O277  1  0.21616947  0.14855410  0.91432738  1
  O  O278  1  0.23678287  0.64101359  0.42218536  1
  O  O279  1  0.23094785  0.61984772  0.91881831  1
  O  O280  1  0.56204622  0.12703238  0.41720209  1
  O  O281  1  0.57395708  0.13416412  0.92767780  1
  O  O282  1  0.55821658  0.63674815  0.41328450  1
  O  O283  1  0.56406448  0.62843469  0.91510301  1
  O  O284  1  0.88140260  0.13755208  0.41457415  1
  O  O285  1  0.89452249  0.12676356  0.91390838  1
  O  O286  1  0.87998760  0.64539916  0.41417733  1
  O  O287  1  0.89643396  0.62376938  0.91396648  1
  O  O288  1  0.18528607  -0.01794458  0.07492976  1
  O  O289  1  0.16014257  -0.00097041  0.59352043  1
  O  O290  1  0.17574416  0.50395356  0.08424844  1
  O  O291  1  0.16098713  0.49660274  0.58642876  1
  O  O292  1  0.50973506  -0.00360041  0.08386320  1
  O  O293  1  0.48847317  -0.00045327  0.58983145  1
  O  O294  1  0.53135774  0.50175563  0.08522213  1
  O  O295  1  0.48789726  0.50533536  0.58455931  1
  O  O296  1  0.82608418  0.00034737  0.08744882  1
  O  O297  1  0.83886600  0.01152179  0.57704510  1
  O  O298  1  0.81001238  0.50761790  0.08244859  1
  O  O299  1  0.86005507  0.50195330  0.58576596  1
  O  O300  1  0.00220619  0.26347428  0.07593415  1
  O  O301  1  0.01036279  0.24868171  0.58726883  1
  O  O302  1  -0.01132585  0.76120039  0.07789605  1
  O  O303  1  0.01855768  0.74934479  0.58599251  1
  O  O304  1  0.34724601  0.26812231  0.07189486  1
  O  O305  1  0.32890050  0.25953852  0.57282715  1
  O  O306  1  0.35974259  0.74407047  0.08354340  1
  O  O307  1  0.32370822  0.76386132  0.58230383  1
  O  O308  1  0.65971611  0.24082099  0.08763764  1
  O  O309  1  0.65492470  0.25022633  0.56570130  1
  O  O310  1  0.67340590  0.75375933  0.08365943  1
  O  O311  1  0.66124693  0.73272168  0.57622304  1
  O  O312  1  0.16715149  -0.01559931  0.42575375  1
  O  O313  1  0.15781971  0.01471240  0.92316512  1
  O  O314  1  0.15545029  0.48940472  0.42374499  1
  O  O315  1  0.14270172  0.49928136  0.91617286  1
  O  O316  1  0.49986471  -0.00576736  0.41667698  1
  O  O317  1  0.48945936  -0.01401131  0.92675843  1
  O  O318  1  0.50196597  0.50253421  0.41055422  1
  O  O319  1  0.49191598  0.49955954  0.91901203  1
  O  O320  1  0.81663654  0.00207273  0.41465985  1
  O  O321  1  0.81598200  -0.00088306  0.91563679  1
  O  O322  1  0.82873404  0.51082352  0.42382388  1
  O  O323  1  0.81760797  0.50021085  0.91441423  1
  O  O324  1  0.35004117  0.26570288  0.41814704  1
  O  O325  1  0.32060559  0.25679286  0.91944168  1
  O  O326  1  0.34070080  0.74924715  0.41291062  1
  O  O327  1  0.31997743  0.74170770  0.91597970  1
  O  O328  1  0.64642645  0.24793291  0.41162741  1
  O  O329  1  0.66164326  0.25249424  0.91716982  1
  O  O330  1  0.65937589  0.75073630  0.41535862  1
  O  O331  1  0.65846224  0.74710959  0.91330115  1
  O  O332  1  0.99323509  0.24350174  0.41565597  1
  O  O333  1  0.97452926  0.25150571  0.91284046  1
  O  O334  1  0.97874218  0.75451460  0.41627603  1
  O  O335  1  0.97642430  0.74711713  0.91611386  1
  O  O336  1  0.19746899  0.08385717  0.19247688  1
  O  O337  1  0.21261664  0.08594367  0.69850020  1
  O  O338  1  0.21249713  0.58631060  0.19240459  1
  O  O339  1  0.20579838  0.58231442  0.69375248  1
  O  O340  1  0.54380274  0.08092381  0.19366794  1
  O  O341  1  0.54494210  0.08259584  0.69514745  1
  O  O342  1  0.54716385  0.58368783  0.19502802  1
  O  O343  1  0.54408476  0.58485193  0.69369609  1
  O  O344  1  0.87454369  0.08357230  0.19443080  1
  O  O345  1  0.87880915  0.08561694  0.69317621  1
  O  O346  1  0.87245031  0.58513715  0.19396348  1
  O  O347  1  0.87819322  0.58322252  0.69546329  1
  O  O348  1  0.04274439  0.33791677  0.19201551  1
  O  O349  1  0.04403852  0.33284666  0.69594574  1
  O  O350  1  0.03857506  0.83436494  0.19438226  1
  O  O351  1  0.04239677  0.83211351  0.69483210  1
  O  O352  1  0.37836338  0.34005007  0.19128344  1
  O  O353  1  0.37551680  0.32575418  0.69068044  1
  O  O354  1  0.37669054  0.82745498  0.19427267  1
  O  O355  1  0.37912632  0.84281269  0.69505470  1
  O  O356  1  0.70554821  0.33005270  0.19303016  1
  O  O357  1  0.71074368  0.33424647  0.69827878  1
  O  O358  1  0.71150490  0.83202540  0.19384204  1
  O  O359  1  0.71230069  0.83137984  0.69949588  1
  O  O360  1  0.21030317  0.42182797  0.19518875  1
  O  O361  1  0.19757397  0.41669398  0.69533033  1
  O  O362  1  0.21417576  0.90655849  0.19227006  1
  O  O363  1  0.21445815  0.91393617  0.69948800  1
  O  O364  1  0.54554444  0.41821451  0.19447918  1
  O  O365  1  0.54273506  0.42122810  0.68998662  1
  O  O366  1  0.54386056  0.91543368  0.19443277  1
  O  O367  1  0.54270213  0.91525287  0.69476989  1
  O  O368  1  0.87738474  0.41572004  0.20135741  1
  O  O369  1  0.87931111  0.41714733  0.69347835  1
  O  O370  1  0.87301697  0.91598806  0.19545865  1
  O  O371  1  0.87943203  0.91593553  0.70137485  1
  O  O372  1  0.04065163  0.16911259  0.20005456  1
  O  O373  1  0.04579381  0.16865262  0.69715493  1
  O  O374  1  0.04207988  0.66880526  0.20068077  1
  O  O375  1  0.04187183  0.66582258  0.69668605  1
  O  O376  1  0.38338733  0.17513764  0.19605438  1
  O  O377  1  0.37654925  0.16678399  0.70241131  1
  O  O378  1  0.38024277  0.66377385  0.19386574  1
  O  O379  1  0.38127050  0.66053951  0.69894227  1
  O  O380  1  0.70992430  0.16511547  0.19779460  1
  O  O381  1  0.71101137  0.16762979  0.70175061  1
  O  O382  1  0.70949333  0.66890349  0.19561624  1
  O  O383  1  0.71136100  0.66297496  0.69279698  1
  O  O384  1  0.11905545  0.08323212  0.30309125  1
  O  O385  1  0.11935043  0.08986819  0.80747250  1
  O  O386  1  0.12279533  0.58359415  0.30049410  1
  O  O387  1  0.12124439  0.58266783  0.80665178  1
  O  O388  1  0.46846501  0.07859385  0.30711015  1
  O  O389  1  0.45909407  0.08183368  0.80283886  1
  O  O390  1  0.45942797  0.58420034  0.30290322  1
  O  O391  1  0.46040348  0.58159535  0.80697868  1
  O  O392  1  0.78747108  0.08324977  0.30509667  1
  O  O393  1  0.79088969  0.08125334  0.80493502  1
  O  O394  1  0.78848451  0.58459391  0.30639701  1
  O  O395  1  0.79063688  0.58256372  0.80376392  1
  O  O396  1  0.29219087  0.33866730  0.30231348  1
  O  O397  1  0.28618723  0.33093471  0.80760030  1
  O  O398  1  0.29359697  0.82994843  0.30479390  1
  O  O399  1  0.28589473  0.83724076  0.81222579  1
  O  O400  1  0.62045443  0.33399255  0.30464342  1
  O  O401  1  0.62980316  0.33453638  0.80691903  1
  O  O402  1  0.62539865  0.83029800  0.30506886  1
  O  O403  1  0.62471628  0.83193483  0.80445555  1
  O  O404  1  0.95759750  0.33073372  0.30708439  1
  O  O405  1  0.95714491  0.33555869  0.80454199  1
  O  O406  1  0.95527505  0.83525267  0.30580345  1
  O  O407  1  0.95485358  0.83103113  0.80835986  1
  O  O408  1  0.12347930  0.41711483  0.30555088  1
  O  O409  1  0.12236926  0.41699463  0.80660113  1
  O  O410  1  0.12126031  0.90909624  0.30815567  1
  O  O411  1  0.11778332  0.91329845  0.80299728  1
  O  O412  1  0.45741725  0.42022704  0.30129682  1
  O  O413  1  0.46943537  0.42066048  0.80705748  1
  O  O414  1  0.45721981  0.91460288  0.30569021  1
  O  O415  1  0.45946346  0.91335146  0.80915142  1
  O  O416  1  0.78572612  0.41648601  0.30021176  1
  O  O417  1  0.79305102  0.41789319  0.80483330  1
  O  O418  1  0.79333161  0.91784614  0.30542838  1
  O  O419  1  0.78808274  0.91722090  0.80584195  1
  O  O420  1  0.28054568  0.17770468  0.30085536  1
  O  O421  1  0.28938067  0.17056836  0.80937943  1
  O  O422  1  0.29257230  0.66555621  0.30550341  1
  O  O423  1  0.28421952  0.65728833  0.80766190  1
  O  O424  1  0.62139805  0.16527998  0.30391549  1
  O  O425  1  0.62465753  0.16648398  0.80933031  1
  O  O426  1  0.62377727  0.66755620  0.30472606  1
  O  O427  1  0.62585110  0.66419943  0.80354275  1
  O  O428  1  0.95245188  0.16419312  0.30695672  1
  O  O429  1  0.95359221  0.16837359  0.80364822  1
  O  O430  1  0.95330250  0.66871739  0.30748632  1
  O  O431  1  0.95592796  0.66509302  0.80525001  1
  F  F432  1  0.03323629  -0.00290623  0.19823051  1
  F  F433  1  0.03896166  0.00174153  0.70127986  1
  F  F434  1  0.04401613  0.50008704  0.20195467  1
  F  F435  1  0.04413406  0.50082014  0.70400241  1
  F  F436  1  0.38477598  -0.01168998  0.19708604  1
  F  F437  1  0.37814647  -0.00170148  0.70603217  1
  F  F438  1  0.38030233  0.50303659  0.19987441  1
  F  F439  1  0.38154420  0.50844819  0.69844429  1
  F  F440  1  0.71394263  0.00324257  0.19988155  1
  F  F441  1  0.71294823  -0.00029953  0.70240826  1
  F  F442  1  0.70832352  0.50260224  0.20144562  1
  F  F443  1  0.71458409  0.49928386  0.70106670  1
  F  F444  1  0.21049084  0.25859562  0.19644239  1
  F  F445  1  0.21032694  0.25016073  0.70448084  1
  F  F446  1  0.21367955  0.74773954  0.20390846  1
  F  F447  1  0.19686860  0.75015696  0.70223162  1
  F  F448  1  0.54653444  0.25099436  0.20209244  1
  F  F449  1  0.54697024  0.24723660  0.70482308  1
  F  F450  1  0.54822610  0.74241260  0.19591974  1
  F  F451  1  0.54681536  0.74973556  0.70119761  1
  F  F452  1  0.87622041  0.24991461  0.20402521  1
  F  F453  1  0.88109208  0.25240026  0.70207189  1
  F  F454  1  0.87698486  0.75150745  0.20400215  1
  F  F455  1  0.88013440  0.74812137  0.70303526  1
  F  F456  1  0.28732707  -0.01536020  0.30285796  1
  F  F457  1  0.29488788  0.00164235  0.80480082  1
  F  F458  1  0.28960667  0.50260591  0.29588076  1
  F  F459  1  0.28318925  0.50733347  0.80206241  1
  F  F460  1  0.62211955  0.00050767  0.29953681  1
  F  F461  1  0.62323381  -0.00200351  0.79723736  1
  F  F462  1  0.62126600  0.50114379  0.29797211  1
  F  F463  1  0.62419243  0.50060169  0.79561479  1
  F  F464  1  0.95093252  -0.00064838  0.29785868  1
  F  F465  1  0.95310477  0.00364696  0.80056825  1
  F  F466  1  0.95492924  0.50293976  0.29903902  1
  F  F467  1  0.95433202  0.49966663  0.79858875  1
  F  F468  1  0.11951400  0.25634066  0.29702722  1
  F  F469  1  0.11930649  0.25285372  0.80002407  1
  F  F470  1  0.12200860  0.75190972  0.29907180  1
  F  F471  1  0.11840708  0.74596229  0.80248422  1
  F  F472  1  0.45612571  0.25407736  0.29760314  1
  F  F473  1  0.45514285  0.24950329  0.80468796  1
  F  F474  1  0.45484562  0.74294097  0.29995488  1
  F  F475  1  0.47099551  0.74926547  0.80354622  1
  F  F476  1  0.78601411  0.24996009  0.29870192  1
  F  F477  1  0.79365411  0.25130250  0.80052594  1
  F  F478  1  0.78643431  0.75067212  0.29809247  1
  F  F479  1  0.78889974  0.74577203  0.79891810  1
