# generated using pymatgen
data_K24Na3Li5Mg64Fe17Si79(O5F)48
_symmetry_space_group_name_H-M   'P 1'
_cell_length_a   16.10279510
_cell_length_b   18.60059958
_cell_length_c   20.56168412
_cell_angle_alpha   90.01750905
_cell_angle_beta   100.01403605
_cell_angle_gamma   89.97697281
_symmetry_Int_Tables_number   1
_chemical_formula_structural   K24Na3Li5Mg64Fe17Si79(O5F)48
_chemical_formula_sum   'K24 Na3 Li5 Mg64 Fe17 Si79 O240 F48'
_cell_volume   6064.84256779
_cell_formula_units_Z   1
loop_
 _symmetry_equiv_pos_site_id
 _symmetry_equiv_pos_as_xyz
  1  'x, y, z'
loop_
 _atom_site_type_symbol
 _atom_site_label
 _atom_site_symmetry_multiplicity
 _atom_site_fract_x
 _atom_site_fract_y
 _atom_site_fract_z
 _atom_site_occupancy
  K  K0  1  -0.00953392  0.00501408  -0.02790521  1
  K  K1  1  -0.01057871  -0.00438135  0.51487564  1
  K  K2  1  0.00311691  0.50904594  -0.00877479  1
  K  K3  1  0.00274158  0.50574801  0.51182072  1
  K  K4  1  0.34212084  0.00452077  -0.01043615  1
  K  K5  1  0.34147915  0.00071428  0.50874685  1
  K  K6  1  0.32989012  0.49017427  -0.00680474  1
  K  K7  1  0.33320347  0.50717506  0.50434261  1
  K  K8  1  0.65801808  0.00196330  -0.01633571  1
  K  K9  1  0.67129988  -0.00529421  0.51760447  1
  K  K10  1  0.66050385  0.49908576  -0.00847530  1
  K  K11  1  0.67017500  0.49265190  0.50218843  1
  K  K12  1  0.16215713  0.25020593  -0.01547536  1
  K  K13  1  0.16740488  0.24964170  0.51125730  1
  K  K14  1  0.15497409  0.75778285  -0.00623881  1
  K  K15  1  0.17287136  0.74914348  0.50543286  1
  K  K16  1  0.48859735  0.24170293  -0.00740268  1
  K  K17  1  0.50835239  0.24574487  0.50644818  1
  K  K18  1  0.50551700  0.75247160  -0.01068607  1
  K  K19  1  0.50065011  0.75801162  0.50517293  1
  K  K20  1  0.83503033  0.24070617  -0.01463429  1
  K  K21  1  0.83944977  0.24747469  0.51312532  1
  K  K22  1  0.82357515  0.76589747  -0.01183064  1
  K  K23  1  0.84239569  0.75238525  0.50908551  1
  Na  Na24  1  0.33554881  0.74988004  0.74822642  1
  Na  Na25  1  0.66673768  0.07962629  0.24023775  1
  Na  Na26  1  -0.00167945  0.08517712  0.75200189  1
  Li  Li27  1  0.33108049  0.24727496  0.75077773  1
  Li  Li28  1  0.00013230  0.24564569  0.74716912  1
  Li  Li29  1  0.66582852  0.07972624  0.74498252  1
  Li  Li30  1  0.83173822  0.66950588  0.74768790  1
  Li  Li31  1  0.83277801  0.83358462  0.25208493  1
  Mg  Mg32  1  0.83311610  0.50198245  0.25222857  1
  Mg  Mg33  1  0.50262933  0.00173253  0.74857922  1
  Mg  Mg34  1  -0.00142366  0.75143396  0.75165922  1
  Mg  Mg35  1  0.83215949  -0.00319378  0.24788872  1
  Mg  Mg36  1  0.16671175  0.49983619  0.75399839  1
  Mg  Mg37  1  0.83467753  0.50161127  0.75082577  1
  Mg  Mg38  1  0.66794063  0.75088430  0.25014195  1
  Mg  Mg39  1  0.33501981  0.25031179  0.24558871  1
  Mg  Mg40  1  0.83137219  0.00015505  0.74960998  1
  Mg  Mg41  1  0.50125045  -0.00110510  0.24508216  1
  Mg  Mg42  1  0.33003299  0.74977884  0.25608786  1
  Mg  Mg43  1  0.16732299  -0.00168848  0.25303921  1
  Mg  Mg44  1  0.00185426  0.24950368  0.24954778  1
  Mg  Mg45  1  0.16472844  0.00112379  0.75355339  1
  Mg  Mg46  1  0.67018889  0.74832837  0.74611978  1
  Mg  Mg47  1  -0.00487907  0.75066506  0.25534005  1
  Mg  Mg48  1  0.66709860  0.24828586  0.24498319  1
  Mg  Mg49  1  0.66431951  0.24680660  0.74543795  1
  Mg  Mg50  1  0.16690885  0.50045162  0.25339458  1
  Mg  Mg51  1  0.49914372  0.49869451  0.25053086  1
  Mg  Mg52  1  0.49956126  0.49995835  0.74738499  1
  Mg  Mg53  1  0.33596473  0.08318844  0.24591984  1
  Mg  Mg54  1  0.33112011  0.41288944  0.75219878  1
  Mg  Mg55  1  -0.00172385  0.91856114  0.75112525  1
  Mg  Mg56  1  0.00086661  0.41597369  0.25057197  1
  Mg  Mg57  1  0.50103651  0.16466459  0.24191945  1
  Mg  Mg58  1  0.83453496  0.66928793  0.25369483  1
  Mg  Mg59  1  0.83329265  0.33425154  0.24789534  1
  Mg  Mg60  1  0.33647593  0.41490582  0.24957779  1
  Mg  Mg61  1  0.82982022  0.16643064  0.74418820  1
  Mg  Mg62  1  0.33439867  0.08681704  0.75052794  1
  Mg  Mg63  1  0.66812071  0.58365677  0.74753800  1
  Mg  Mg64  1  0.83154223  0.83233739  0.74946793  1
  Mg  Mg65  1  0.49530834  0.33086072  0.74885218  1
  Mg  Mg66  1  0.00226372  0.41448026  0.75562748  1
  Mg  Mg67  1  0.83710203  0.33103682  0.75224955  1
  Mg  Mg68  1  0.66813528  0.91429978  0.24574557  1
  Mg  Mg69  1  -0.00013744  0.58582909  0.75473323  1
  Mg  Mg70  1  0.66560044  0.41518446  0.24782137  1
  Mg  Mg71  1  0.83299256  0.16531569  0.24633418  1
  Mg  Mg72  1  0.16926998  0.33398108  0.24982957  1
  Mg  Mg73  1  0.00041242  0.58548493  0.25679331  1
  Mg  Mg74  1  0.33494534  0.58320643  0.74882813  1
  Mg  Mg75  1  0.33344620  0.91359576  0.25394568  1
  Mg  Mg76  1  0.49809008  0.33400684  0.24725507  1
  Mg  Mg77  1  0.16759109  0.66610740  0.25820521  1
  Mg  Mg78  1  0.16707676  0.83365217  0.25673958  1
  Mg  Mg79  1  0.66544346  0.91476570  0.74490161  1
  Mg  Mg80  1  0.50104788  0.83300120  0.74714559  1
  Mg  Mg81  1  0.33506161  0.91738786  0.75365090  1
  Mg  Mg82  1  0.49923816  0.16544444  0.74926066  1
  Mg  Mg83  1  0.16922951  0.66723916  0.75280096  1
  Mg  Mg84  1  0.16568633  0.16950460  0.75367407  1
  Mg  Mg85  1  0.16929090  0.16471135  0.24944343  1
  Mg  Mg86  1  -0.00217999  0.91474683  0.25413406  1
  Mg  Mg87  1  0.49871381  0.66588828  0.25164200  1
  Mg  Mg88  1  0.66627046  0.58501636  0.25101062  1
  Mg  Mg89  1  0.49937465  0.83391922  0.24948348  1
  Mg  Mg90  1  0.33423100  0.58458185  0.25649601  1
  Mg  Mg91  1  0.00000723  0.08325603  0.24981987  1
  Mg  Mg92  1  0.66460467  0.41572802  0.74805476  1
  Mg  Mg93  1  0.50255940  0.66496177  0.74861730  1
  Mg  Mg94  1  0.16521551  0.33187111  0.75516020  1
  Mg  Mg95  1  0.16666587  0.83506414  0.75225692  1
  Fe  Fe96  1  0.52328102  0.08911682  0.60851044  1
  Fe  Fe97  1  0.35414938  0.33527764  0.10598013  1
  Fe  Fe98  1  0.85788503  0.91143152  0.60826914  1
  Fe  Fe99  1  0.68640134  0.82295739  0.60527210  1
  Fe  Fe100  1  0.52380955  0.08166941  0.10293338  1
  Fe  Fe101  1  0.52581169  0.57935272  0.60803358  1
  Fe  Fe102  1  0.64056913  0.82722753  0.88571539  1
  Fe  Fe103  1  0.31113727  0.66245206  0.39618900  1
  Fe  Fe104  1  0.47691877  0.08555810  0.88898081  1
  Fe  Fe105  1  0.36064900  0.67085255  0.60857383  1
  Fe  Fe106  1  0.97447445  0.17097001  0.88692486  1
  Fe  Fe107  1  0.14662027  0.91447488  0.89322145  1
  Fe  Fe108  1  0.47979268  0.41467987  0.39060981  1
  Fe  Fe109  1  0.31003698  0.83848119  0.39638607  1
  Fe  Fe110  1  0.14084342  0.42295632  0.89459399  1
  Fe  Fe111  1  0.97368944  0.66648110  0.39536059  1
  Fe  Fe112  1  0.85870159  0.08540663  0.60637147  1
  Si  Si113  1  0.48168666  0.58069823  0.38738452  1
  Si  Si114  1  0.69715390  0.33675236  0.11093792  1
  Si  Si115  1  0.86377815  0.41775699  0.11454092  1
  Si  Si116  1  0.80608631  0.41766950  0.38407900  1
  Si  Si117  1  0.13425621  0.92228662  0.39073258  1
  Si  Si118  1  0.86329462  0.08362904  0.11219715  1
  Si  Si119  1  0.69384450  0.83082295  0.11478021  1
  Si  Si120  1  0.47428170  0.91376330  0.88841379  1
  Si  Si121  1  0.63635592  0.67054925  0.38419978  1
  Si  Si122  1  0.14478380  0.59379228  0.89223720  1
  Si  Si123  1  0.86642392  0.58373448  0.61762151  1
  Si  Si124  1  0.19331394  0.57995558  0.61548655  1
  Si  Si125  1  0.80421013  0.08567282  0.88421581  1
  Si  Si126  1  0.13787416  0.57495562  0.39232596  1
  Si  Si127  1  0.02409737  0.66938004  0.11916979  1
  Si  Si128  1  0.35341934  0.16771906  0.61231665  1
  Si  Si129  1  0.97320901  0.83766239  0.38910715  1
  Si  Si130  1  0.80458313  0.41731353  0.88504666  1
  Si  Si131  1  0.30652890  0.33034672  0.38683202  1
  Si  Si132  1  0.35035158  0.16581715  0.10756332  1
  Si  Si133  1  0.18717667  0.42242109  0.11450629  1
  Si  Si134  1  0.19109356  0.41619878  0.61671603  1
  Si  Si135  1  0.86127036  0.41879223  0.61684127  1
  Si  Si136  1  0.86028097  0.58287965  0.11660872  1
  Si  Si137  1  0.80987052  0.57978305  0.88453312  1
  Si  Si138  1  0.81151149  0.08091549  0.38122942  1
  Si  Si139  1  0.18646087  0.58571620  0.11848078  1
  Si  Si140  1  0.14258425  0.08801875  0.38570413  1
  Si  Si141  1  0.69123668  0.34001339  0.61431012  1
  Si  Si142  1  0.03198944  0.17143248  0.61295754  1
  Si  Si143  1  0.02234430  0.83399272  0.11828513  1
  Si  Si144  1  0.64130988  0.83531672  0.38287097  1
  Si  Si145  1  0.97042582  0.83459088  0.88901422  1
  Si  Si146  1  0.80574701  0.91703437  0.38260944  1
  Si  Si147  1  0.51934887  0.91706610  0.60751451  1
  Si  Si148  1  0.64212552  0.17362627  0.88502295  1
  Si  Si149  1  0.85834216  0.91833188  0.11573977  1
  Si  Si150  1  0.02627611  0.33470892  0.61691862  1
  Si  Si151  1  0.47461079  0.41388616  0.88547667  1
  Si  Si152  1  0.19093055  0.08530096  0.61635751  1
  Si  Si153  1  0.35317500  0.33039417  0.61692129  1
  Si  Si154  1  0.97386290  0.16830516  0.38462659  1
  Si  Si155  1  0.35526298  0.82810153  0.11561051  1
  Si  Si156  1  0.64425775  0.65889313  0.88793345  1
  Si  Si157  1  0.52544602  0.58567647  0.11435629  1
  Si  Si158  1  0.69427199  0.66581569  0.11485135  1
  Si  Si159  1  0.70031357  0.17166629  0.10781625  1
  Si  Si160  1  0.47497726  0.57819234  0.88696839  1
  Si  Si161  1  0.97187685  0.66958368  0.88654399  1
  Si  Si162  1  0.02731119  0.33159884  0.11510528  1
  Si  Si163  1  0.69462017  0.65458447  0.61080129  1
  Si  Si164  1  0.14834608  0.08486347  0.89090263  1
  Si  Si165  1  0.03148675  0.66542353  0.61878137  1
  Si  Si166  1  0.35407354  0.84179587  0.61514654  1
  Si  Si167  1  0.03386135  0.83094441  0.61525922  1
  Si  Si168  1  0.48112758  0.08682938  0.38103897  1
  Si  Si169  1  0.79907353  0.58431697  0.38834831  1
  Si  Si170  1  0.19180724  0.07776373  0.11475395  1
  Si  Si171  1  0.51659705  0.41074219  0.61254395  1
  Si  Si172  1  0.97164689  0.33441641  0.38464383  1
  Si  Si173  1  0.80354998  0.91916955  0.88623517  1
  Si  Si174  1  0.30962646  0.83089966  0.88829672  1
  Si  Si175  1  0.30635816  0.16902070  0.88645256  1
  Si  Si176  1  0.47955334  0.92317336  0.38494974  1
  Si  Si177  1  0.31283355  0.16471844  0.38331927  1
  Si  Si178  1  0.52231317  0.90757399  0.10919339  1
  Si  Si179  1  0.53024801  0.41879617  0.10961150  1
  Si  Si180  1  0.02963767  0.16501581  0.11470981  1
  Si  Si181  1  0.14136989  0.40985892  0.38579971  1
  Si  Si182  1  0.64636300  0.16630212  0.37893221  1
  Si  Si183  1  0.69303914  0.17559002  0.60596957  1
  Si  Si184  1  0.19321173  0.92187606  0.61812856  1
  Si  Si185  1  0.64102295  0.33601852  0.88301445  1
  Si  Si186  1  0.30828954  0.33443041  0.88873018  1
  Si  Si187  1  0.18954493  0.91307383  0.11740274  1
  Si  Si188  1  0.96992666  0.33951048  0.89275367  1
  Si  Si189  1  0.31292934  0.66574021  0.88622043  1
  Si  Si190  1  0.64636705  0.32689702  0.38427786  1
  Si  Si191  1  0.35534442  0.66279420  0.11655984  1
  O  O192  1  0.27267871  0.10624738  0.08521221  1
  O  O193  1  0.27177431  0.11422277  0.58434215  1
  O  O194  1  0.26915659  0.61573327  0.08898642  1
  O  O195  1  0.26709317  0.60880474  0.57945425  1
  O  O196  1  0.61978004  0.12495447  0.07630489  1
  O  O197  1  0.60809437  0.13412644  0.57070882  1
  O  O198  1  0.60165187  0.62888754  0.08563092  1
  O  O199  1  0.63171025  0.58888236  0.58237880  1
  O  O200  1  0.94593384  0.11741785  0.08536931  1
  O  O201  1  0.95204740  0.12723948  0.57478817  1
  O  O202  1  0.93759470  0.62393841  0.08869846  1
  O  O203  1  0.94586918  0.61980002  0.58817268  1
  O  O204  1  0.10441239  0.37059217  0.08703164  1
  O  O205  1  0.10421208  0.37214951  0.58525784  1
  O  O206  1  0.10341166  0.86699230  0.08922482  1
  O  O207  1  0.11796434  0.86472429  0.58903270  1
  O  O208  1  0.44926702  0.37454410  0.07414103  1
  O  O209  1  0.43850874  0.35274965  0.58692146  1
  O  O210  1  0.43537074  0.85858178  0.08444809  1
  O  O211  1  0.43348463  0.86824530  0.58076004  1
  O  O212  1  0.77568846  0.37726732  0.08368356  1
  O  O213  1  0.76983780  0.38121541  0.58616076  1
  O  O214  1  0.77044308  0.87426445  0.08724035  1
  O  O215  1  0.77212355  0.85513779  0.56383819  1
  O  O216  1  0.26536065  0.40153787  0.07975989  1
  O  O217  1  0.27142569  0.38270953  0.58612997  1
  O  O218  1  0.26826541  0.87452695  0.08890225  1
  O  O219  1  0.27748172  0.90057428  0.58802286  1
  O  O220  1  0.61443972  0.38616586  0.08263656  1
  O  O221  1  0.60299661  0.38320034  0.58542950  1
  O  O222  1  0.60102729  0.86408389  0.08304993  1
  O  O223  1  0.59271913  0.88106015  0.57305655  1
  O  O224  1  0.94012250  0.37606740  0.08661155  1
  O  O225  1  0.93694647  0.37772618  0.58576144  1
  O  O226  1  0.93610002  0.87799262  0.08633450  1
  O  O227  1  0.95389883  0.87361931  0.57624634  1
  O  O228  1  0.10922415  0.12871147  0.08706036  1
  O  O229  1  0.11453530  0.13919261  0.58266556  1
  O  O230  1  0.10436733  0.63658619  0.08851066  1
  O  O231  1  0.10588756  0.62494338  0.58769156  1
  O  O232  1  0.42905856  0.14060043  0.07387837  1
  O  O233  1  0.42685743  0.14557037  0.57187092  1
  O  O234  1  0.43475548  0.62620811  0.08642043  1
  O  O235  1  0.44946989  0.64601309  0.56680970  1
  O  O236  1  0.78448034  0.13632029  0.08205709  1
  O  O237  1  0.76971496  0.14730739  0.57088182  1
  O  O238  1  0.76853499  0.61986969  0.08636091  1
  O  O239  1  0.78539516  0.63189930  0.58607180  1
  O  O240  1  0.06588422  0.13117389  0.41338755  1
  O  O241  1  0.06718657  0.11257439  0.92145545  1
  O  O242  1  0.05194556  0.59177212  0.42085850  1
  O  O243  1  0.06447283  0.63414960  0.91963923  1
  O  O244  1  0.39831877  0.11762119  0.41095317  1
  O  O245  1  0.38421353  0.12060696  0.92302445  1
  O  O246  1  0.39631314  0.59245252  0.41668497  1
  O  O247  1  0.39597925  0.61468518  0.91755308  1
  O  O248  1  0.72736086  0.11354148  0.40575090  1
  O  O249  1  0.72399800  0.12234463  0.91357921  1
  O  O250  1  0.71185070  0.61304139  0.41219123  1
  O  O251  1  0.72929130  0.60912879  0.91670823  1
  O  O252  1  0.21731673  0.35301555  0.41261171  1
  O  O253  1  0.23805744  0.36826514  0.92796650  1
  O  O254  1  0.21130175  0.87377472  0.42618784  1
  O  O255  1  0.23418209  0.84950711  0.92847558  1
  O  O256  1  0.56870358  0.34923407  0.41972641  1
  O  O257  1  0.56085358  0.36818711  0.91472929  1
  O  O258  1  0.56071294  0.86938531  0.41113330  1
  O  O259  1  0.54867619  0.85936345  0.92181335  1
  O  O260  1  0.89444871  0.37437671  0.41297423  1
  O  O261  1  0.88044296  0.36463527  0.91907531  1
  O  O262  1  0.88657153  0.86690182  0.41362535  1
  O  O263  1  0.89262030  0.87601014  0.91635216  1
  O  O264  1  0.05819692  0.37838701  0.41395511  1
  O  O265  1  0.04239333  0.39649984  0.92611473  1
  O  O266  1  0.04561407  0.89957041  0.41494057  1
  O  O267  1  0.05554783  0.87211801  0.92775596  1
  O  O268  1  0.38045319  0.38302100  0.42109268  1
  O  O269  1  0.39813111  0.37818848  0.91681723  1
  O  O270  1  0.40051233  0.90443510  0.41992389  1
  O  O271  1  0.38930132  0.88403544  0.91642829  1
  O  O272  1  0.72980577  0.37795954  0.41267869  1
  O  O273  1  0.71878140  0.39151527  0.91248865  1
  O  O274  1  0.72356376  0.88518362  0.41071470  1
  O  O275  1  0.73442066  0.88260285  0.92475542  1
  O  O276  1  0.23176400  0.13044467  0.41242083  1
  O  O277  1  0.22370861  0.14418082  0.91819996  1
  O  O278  1  0.21313501  0.62711564  0.42505489  1
  O  O279  1  0.23013167  0.64340311  0.91981895  1
  O  O280  1  0.56238833  0.13902808  0.40828636  1
  O  O281  1  0.56685150  0.14788045  0.92230018  1
  O  O282  1  0.55066423  0.64686543  0.41058213  1
  O  O283  1  0.56454402  0.61865679  0.91685366  1
  O  O284  1  0.89673211  0.12871947  0.41314589  1
  O  O285  1  0.88648161  0.12714229  0.92380632  1
  O  O286  1  0.87566677  0.63249002  0.42520515  1
  O  O287  1  0.89705670  0.62421291  0.91534100  1
  O  O288  1  0.17324915  -0.00503361  0.08817948  1
  O  O289  1  0.16668850  0.00310319  0.58836126  1
  O  O290  1  0.15872311  0.50531073  0.09013878  1
  O  O291  1  0.17218337  0.49716734  0.58684618  1
  O  O292  1  0.50908901  -0.01548830  0.07360724  1
  O  O293  1  0.49992707  -0.00376359  0.57431765  1
  O  O294  1  0.52303161  0.50414033  0.08350048  1
  O  O295  1  0.48655338  0.48587606  0.57802353  1
  O  O296  1  0.84871577  0.00074556  0.08434355  1
  O  O297  1  0.84019705  -0.00171952  0.56330527  1
  O  O298  1  0.85804068  0.50057405  0.08624763  1
  O  O299  1  0.85677998  0.50090724  0.58594416  1
  O  O300  1  0.01620602  0.24840223  0.08787143  1
  O  O301  1  0.01860113  0.25528341  0.58202945  1
  O  O302  1  0.00934918  0.75121202  0.08970431  1
  O  O303  1  0.02528798  0.74643268  0.58792141  1
  O  O304  1  0.31501895  0.24328780  0.07806953  1
  O  O305  1  0.32274860  0.25079793  0.58741683  1
  O  O306  1  0.33872064  0.74494711  0.08717677  1
  O  O307  1  0.32011737  0.76465897  0.58603926  1
  O  O308  1  0.69081291  0.25609597  0.07906765  1
  O  O309  1  0.68054918  0.26158855  0.57934476  1
  O  O310  1  0.69510611  0.74750902  0.08532627  1
  O  O311  1  0.66292106  0.72851613  0.57287831  1
  O  O312  1  0.15029101  0.00720650  0.41583523  1
  O  O313  1  0.17659486  0.00719043  0.92590578  1
  O  O314  1  0.16434253  0.48980562  0.41526214  1
  O  O315  1  0.16064417  0.51761590  0.93004660  1
  O  O316  1  0.50830208  0.00625839  0.40860303  1
  O  O317  1  0.49618234  -0.00783833  0.92191766  1
  O  O318  1  0.52628677  0.50561324  0.41477890  1
  O  O319  1  0.48727198  0.49571331  0.91767306  1
  O  O320  1  0.82595377  -0.00057133  0.41112700  1
  O  O321  1  0.81365649  0.00241229  0.91432915  1
  O  O322  1  0.81334690  0.49935314  0.41381766  1
  O  O323  1  0.82713034  0.49815571  0.91631885  1
  O  O324  1  0.32590002  0.24648370  0.41295454  1
  O  O325  1  0.32715575  0.25183283  0.91471413  1
  O  O326  1  0.34298482  0.75069802  0.43275676  1
  O  O327  1  0.34160011  0.74722562  0.91077841  1
  O  O328  1  0.67617716  0.24540212  0.41032913  1
  O  O329  1  0.66783858  0.25693566  0.91425356  1
  O  O330  1  0.66028037  0.75260276  0.41091310  1
  O  O331  1  0.65984308  0.73452603  0.92611647  1
  O  O332  1  0.97969242  0.25167288  0.41311049  1
  O  O333  1  0.99240412  0.26238026  0.92818866  1
  O  O334  1  1.00055093  0.76148474  0.42499803  1
  O  O335  1  0.96934673  0.75041266  0.91845686  1
  O  O336  1  0.20856500  0.08089428  0.19570825  1
  O  O337  1  0.20939046  0.08547471  0.69626890  1
  O  O338  1  0.20594341  0.58416088  0.19863818  1
  O  O339  1  0.20932615  0.58111754  0.69643497  1
  O  O340  1  0.53246475  0.08078768  0.19282063  1
  O  O341  1  0.54445544  0.08572637  0.69839836  1
  O  O342  1  0.54379458  0.58425846  0.19472925  1
  O  O343  1  0.54682529  0.57997680  0.70083519  1
  O  O344  1  0.88029161  0.08424592  0.19284059  1
  O  O345  1  0.86539072  0.08163295  0.69536345  1
  O  O346  1  0.87594162  0.58158880  0.19678207  1
  O  O347  1  0.88249655  0.57954624  0.69698747  1
  O  O348  1  0.04360486  0.33270505  0.19597542  1
  O  O349  1  0.04348124  0.33816356  0.69601527  1
  O  O350  1  0.04163037  0.83431757  0.19863203  1
  O  O351  1  0.04433197  0.83116144  0.69560044  1
  O  O352  1  0.37614019  0.33324875  0.19798119  1
  O  O353  1  0.37424197  0.33582802  0.69621438  1
  O  O354  1  0.37519498  0.83030566  0.19596535  1
  O  O355  1  0.38004436  0.84374930  0.69477304  1
  O  O356  1  0.71333191  0.33600220  0.19185239  1
  O  O357  1  0.70935442  0.33722695  0.69439183  1
  O  O358  1  0.70721513  0.82944085  0.19417907  1
  O  O359  1  0.71346391  0.83034238  0.69651756  1
  O  O360  1  0.20660696  0.41786508  0.19570269  1
  O  O361  1  0.20944981  0.41642528  0.69653067  1
  O  O362  1  0.20732773  0.91562526  0.19778442  1
  O  O363  1  0.21183153  0.91918340  0.69804194  1
  O  O364  1  0.54663873  0.41779389  0.19060342  1
  O  O365  1  0.53929008  0.41351859  0.69361039  1
  O  O366  1  0.54085999  0.91082032  0.19017006  1
  O  O367  1  0.53982688  0.91742852  0.68872375  1
  O  O368  1  0.87873776  0.41712922  0.19516354  1
  O  O369  1  0.87858611  0.41791577  0.69685882  1
  O  O370  1  0.88134906  0.91981758  0.19513506  1
  O  O371  1  0.87807504  0.91455190  0.70038389  1
  O  O372  1  0.04523585  0.16581217  0.19556490  1
  O  O373  1  0.05189409  0.17310436  0.69164275  1
  O  O374  1  0.04347417  0.66588301  0.19914636  1
  O  O375  1  0.04570102  0.66482552  0.69894283  1
  O  O376  1  0.37152054  0.16610528  0.18972319  1
  O  O377  1  0.37616863  0.16535815  0.69181889  1
  O  O378  1  0.37656274  0.66450310  0.19662106  1
  O  O379  1  0.38523266  0.65596634  0.69827442  1
  O  O380  1  0.71938636  0.17663990  0.18796260  1
  O  O381  1  0.70947279  0.17510054  0.68631202  1
  O  O382  1  0.71072109  0.66438265  0.19511067  1
  O  O383  1  0.70854609  0.66190238  0.69149706  1
  O  O384  1  0.12339243  0.08606673  0.30493843  1
  O  O385  1  0.13459174  0.08324779  0.81070071  1
  O  O386  1  0.12200851  0.57875076  0.31002263  1
  O  O387  1  0.12496597  0.58687577  0.81154235  1
  O  O388  1  0.45608795  0.08537832  0.30092489  1
  O  O389  1  0.45465556  0.08407218  0.79860083  1
  O  O390  1  0.46064529  0.58263344  0.30501152  1
  O  O391  1  0.45685808  0.57785990  0.80760286  1
  O  O392  1  0.80205926  0.08305029  0.30174584  1
  O  O393  1  0.78940435  0.08564909  0.80467089  1
  O  O394  1  0.78753356  0.58301152  0.30691617  1
  O  O395  1  0.78937647  0.57882710  0.80537267  1
  O  O396  1  0.28862766  0.33144410  0.30557831  1
  O  O397  1  0.28658532  0.34000395  0.80933902  1
  O  O398  1  0.28736072  0.83437109  0.30277788  1
  O  O399  1  0.28488332  0.83882304  0.80899439  1
  O  O400  1  0.62730004  0.33266251  0.30288176  1
  O  O401  1  0.62110551  0.33565131  0.80299956  1
  O  O402  1  0.62219465  0.83239981  0.30221945  1
  O  O403  1  0.62194494  0.83046206  0.79533815  1
  O  O404  1  0.95588420  0.33362198  0.30399733  1
  O  O405  1  0.95192539  0.34279941  0.81237626  1
  O  O406  1  0.95933592  0.83414415  0.30852844  1
  O  O407  1  0.95785637  0.83142364  0.80898938  1
  O  O408  1  0.12173254  0.41267241  0.30490213  1
  O  O409  1  0.12252608  0.41925309  0.80324033  1
  O  O410  1  0.12158357  0.91979082  0.30904346  1
  O  O411  1  0.12100082  0.91580203  0.80223634  1
  O  O412  1  0.45793399  0.41601957  0.29820974  1
  O  O413  1  0.45708355  0.41570351  0.80553298  1
  O  O414  1  0.45765172  0.91744316  0.30362337  1
  O  O415  1  0.45751807  0.91503514  0.80734505  1
  O  O416  1  0.79072082  0.41651080  0.30321656  1
  O  O417  1  0.78866529  0.41706791  0.80490599  1
  O  O418  1  0.78797289  0.91836772  0.30281779  1
  O  O419  1  0.78655122  0.91571448  0.80640594  1
  O  O420  1  0.29151762  0.16536282  0.30256590  1
  O  O421  1  0.28949416  0.16586862  0.80657542  1
  O  O422  1  0.28811679  0.66594040  0.30255695  1
  O  O423  1  0.28810645  0.65671783  0.80767842  1
  O  O424  1  0.62251164  0.17233169  0.29968369  1
  O  O425  1  0.62080702  0.17539492  0.80554661  1
  O  O426  1  0.62222269  0.66756670  0.30314716  1
  O  O427  1  0.62733537  0.66195732  0.80780179  1
  O  O428  1  0.95834996  0.16835936  0.30388843  1
  O  O429  1  0.94422256  0.17996237  0.80019928  1
  O  O430  1  0.95351662  0.66575663  0.30297412  1
  O  O431  1  0.96034083  0.66764238  0.80749620  1
  F  F432  1  0.04662766  -0.00017922  0.20396255  1
  F  F433  1  0.04905092  -0.00670307  0.69888234  1
  F  F434  1  0.04332303  0.50054009  0.20477776  1
  F  F435  1  0.04508243  0.50340645  0.70545405  1
  F  F436  1  0.37465769  -0.00450796  0.20168460  1
  F  F437  1  0.37650169  0.00018367  0.70262850  1
  F  F438  1  0.37663401  0.50376290  0.20165182  1
  F  F439  1  0.37664340  0.49560301  0.70381902  1
  F  F440  1  0.71876961  -0.01217203  0.19240927  1
  F  F441  1  0.71224262  -0.00492138  0.69899954  1
  F  F442  1  0.71380415  0.50085971  0.20103996  1
  F  F443  1  0.71410654  0.49717560  0.70229444  1
  F  F444  1  0.20925817  0.24925508  0.20210816  1
  F  F445  1  0.20892249  0.25326960  0.70427423  1
  F  F446  1  0.20644595  0.74971371  0.20332419  1
  F  F447  1  0.19908158  0.74939603  0.70193995  1
  F  F448  1  0.54657550  0.25328151  0.19725201  1
  F  F449  1  0.54347985  0.25246301  0.69868176  1
  F  F450  1  0.54409496  0.74768207  0.20103207  1
  F  F451  1  0.54645737  0.74585744  0.69832734  1
  F  F452  1  0.88299897  0.25190607  0.20041647  1
  F  F453  1  0.87032436  0.25696959  0.69503668  1
  F  F454  1  0.87895622  0.74646155  0.20004864  1
  F  F455  1  0.88304906  0.75175130  0.70183975  1
  F  F456  1  0.28816924  0.00230742  0.29833051  1
  F  F457  1  0.28951425  0.00198248  0.79895355  1
  F  F458  1  0.28734285  0.49703346  0.29772646  1
  F  F459  1  0.28905832  0.49936849  0.79963701  1
  F  F460  1  0.61791690  -0.01121751  0.29522224  1
  F  F461  1  0.61924945  -0.00874531  0.79841001  1
  F  F462  1  0.62352344  0.49900263  0.29457623  1
  F  F463  1  0.62212793  0.49583939  0.79895516  1
  F  F464  1  0.95573812  0.00247239  0.29807269  1
  F  F465  1  0.94957504  -0.00881877  0.80639374  1
  F  F466  1  0.95301917  0.49655459  0.29966620  1
  F  F467  1  0.95506564  0.50182187  0.80188888  1
  F  F468  1  0.12175334  0.24908547  0.29816093  1
  F  F469  1  0.12515124  0.25137651  0.80434234  1
  F  F470  1  0.11835326  0.75027319  0.30087549  1
  F  F471  1  0.12038573  0.74897164  0.80188913  1
  F  F472  1  0.45590740  0.24625411  0.29364365  1
  F  F473  1  0.45802058  0.25058165  0.79812821  1
  F  F474  1  0.45518193  0.75035099  0.29716169  1
  F  F475  1  0.47072278  0.74824744  0.80102203  1
  F  F476  1  0.79144426  0.25136917  0.29538567  1
  F  F477  1  0.78223414  0.25277179  0.79613095  1
  F  F478  1  0.78401926  0.74580585  0.30005278  1
  F  F479  1  0.78835548  0.74881528  0.79985032  1
