# generated using pymatgen
data_K24Na3Li5Mg64Fe17Si79(O5F)48
_symmetry_space_group_name_H-M   'P 1'
_cell_length_a   16.07247705
_cell_length_b   18.55982397
_cell_length_c   20.53610634
_cell_angle_alpha   90.00189210
_cell_angle_beta   100.00496038
_cell_angle_gamma   89.99798838
_symmetry_Int_Tables_number   1
_chemical_formula_structural   K24Na3Li5Mg64Fe17Si79(O5F)48
_chemical_formula_sum   'K24 Na3 Li5 Mg64 Fe17 Si79 O240 F48'
_cell_volume   6032.80932150
_cell_formula_units_Z   1
loop_
 _symmetry_equiv_pos_site_id
 _symmetry_equiv_pos_as_xyz
  1  'x, y, z'
loop_
 _atom_site_type_symbol
 _atom_site_label
 _atom_site_symmetry_multiplicity
 _atom_site_fract_x
 _atom_site_fract_y
 _atom_site_fract_z
 _atom_site_occupancy
  K  K0  1  -0.00272818  0.00256024  -0.00428700  1
  K  K1  1  0.00105715  0.00112771  0.50417563  1
  K  K2  1  -0.00263048  0.49472713  -0.00079356  1
  K  K3  1  -0.00748072  0.50243175  0.50279423  1
  K  K4  1  0.33806688  0.00607438  0.00566126  1
  K  K5  1  0.33253484  0.00073689  0.50317411  1
  K  K6  1  0.32964790  0.49778231  0.00354209  1
  K  K7  1  0.33800556  0.49800067  0.50373587  1
  K  K8  1  0.66359915  0.00570132  -0.00466143  1
  K  K9  1  0.66879610  0.00040556  0.50133698  1
  K  K10  1  0.67018885  0.50100551  -0.00379237  1
  K  K11  1  0.67325418  0.49275374  0.50378942  1
  K  K12  1  0.15882418  0.24942829  -0.00724921  1
  K  K13  1  0.18091656  0.24932322  0.50618371  1
  K  K14  1  0.17265123  0.74288404  -0.00044563  1
  K  K15  1  0.16791472  0.74801652  0.50218551  1
  K  K16  1  0.50571579  0.24870327  -0.00692119  1
  K  K17  1  0.50327453  0.25248183  0.50252728  1
  K  K18  1  0.50279309  0.74622454  0.00345922  1
  K  K19  1  0.49821674  0.74900043  0.50118002  1
  K  K20  1  0.82852336  0.25571412  -0.01244090  1
  K  K21  1  0.82416980  0.25239517  0.50424249  1
  K  K22  1  0.83544673  0.74391565  -0.00083563  1
  K  K23  1  0.82974591  0.75299215  0.50175742  1
  Na  Na24  1  0.49416734  0.00164898  0.24947275  1
  Na  Na25  1  0.49943701  0.66571138  0.24724281  1
  Na  Na26  1  0.83264207  0.66910603  0.74678179  1
  Li  Li27  1  -0.00300213  0.24981599  0.74151634  1
  Li  Li28  1  0.50147689  0.50363149  0.25013551  1
  Li  Li29  1  0.82957121  0.83408572  0.25349990  1
  Li  Li30  1  0.33527748  0.08131109  0.24895164  1
  Li  Li31  1  0.50714396  0.16757103  0.74765505  1
  Mg  Mg32  1  0.33462322  0.74902118  0.74802597  1
  Mg  Mg33  1  0.83573092  0.00167689  0.75089324  1
  Mg  Mg34  1  0.00144497  0.75168497  0.74893076  1
  Mg  Mg35  1  0.83402604  0.49980811  0.75045497  1
  Mg  Mg36  1  0.16952841  0.00366789  0.74817789  1
  Mg  Mg37  1  0.50068929  0.50062084  0.75030793  1
  Mg  Mg38  1  0.33299712  0.74944494  0.24640682  1
  Mg  Mg39  1  -0.00016165  0.25030750  0.24546344  1
  Mg  Mg40  1  0.50257143  0.00363492  0.75250778  1
  Mg  Mg41  1  0.66470665  0.25099539  0.25448854  1
  Mg  Mg42  1  0.83063509  -0.00389767  0.25309413  1
  Mg  Mg43  1  0.66700241  0.75168875  0.25027199  1
  Mg  Mg44  1  0.33852580  0.24941976  0.75091843  1
  Mg  Mg45  1  0.83439032  0.50220961  0.24676059  1
  Mg  Mg46  1  0.16630071  0.49669438  0.74774648  1
  Mg  Mg47  1  0.16735940  0.00016686  0.24909796  1
  Mg  Mg48  1  0.66821892  0.24833070  0.75559962  1
  Mg  Mg49  1  0.66698597  0.75168336  0.74934012  1
  Mg  Mg50  1  0.33447512  0.24722296  0.24961473  1
  Mg  Mg51  1  0.16739977  0.49957346  0.24169278  1
  Mg  Mg52  1  -0.00363426  0.75066566  0.24594904  1
  Mg  Mg53  1  -0.00037314  0.91762466  0.74959777  1
  Mg  Mg54  1  0.16539374  0.33281715  0.24309449  1
  Mg  Mg55  1  -0.00091599  0.41481153  0.24218883  1
  Mg  Mg56  1  0.16600460  0.66506878  0.24254119  1
  Mg  Mg57  1  0.33424906  0.58210974  0.24381070  1
  Mg  Mg58  1  0.50299140  0.33268213  0.75554757  1
  Mg  Mg59  1  0.83220339  0.33543148  0.24898938  1
  Mg  Mg60  1  0.83054493  0.83523801  0.74686396  1
  Mg  Mg61  1  -0.00161029  0.58471678  0.24282329  1
  Mg  Mg62  1  0.33197293  0.58375100  0.74809952  1
  Mg  Mg63  1  0.49988907  0.83382715  0.25118226  1
  Mg  Mg64  1  0.33394029  0.91692049  0.74914088  1
  Mg  Mg65  1  0.16613563  0.66442024  0.74814166  1
  Mg  Mg66  1  0.83235157  0.16546607  0.25151550  1
  Mg  Mg67  1  0.16832765  0.16404908  0.24733331  1
  Mg  Mg68  1  -0.00259370  0.58329164  0.74791398  1
  Mg  Mg69  1  0.66575933  0.08651722  0.75292660  1
  Mg  Mg70  1  0.49879168  0.83588051  0.74999099  1
  Mg  Mg71  1  0.66799511  0.58459290  0.75148777  1
  Mg  Mg72  1  -0.00269049  0.41166146  0.74863331  1
  Mg  Mg73  1  0.16411079  0.83430569  0.24815674  1
  Mg  Mg74  1  0.49799261  0.16552046  0.25322327  1
  Mg  Mg75  1  -0.00486477  0.91468718  0.25120152  1
  Mg  Mg76  1  0.49923157  0.66652463  0.74827524  1
  Mg  Mg77  1  0.33652718  0.08624841  0.75098491  1
  Mg  Mg78  1  0.33218388  0.91911594  0.24818392  1
  Mg  Mg79  1  0.67020997  0.41499721  0.75569376  1
  Mg  Mg80  1  0.83436763  0.33409920  0.75375805  1
  Mg  Mg81  1  0.33596545  0.41692089  0.24653420  1
  Mg  Mg82  1  0.66559994  0.08245477  0.25446222  1
  Mg  Mg83  1  0.66495606  0.58371240  0.24911218  1
  Mg  Mg84  1  0.83464203  0.16747556  0.75220944  1
  Mg  Mg85  1  0.16632397  0.16797975  0.74954100  1
  Mg  Mg86  1  0.66467720  0.91749594  0.74947230  1
  Mg  Mg87  1  0.83213388  0.66892869  0.24567583  1
  Mg  Mg88  1  0.16373802  0.33113427  0.74755750  1
  Mg  Mg89  1  0.66766148  0.91539830  0.25364915  1
  Mg  Mg90  1  -0.00155260  0.08337367  0.24856831  1
  Mg  Mg91  1  -0.00027859  0.08731257  0.74691380  1
  Mg  Mg92  1  0.33191271  0.41515725  0.75016186  1
  Mg  Mg93  1  0.50251374  0.33743734  0.25303611  1
  Mg  Mg94  1  0.66483944  0.41822509  0.25340802  1
  Mg  Mg95  1  0.16775843  0.83515151  0.74890377  1
  Fe  Fe96  1  0.69139966  0.16481119  0.61290454  1
  Fe  Fe97  1  0.69081598  0.33498524  0.61446770  1
  Fe  Fe98  1  0.02304839  0.16801185  0.60922142  1
  Fe  Fe99  1  0.64099978  0.33508521  0.39361171  1
  Fe  Fe100  1  0.35501944  0.66410914  0.60992402  1
  Fe  Fe101  1  0.02329055  0.32810471  0.10436532  1
  Fe  Fe102  1  0.19665545  0.08718463  0.60895688  1
  Fe  Fe103  1  0.64120889  0.16372274  0.89535646  1
  Fe  Fe104  1  0.86262663  0.42169842  0.60929866  1
  Fe  Fe105  1  0.80993967  0.91287097  0.39167885  1
  Fe  Fe106  1  0.19035628  0.41151153  0.60991438  1
  Fe  Fe107  1  0.68641812  0.66609013  0.61063407  1
  Fe  Fe108  1  0.85857686  0.91388064  0.61207904  1
  Fe  Fe109  1  0.81336386  0.42090974  0.89636380  1
  Fe  Fe110  1  0.19458535  0.58426899  0.10413649  1
  Fe  Fe111  1  0.52181531  0.92000871  0.61211198  1
  Fe  Fe112  1  0.85400749  0.58585018  0.10639205  1
  Si  Si113  1  0.69074779  0.16588343  0.11719656  1
  Si  Si114  1  0.97576696  0.33630349  0.38218167  1
  Si  Si115  1  0.02095884  0.15717653  0.10969797  1
  Si  Si116  1  0.46889039  0.07723455  0.89210569  1
  Si  Si117  1  0.81078280  0.58929586  0.88919521  1
  Si  Si118  1  0.03223585  0.83401755  0.61415664  1
  Si  Si119  1  0.86169913  0.58856653  0.61003103  1
  Si  Si120  1  0.64125363  0.83459578  0.88812745  1
  Si  Si121  1  0.97726700  0.16158348  0.88657681  1
  Si  Si122  1  0.46623539  0.41855559  0.38750440  1
  Si  Si123  1  0.64125055  0.66361524  0.38438452  1
  Si  Si124  1  0.02066500  0.83968947  0.11216014  1
  Si  Si125  1  0.46761773  0.91402246  0.38460378  1
  Si  Si126  1  0.53000006  0.58044552  0.11326491  1
  Si  Si127  1  0.81440998  0.07871478  0.89243480  1
  Si  Si128  1  0.68719537  0.67127156  0.10987049  1
  Si  Si129  1  0.30680473  0.82977875  0.88630217  1
  Si  Si130  1  0.97477640  0.17090372  0.38342573  1
  Si  Si131  1  0.19689888  0.41070217  0.10657630  1
  Si  Si132  1  0.46951334  0.58267240  0.38238035  1
  Si  Si133  1  0.35997274  0.83470258  0.11217112  1
  Si  Si134  1  0.81048467  0.58824999  0.38344874  1
  Si  Si135  1  0.30504665  0.66431171  0.88567540  1
  Si  Si136  1  0.47142003  0.91271946  0.88907519  1
  Si  Si137  1  0.81274196  0.42199119  0.38556988  1
  Si  Si138  1  0.98082730  0.82829645  0.38673077  1
  Si  Si139  1  0.85266475  0.91606991  0.11544431  1
  Si  Si140  1  0.97993039  0.66509723  0.38246276  1
  Si  Si141  1  0.35945422  0.16742514  0.11455732  1
  Si  Si142  1  0.52494795  0.08262052  0.61503257  1
  Si  Si143  1  0.02554579  0.67312175  0.10627211  1
  Si  Si144  1  0.52571467  0.41922704  0.61948630  1
  Si  Si145  1  0.85386154  0.07923726  0.11574101  1
  Si  Si146  1  0.14112228  0.41350773  0.88567055  1
  Si  Si147  1  0.14230615  0.58111446  0.38018231  1
  Si  Si148  1  0.14011682  0.57980555  0.88494777  1
  Si  Si149  1  0.30810301  0.33310376  0.88685164  1
  Si  Si150  1  0.63993092  0.66914711  0.88789275  1
  Si  Si151  1  0.19317728  0.08163712  0.11375882  1
  Si  Si152  1  0.30364906  0.33150838  0.38210517  1
  Si  Si153  1  0.30651270  0.66819072  0.38187602  1
  Si  Si154  1  0.36903814  0.16891800  0.61677452  1
  Si  Si155  1  0.53008374  0.41663490  0.11451283  1
  Si  Si156  1  0.02473495  0.33254980  0.61081590  1
  Si  Si157  1  0.85816954  0.08157693  0.61250917  1
  Si  Si158  1  0.19189285  0.91586300  0.11234974  1
  Si  Si159  1  0.47012332  0.42005096  0.88855540  1
  Si  Si160  1  0.98024493  0.83343627  0.88742605  1
  Si  Si161  1  0.52570409  0.91906290  0.11559388  1
  Si  Si162  1  0.30341187  0.83376603  0.38320293  1
  Si  Si163  1  0.97851158  0.32860340  0.88850014  1
  Si  Si164  1  0.85241563  0.41562031  0.11014684  1
  Si  Si165  1  0.63807738  0.33783987  0.89647609  1
  Si  Si166  1  0.18613920  0.57967767  0.61053006  1
  Si  Si167  1  0.81217476  0.08462108  0.38799293  1
  Si  Si168  1  0.14404682  0.08283461  0.88723873  1
  Si  Si169  1  0.52458415  0.57972160  0.61334651  1
  Si  Si170  1  0.69246687  0.33052093  0.11597081  1
  Si  Si171  1  0.47418903  0.58540404  0.88746031  1
  Si  Si172  1  0.36551758  0.33411065  0.61558747  1
  Si  Si173  1  0.30681161  0.16593409  0.38415369  1
  Si  Si174  1  0.36644433  0.33205740  0.11351110  1
  Si  Si175  1  0.13925754  0.08450955  0.38375378  1
  Si  Si176  1  0.81074585  0.91258260  0.88755001  1
  Si  Si177  1  0.13962137  0.91801714  0.38443507  1
  Si  Si178  1  0.98037814  0.66928856  0.88498833  1
  Si  Si179  1  0.30795380  0.16754494  0.88817744  1
  Si  Si180  1  0.68572341  0.83528844  0.11493941  1
  Si  Si181  1  0.14439316  0.91792941  0.88675456  1
  Si  Si182  1  0.52610029  0.08584805  0.11620647  1
  Si  Si183  1  0.35506525  0.83230015  0.61240921  1
  Si  Si184  1  0.36252176  0.66809291  0.10750464  1
  Si  Si185  1  0.63503148  0.83050723  0.38965477  1
  Si  Si186  1  0.68731369  0.83386361  0.61119532  1
  Si  Si187  1  0.64051079  0.16107588  0.38983047  1
  Si  Si188  1  0.19371567  0.91652275  0.61411556  1
  Si  Si189  1  0.02867281  0.66914540  0.61446629  1
  Si  Si190  1  0.47020418  0.08235373  0.38565684  1
  Si  Si191  1  0.14107465  0.41673524  0.37943649  1
  O  O192  1  0.27031274  0.12384764  0.08501022  1
  O  O193  1  0.29771799  0.11437021  0.57877202  1
  O  O194  1  0.28257289  0.62618210  0.06550226  1
  O  O195  1  0.26762969  0.59944281  0.57692376  1
  O  O196  1  0.60582574  0.11967645  0.08491564  1
  O  O197  1  0.60887680  0.09454015  0.58236849  1
  O  O198  1  0.60544391  0.61905975  0.07987153  1
  O  O199  1  0.60881847  0.59098611  0.58096760  1
  O  O200  1  0.93854133  0.10298494  0.08623656  1
  O  O201  1  0.94634567  0.09223940  0.58433310  1
  O  O202  1  0.94648037  0.62400180  0.07224187  1
  O  O203  1  0.95047632  0.61684202  0.58404899  1
  O  O204  1  0.12433029  0.35334513  0.07590546  1
  O  O205  1  0.11296961  0.33905056  0.58024224  1
  O  O206  1  0.09981496  0.87804075  0.08226108  1
  O  O207  1  0.12275785  0.85280284  0.58961221  1
  O  O208  1  0.44717763  0.36614878  0.08403913  1
  O  O209  1  0.45346244  0.35849634  0.59060025  1
  O  O210  1  0.43470557  0.87957385  0.08326882  1
  O  O211  1  0.43740137  0.85127368  0.58031473  1
  O  O212  1  0.77576250  0.35554733  0.08663720  1
  O  O213  1  0.77844949  0.35956212  0.57161102  1
  O  O214  1  0.76943623  0.86633825  0.08590777  1
  O  O215  1  0.77690597  0.84359389  0.58474425  1
  O  O216  1  0.28537061  0.38161402  0.08236125  1
  O  O217  1  0.29137364  0.38691668  0.57900606  1
  O  O218  1  0.26704789  0.87262848  0.08230109  1
  O  O219  1  0.28101414  0.89370550  0.58779255  1
  O  O220  1  0.61049764  0.38081036  0.08494820  1
  O  O221  1  0.60785707  0.40673526  0.58654625  1
  O  O222  1  0.60317048  0.88529966  0.08130443  1
  O  O223  1  0.62302359  0.89930840  0.58250167  1
  O  O224  1  0.93353743  0.39210950  0.07784945  1
  O  O225  1  0.96537912  0.40064342  0.58163886  1
  O  O226  1  0.93474153  0.88694595  0.08343034  1
  O  O227  1  0.95993593  0.88877539  0.58074053  1
  O  O228  1  0.10185356  0.11886920  0.08154803  1
  O  O229  1  0.11477406  0.14848543  0.56734065  1
  O  O230  1  0.10832337  0.65140131  0.07549424  1
  O  O231  1  0.11320101  0.64294308  0.58627861  1
  O  O232  1  0.43677487  0.12739106  0.08410394  1
  O  O233  1  0.45942700  0.15133973  0.59279586  1
  O  O234  1  0.44697575  0.63119625  0.08472670  1
  O  O235  1  0.45350581  0.63757502  0.57909705  1
  O  O236  1  0.77201280  0.13130010  0.08836352  1
  O  O237  1  0.79244619  0.14490936  0.58227581  1
  O  O238  1  0.76436472  0.64886291  0.07342883  1
  O  O239  1  0.79205236  0.65053853  0.58476153  1
  O  O240  1  0.05929243  0.12189697  0.41120022  1
  O  O241  1  0.06618189  0.11805335  0.91855195  1
  O  O242  1  0.06148319  0.61260616  0.41111950  1
  O  O243  1  0.06485831  0.62058089  0.91659205  1
  O  O244  1  0.39278425  0.12184720  0.41729825  1
  O  O245  1  0.39107698  0.12015683  0.92118093  1
  O  O246  1  0.39653501  0.62987575  0.41329237  1
  O  O247  1  0.39776370  0.62876927  0.91631826  1
  O  O248  1  0.72763651  0.11416157  0.41485557  1
  O  O249  1  0.74387817  0.11366422  0.93009158  1
  O  O250  1  0.73203344  0.62289741  0.41564135  1
  O  O251  1  0.73159266  0.63266138  0.91684829  1
  O  O252  1  0.22169235  0.36554907  0.40957505  1
  O  O253  1  0.23132521  0.37332913  0.91665269  1
  O  O254  1  0.22692433  0.87400179  0.41328390  1
  O  O255  1  0.23204505  0.87306365  0.91673439  1
  O  O256  1  0.54912410  0.37712799  0.42493104  1
  O  O257  1  0.55641450  0.37951176  0.92228768  1
  O  O258  1  0.55179586  0.86711209  0.41519346  1
  O  O259  1  0.56549557  0.87753800  0.91839344  1
  O  O260  1  0.89979884  0.37486923  0.41261460  1
  O  O261  1  0.90955131  0.36339805  0.92800989  1
  O  O262  1  0.90395623  0.85258167  0.42210711  1
  O  O263  1  0.89861991  0.86660447  0.91682102  1
  O  O264  1  0.06076944  0.38406616  0.40907898  1
  O  O265  1  0.07006441  0.37014130  0.91813892  1
  O  O266  1  0.06492438  0.87899761  0.41610446  1
  O  O267  1  0.06557838  0.88172855  0.91803541  1
  O  O268  1  0.38388300  0.38109521  0.41439732  1
  O  O269  1  0.39319214  0.37964572  0.91861240  1
  O  O270  1  0.38936741  0.87685324  0.41553823  1
  O  O271  1  0.39971987  0.86349330  0.91863911  1
  O  O272  1  0.73841000  0.39122432  0.42052360  1
  O  O273  1  0.72050476  0.38339885  0.93046763  1
  O  O274  1  0.71724059  0.87360636  0.42561370  1
  O  O275  1  0.73243597  0.87401271  0.91862046  1
  O  O276  1  0.22644273  0.12864359  0.41290785  1
  O  O277  1  0.22906643  0.12986627  0.91840468  1
  O  O278  1  0.22774310  0.62785774  0.40977481  1
  O  O279  1  0.23065074  0.62061520  0.91516825  1
  O  O280  1  0.56178360  0.11923107  0.41695665  1
  O  O281  1  0.55571352  0.11189866  0.93035287  1
  O  O282  1  0.56281073  0.62006169  0.40947696  1
  O  O283  1  0.56381631  0.62645071  0.91864856  1
  O  O284  1  0.89227432  0.14153079  0.41187094  1
  O  O285  1  0.90563411  0.11983096  0.92190796  1
  O  O286  1  0.89677776  0.63593613  0.41161249  1
  O  O287  1  0.89567787  0.64194329  0.91186784  1
  O  O288  1  0.19004991  -0.00130151  0.08284492  1
  O  O289  1  0.16246082  -0.00824899  0.57961508  1
  O  O290  1  0.17635785  0.48919606  0.07233613  1
  O  O291  1  0.14781304  0.50332887  0.58097667  1
  O  O292  1  0.51328004  0.00275060  0.08793719  1
  O  O293  1  0.47723735  0.00989121  0.58216789  1
  O  O294  1  0.51417520  0.49787914  0.08101229  1
  O  O295  1  0.48410201  0.49822597  0.59439656  1
  O  O296  1  0.82993900  -0.00189485  0.08545692  1
  O  O297  1  0.81747278  0.00433555  0.58385891  1
  O  O298  1  0.81629420  0.49262863  0.08103490  1
  O  O299  1  0.83555366  0.51388172  0.57087671  1
  O  O300  1  -0.00176107  0.23279882  0.07292971  1
  O  O301  1  -0.02298065  0.25843175  0.58220289  1
  O  O302  1  0.00427119  0.75886188  0.08188313  1
  O  O303  1  0.00847752  0.75135043  0.58657712  1
  O  O304  1  0.35101425  0.24950560  0.08288510  1
  O  O305  1  0.34450623  0.25150560  0.58817223  1
  O  O306  1  0.35995324  0.75363696  0.07994967  1
  O  O307  1  0.31537462  0.75616087  0.58237724  1
  O  O308  1  0.67232203  0.24771620  0.08822442  1
  O  O309  1  0.64744249  0.25029428  0.57660479  1
  O  O310  1  0.66138253  0.75476136  0.08372207  1
  O  O311  1  0.64445229  0.75778809  0.58228239  1
  O  O312  1  0.15007505  0.00147871  0.41231973  1
  O  O313  1  0.15831296  -0.00017542  0.91813117  1
  O  O314  1  0.15954385  0.49869686  0.40883534  1
  O  O315  1  0.14840245  0.49727377  0.91459715  1
  O  O316  1  0.47529854  -0.00221789  0.41198153  1
  O  O317  1  0.46605342  -0.00729181  0.92195912  1
  O  O318  1  0.46894586  0.50228560  0.41613749  1
  O  O319  1  0.47565135  0.50353669  0.91846222  1
  O  O320  1  0.83968803  0.00807880  0.42151830  1
  O  O321  1  0.82782684  -0.00671812  0.92033632  1
  O  O322  1  0.83244069  0.50615369  0.41101239  1
  O  O323  1  0.82971129  0.51612235  0.93163179  1
  O  O324  1  0.31633015  0.24935750  0.41313755  1
  O  O325  1  0.31875396  0.25062108  0.91852730  1
  O  O326  1  0.30935808  0.75079352  0.41202499  1
  O  O327  1  0.30612931  0.74701128  0.91564329  1
  O  O328  1  0.65327046  0.23927786  0.42376391  1
  O  O329  1  0.64232680  0.25825526  0.93039701  1
  O  O330  1  0.64101902  0.74537116  0.41581007  1
  O  O331  1  0.64306702  0.75205374  0.91890282  1
  O  O332  1  0.99288835  0.25368647  0.41054289  1
  O  O333  1  0.99269605  0.24384050  0.91571520  1
  O  O334  1  1.00754075  0.74490808  0.41276686  1
  O  O335  1  0.99899193  0.75142674  0.91725279  1
  O  O336  1  0.20465378  0.08168403  0.19315749  1
  O  O337  1  0.21563972  0.08482376  0.70199635  1
  O  O338  1  0.21125875  0.58312406  0.19607687  1
  O  O339  1  0.20806601  0.58252424  0.69280166  1
  O  O340  1  0.54700082  0.09202340  0.19507278  1
  O  O341  1  0.54533274  0.07878619  0.69607224  1
  O  O342  1  0.55128570  0.57661781  0.19159063  1
  O  O343  1  0.54109685  0.58372405  0.69556306  1
  O  O344  1  0.87440224  0.08159973  0.19620957  1
  O  O345  1  0.87644472  0.08259691  0.69521299  1
  O  O346  1  0.87767140  0.58519903  0.19836898  1
  O  O347  1  0.88255340  0.57786888  0.69034336  1
  O  O348  1  0.04427467  0.33057229  0.19673818  1
  O  O349  1  0.04603940  0.33550112  0.69261902  1
  O  O350  1  0.04149057  0.83759671  0.19257992  1
  O  O351  1  0.04794619  0.83447915  0.69569886  1
  O  O352  1  0.38004424  0.33153552  0.19390192  1
  O  O353  1  0.37909784  0.33525716  0.69683655  1
  O  O354  1  0.37416138  0.83438988  0.19205322  1
  O  O355  1  0.37447373  0.83328540  0.69482356  1
  O  O356  1  0.70999999  0.33240162  0.19635600  1
  O  O357  1  0.71059174  0.33220992  0.70694508  1
  O  O358  1  0.70326966  0.83512232  0.19415465  1
  O  O359  1  0.70615210  0.83547334  0.69409782  1
  O  O360  1  0.21172835  0.41329190  0.18843096  1
  O  O361  1  0.21303773  0.41532867  0.70218217  1
  O  O362  1  0.20631172  0.91514321  0.19245297  1
  O  O363  1  0.21141296  0.91701917  0.69591673  1
  O  O364  1  0.54558359  0.41508291  0.19395501  1
  O  O365  1  0.54355521  0.41709979  0.70094261  1
  O  O366  1  0.54616201  0.91211166  0.19440158  1
  O  O367  1  0.54278241  0.91788411  0.70468199  1
  O  O368  1  0.87441403  0.41527935  0.19211078  1
  O  O369  1  0.87831679  0.41704087  0.70157222  1
  O  O370  1  0.87753497  0.91929668  0.19461033  1
  O  O371  1  0.88025392  0.91797232  0.70435333  1
  O  O372  1  0.04167195  0.16235768  0.19084574  1
  O  O373  1  0.04931722  0.16538640  0.70084285  1
  O  O374  1  0.04237273  0.66977839  0.18815335  1
  O  O375  1  0.04581862  0.66785545  0.69538747  1
  O  O376  1  0.37804853  0.16941115  0.19383415  1
  O  O377  1  0.37780877  0.16767463  0.69726134  1
  O  O378  1  0.36478498  0.66866309  0.18649912  1
  O  O379  1  0.37734846  0.66577709  0.70236717  1
  O  O380  1  0.70953301  0.16611432  0.19763743  1
  O  O381  1  0.71429062  0.16587867  0.70527175  1
  O  O382  1  0.70748511  0.66801317  0.19052648  1
  O  O383  1  0.69819461  0.66774892  0.70115265  1
  O  O384  1  0.12177298  0.08366356  0.30310528  1
  O  O385  1  0.12691700  0.08131619  0.80798006  1
  O  O386  1  0.12176498  0.58327633  0.29986327  1
  O  O387  1  0.12493983  0.58262452  0.80492529  1
  O  O388  1  0.45080213  0.09093763  0.30711498  1
  O  O389  1  0.45235253  0.07577137  0.81251475  1
  O  O390  1  0.44611596  0.57914043  0.30377338  1
  O  O391  1  0.45705348  0.58397624  0.80767738  1
  O  O392  1  0.79252139  0.08442934  0.30645145  1
  O  O393  1  0.79508483  0.07971736  0.81225128  1
  O  O394  1  0.79102641  0.58664365  0.30316291  1
  O  O395  1  0.78783484  0.57914060  0.81029989  1
  O  O396  1  0.28778950  0.33137587  0.30138574  1
  O  O397  1  0.29276585  0.33301530  0.80732680  1
  O  O398  1  0.28507481  0.83382589  0.30269155  1
  O  O399  1  0.29020583  0.83209420  0.80626693  1
  O  O400  1  0.62238732  0.33428852  0.30145534  1
  O  O401  1  0.62156493  0.33734096  0.81562139  1
  O  O402  1  0.62107894  0.83257046  0.30868196  1
  O  O403  1  0.62272525  0.83408424  0.80847081  1
  O  O404  1  0.95582522  0.33390956  0.30160111  1
  O  O405  1  0.95874916  0.33463483  0.80923939  1
  O  O406  1  0.96518791  0.83132583  0.30637469  1
  O  O407  1  0.96411548  0.83415606  0.80794333  1
  O  O408  1  0.12433381  0.41710781  0.29899869  1
  O  O409  1  0.12326869  0.41517226  0.80594493  1
  O  O410  1  0.12144678  0.91687009  0.30374244  1
  O  O411  1  0.12647578  0.91638286  0.80685390  1
  O  O412  1  0.45142100  0.41362947  0.30718700  1
  O  O413  1  0.45406782  0.42016146  0.80851176  1
  O  O414  1  0.44802815  0.91017037  0.30512465  1
  O  O415  1  0.45302076  0.91320449  0.80932322  1
  O  O416  1  0.79355858  0.41861069  0.30441331  1
  O  O417  1  0.79093204  0.41953481  0.80588552  1
  O  O418  1  0.78768279  0.91663373  0.30102114  1
  O  O419  1  0.78986358  0.91557801  0.80800301  1
  O  O420  1  0.28695594  0.16795588  0.30435104  1
  O  O421  1  0.29330588  0.16748211  0.80866142  1
  O  O422  1  0.28831061  0.66854362  0.30159940  1
  O  O423  1  0.28762033  0.66541663  0.80580059  1
  O  O424  1  0.62266696  0.16501333  0.30841948  1
  O  O425  1  0.62310480  0.16524988  0.80584172  1
  O  O426  1  0.63310824  0.66691602  0.30528484  1
  O  O427  1  0.61834627  0.66872384  0.80832925  1
  O  O428  1  0.95775578  0.16775212  0.30240320  1
  O  O429  1  0.95540609  0.15854788  0.80782750  1
  O  O430  1  0.96095988  0.66645074  0.30222253  1
  O  O431  1  0.97023561  0.66926076  0.80592892  1
  F  F432  1  0.04427439  -0.00124263  0.20171105  1
  F  F433  1  0.04861111  -0.00080228  0.70509918  1
  F  F434  1  0.04491183  0.49997868  0.19615567  1
  F  F435  1  0.04647245  0.50008584  0.70480988  1
  F  F436  1  0.36124432  -0.00338358  0.19197077  1
  F  F437  1  0.37953242  -0.00025899  0.70629073  1
  F  F438  1  0.37254845  0.49782230  0.19534779  1
  F  F439  1  0.37824196  0.50011930  0.70529690  1
  F  F440  1  0.71048186  0.00354001  0.20049714  1
  F  F441  1  0.71353548  0.00096688  0.70896853  1
  F  F442  1  0.71291253  0.49897738  0.20248447  1
  F  F443  1  0.71055649  0.50087243  0.70582035  1
  F  F444  1  0.21311560  0.24688520  0.19859247  1
  F  F445  1  0.21802139  0.24996731  0.70395808  1
  F  F446  1  0.21007431  0.75339826  0.19814288  1
  F  F447  1  0.21246044  0.74966123  0.70391865  1
  F  F448  1  0.54403787  0.24896416  0.20365777  1
  F  F449  1  0.54776074  0.25570706  0.70831724  1
  F  F450  1  0.54824608  0.75916535  0.19901213  1
  F  F451  1  0.54245027  0.75223187  0.70605852  1
  F  F452  1  0.87618579  0.24810309  0.20121780  1
  F  F453  1  0.87548049  0.25052003  0.70727050  1
  F  F454  1  0.88015789  0.74914207  0.19792068  1
  F  F455  1  0.88703067  0.76127464  0.70087483  1
  F  F456  1  0.28177640  -0.00602453  0.30041638  1
  F  F457  1  0.28875354  -0.00390275  0.80207280  1
  F  F458  1  0.28513876  0.49647163  0.29502725  1
  F  F459  1  0.28853392  0.50314745  0.80093421  1
  F  F460  1  0.63049388  -0.00036002  0.30231550  1
  F  F461  1  0.62349280  -0.00033019  0.80516737  1
  F  F462  1  0.62893484  0.50169590  0.30184894  1
  F  F463  1  0.61888182  0.50321957  0.80196092  1
  F  F464  1  0.95616965  0.00110391  0.29852179  1
  F  F465  1  0.96048837  0.00108139  0.80210603  1
  F  F466  1  0.95882713  0.49804772  0.29417898  1
  F  F467  1  0.95847154  0.50352652  0.80141463  1
  F  F468  1  0.12212342  0.24687351  0.29495499  1
  F  F469  1  0.13592264  0.25089460  0.80459207  1
  F  F470  1  0.12062184  0.74895670  0.29285714  1
  F  F471  1  0.12544524  0.75094548  0.79898510  1
  F  F472  1  0.45352834  0.25150475  0.29939691  1
  F  F473  1  0.45098431  0.25859893  0.80693149  1
  F  F474  1  0.44642473  0.75702785  0.29895158  1
  F  F475  1  0.45384320  0.75206713  0.80194222  1
  F  F476  1  0.78936128  0.25050778  0.29850234  1
  F  F477  1  0.79284234  0.24893590  0.80840647  1
  F  F478  1  0.78752741  0.74694783  0.29631289  1
  F  F479  1  0.78434390  0.76253279  0.80317037  1
