# generated using pymatgen
data_K24Na3Li5Mg64Fe17Si79(O5F)48
_symmetry_space_group_name_H-M   'P 1'
_cell_length_a   16.08138037
_cell_length_b   18.58451724
_cell_length_c   20.56163255
_cell_angle_alpha   89.99600877
_cell_angle_beta   100.01746275
_cell_angle_gamma   90.00596635
_symmetry_Int_Tables_number   1
_chemical_formula_structural   K24Na3Li5Mg64Fe17Si79(O5F)48
_chemical_formula_sum   'K24 Na3 Li5 Mg64 Fe17 Si79 O240 F48'
_cell_volume   6051.46182749
_cell_formula_units_Z   1
loop_
 _symmetry_equiv_pos_site_id
 _symmetry_equiv_pos_as_xyz
  1  'x, y, z'
loop_
 _atom_site_type_symbol
 _atom_site_label
 _atom_site_symmetry_multiplicity
 _atom_site_fract_x
 _atom_site_fract_y
 _atom_site_fract_z
 _atom_site_occupancy
  K  K0  1  -0.00242725  0.00677683  0.00689018  1
  K  K1  1  -0.00004394  0.00096681  0.49836023  1
  K  K2  1  0.00188243  0.50422977  0.00818864  1
  K  K3  1  -0.00730220  0.50142138  0.49132436  1
  K  K4  1  0.33655864  -0.00175662  0.00346076  1
  K  K5  1  0.33144411  0.00378928  0.49913937  1
  K  K6  1  0.32574036  0.49704666  0.00339218  1
  K  K7  1  0.34184712  0.49858020  0.49735342  1
  K  K8  1  0.67601635  0.00757978  0.01249020  1
  K  K9  1  0.66890682  0.00473795  0.49663491  1
  K  K10  1  0.68078014  0.50122052  0.01285554  1
  K  K11  1  0.66645785  0.49587744  0.49651420  1
  K  K12  1  0.15968472  0.26015766  0.01166919  1
  K  K13  1  0.16656734  0.25029719  0.49386324  1
  K  K14  1  0.15355336  0.74456168  -0.00390903  1
  K  K15  1  0.16846334  0.75274190  0.50471471  1
  K  K16  1  0.50611854  0.25247356  0.00436824  1
  K  K17  1  0.49830296  0.24502566  0.49858084  1
  K  K18  1  0.50281825  0.73946723  0.00390055  1
  K  K19  1  0.49722769  0.74178832  0.50257217  1
  K  K20  1  0.85321901  0.24467248  0.01624414  1
  K  K21  1  0.83311133  0.25130812  0.49049277  1
  K  K22  1  0.82728158  0.73721839  0.01102131  1
  K  K23  1  0.83520922  0.74565833  0.49671529  1
  Na  Na24  1  0.66585099  0.25017954  0.74734334  1
  Na  Na25  1  0.83097590  0.82974808  0.24018972  1
  Na  Na26  1  0.83773434  0.33220288  0.25612371  1
  Li  Li27  1  0.50320581  0.00248771  0.24727507  1
  Li  Li28  1  -0.00174880  0.74697857  0.75619299  1
  Li  Li29  1  0.67328643  0.58134797  0.24809136  1
  Li  Li30  1  0.16373190  0.17143452  0.24775045  1
  Li  Li31  1  -0.00339348  0.41209469  0.25272448  1
  Mg  Mg32  1  0.83423618  0.49843236  0.25393342  1
  Mg  Mg33  1  0.00064081  0.74970084  0.24942279  1
  Mg  Mg34  1  0.50057040  0.49933993  0.25074741  1
  Mg  Mg35  1  0.16559381  -0.00127310  0.74735459  1
  Mg  Mg36  1  0.16505083  0.49992711  0.24895295  1
  Mg  Mg37  1  0.66583203  0.74963460  0.75342275  1
  Mg  Mg38  1  0.66884980  0.25090040  0.25219701  1
  Mg  Mg39  1  0.33093188  0.75134740  0.74711018  1
  Mg  Mg40  1  0.00162065  0.25061883  0.74710511  1
  Mg  Mg41  1  0.83384999  0.49869184  0.75222685  1
  Mg  Mg42  1  0.32747500  0.25011926  0.24924415  1
  Mg  Mg43  1  0.16896105  0.00312635  0.24671385  1
  Mg  Mg44  1  0.49856492  -0.00126261  0.74995945  1
  Mg  Mg45  1  0.33385235  0.25077397  0.74792259  1
  Mg  Mg46  1  0.16557450  0.49915654  0.75000232  1
  Mg  Mg47  1  0.83301699  0.00009718  0.75164993  1
  Mg  Mg48  1  0.49991816  0.49664666  0.74744020  1
  Mg  Mg49  1  0.83632210  -0.00183102  0.24510470  1
  Mg  Mg50  1  0.67009452  0.74810541  0.24774252  1
  Mg  Mg51  1  0.00528080  0.24956735  0.24711983  1
  Mg  Mg52  1  0.33874072  0.75202375  0.24901252  1
  Mg  Mg53  1  0.83857668  0.16517720  0.24932874  1
  Mg  Mg54  1  0.16274481  0.16651837  0.74695163  1
  Mg  Mg55  1  0.33142213  0.41609389  0.25061263  1
  Mg  Mg56  1  0.49756122  0.16581916  0.74945987  1
  Mg  Mg57  1  0.16233889  0.83335971  0.74944796  1
  Mg  Mg58  1  0.33094717  0.41473841  0.74651510  1
  Mg  Mg59  1  0.83541498  0.66694293  0.75546011  1
  Mg  Mg60  1  0.83673254  0.83204272  0.75772559  1
  Mg  Mg61  1  0.49844707  0.33345559  0.74617229  1
  Mg  Mg62  1  0.16512655  0.33503971  0.74668087  1
  Mg  Mg63  1  0.49601247  0.83349804  0.74849969  1
  Mg  Mg64  1  0.33388943  0.08375191  0.24793050  1
  Mg  Mg65  1  0.66764467  0.08331126  0.24726594  1
  Mg  Mg66  1  0.49896054  0.33387563  0.25323664  1
  Mg  Mg67  1  0.16907572  0.66719361  0.24922572  1
  Mg  Mg68  1  0.66562863  0.58273155  0.75164549  1
  Mg  Mg69  1  0.00295980  0.08516557  0.24841888  1
  Mg  Mg70  1  0.66668608  0.91793396  0.24575985  1
  Mg  Mg71  1  -0.00055497  0.58191905  0.24945495  1
  Mg  Mg72  1  0.66848454  0.41898302  0.25352199  1
  Mg  Mg73  1  0.33628864  0.58509900  0.24937357  1
  Mg  Mg74  1  0.49980974  0.16508304  0.25029010  1
  Mg  Mg75  1  0.16989696  0.83519543  0.24930201  1
  Mg  Mg76  1  0.83385476  0.33344525  0.74789002  1
  Mg  Mg77  1  0.32947558  0.08303312  0.74785776  1
  Mg  Mg78  1  0.50558188  0.83832701  0.24707164  1
  Mg  Mg79  1  0.82941603  0.66469723  0.24797583  1
  Mg  Mg80  1  0.49639400  0.66455706  0.74765388  1
  Mg  Mg81  1  0.32850225  0.58398545  0.74730410  1
  Mg  Mg82  1  -0.00028135  0.91313142  0.75335435  1
  Mg  Mg83  1  -0.00099078  0.08439838  0.74834125  1
  Mg  Mg84  1  -0.00097087  0.41548990  0.74847723  1
  Mg  Mg85  1  0.33980089  0.91929696  0.24815074  1
  Mg  Mg86  1  0.00004565  0.91636095  0.24608258  1
  Mg  Mg87  1  0.66563206  0.41254842  0.74768352  1
  Mg  Mg88  1  0.16158619  0.33588010  0.24825720  1
  Mg  Mg89  1  0.83258793  0.16670256  0.74927063  1
  Mg  Mg90  1  0.16081455  0.66724711  0.75263217  1
  Mg  Mg91  1  0.66616971  0.91539667  0.75284985  1
  Mg  Mg92  1  0.66553650  0.08414827  0.75133350  1
  Mg  Mg93  1  0.32892973  0.91411594  0.74748222  1
  Mg  Mg94  1  -0.00287033  0.58682212  0.75518415  1
  Mg  Mg95  1  0.50615058  0.66522479  0.24809417  1
  Fe  Fe96  1  0.19241299  0.42435147  0.10952151  1
  Fe  Fe97  1  0.47013803  0.41468518  0.38953529  1
  Fe  Fe98  1  0.86252012  0.42170671  0.61113074  1
  Fe  Fe99  1  0.19457728  0.41971449  0.60763482  1
  Fe  Fe100  1  0.68542291  0.83164915  0.10461324  1
  Fe  Fe101  1  0.18602506  0.91758198  0.60796567  1
  Fe  Fe102  1  0.03489999  0.16641734  0.10819133  1
  Fe  Fe103  1  0.53654779  0.41200093  0.60739315  1
  Fe  Fe104  1  0.97363536  0.66738476  0.89591664  1
  Fe  Fe105  1  0.80121240  0.42126879  0.39615177  1
  Fe  Fe106  1  0.36151621  0.32952656  0.60726000  1
  Fe  Fe107  1  0.68272486  0.65855835  0.10769045  1
  Fe  Fe108  1  0.85895059  0.08264340  0.10780598  1
  Fe  Fe109  1  0.02650318  0.33542257  0.60781992  1
  Fe  Fe110  1  0.97802636  0.33139956  0.39197761  1
  Fe  Fe111  1  0.01882374  0.16678323  0.60764454  1
  Fe  Fe112  1  0.36094435  0.83586787  0.60675706  1
  Si  Si113  1  0.63777248  0.66540645  0.88551034  1
  Si  Si114  1  0.70580842  0.32918919  0.61088875  1
  Si  Si115  1  0.02522893  0.66856524  0.11649734  1
  Si  Si116  1  0.80450036  0.08652188  0.88657818  1
  Si  Si117  1  0.64253973  0.83910810  0.38545550  1
  Si  Si118  1  0.98025526  0.16052437  0.38828259  1
  Si  Si119  1  0.81071375  0.59166466  0.38833138  1
  Si  Si120  1  0.14197790  0.08470896  0.88595186  1
  Si  Si121  1  0.02290733  0.33721495  0.10876325  1
  Si  Si122  1  0.14556993  0.91536479  0.38376893  1
  Si  Si123  1  0.47652442  0.91981029  0.38414557  1
  Si  Si124  1  0.63973086  0.83278679  0.88686832  1
  Si  Si125  1  0.63484552  0.32617293  0.38964848  1
  Si  Si126  1  0.97997543  0.83452039  0.38296914  1
  Si  Si127  1  0.63548478  0.16543535  0.88628011  1
  Si  Si128  1  0.51329481  0.57327772  0.11120460  1
  Si  Si129  1  0.35998941  0.16512024  0.11394241  1
  Si  Si130  1  0.80255240  0.57814698  0.89043054  1
  Si  Si131  1  0.52050365  0.41062496  0.11570941  1
  Si  Si132  1  0.47351436  0.08542966  0.38395878  1
  Si  Si133  1  0.69294432  0.16215017  0.61484208  1
  Si  Si134  1  0.97395038  0.84105955  0.89336992  1
  Si  Si135  1  0.47258921  0.91455229  0.88661976  1
  Si  Si136  1  0.52529791  0.92642678  0.11016104  1
  Si  Si137  1  0.30525872  0.83227661  0.88679070  1
  Si  Si138  1  0.19508839  0.59494083  0.11227499  1
  Si  Si139  1  0.35277560  0.66465170  0.61217183  1
  Si  Si140  1  0.14443530  0.07818261  0.38365561  1
  Si  Si141  1  0.29840945  0.33273363  0.38641686  1
  Si  Si142  1  0.85413255  0.07555864  0.61288363  1
  Si  Si143  1  0.48050753  0.58753080  0.38700241  1
  Si  Si144  1  0.81071265  0.91656252  0.38217985  1
  Si  Si145  1  0.14114718  0.41335508  0.88721757  1
  Si  Si146  1  0.63540900  0.33282620  0.88674233  1
  Si  Si147  1  0.47256381  0.08064525  0.88661908  1
  Si  Si148  1  0.36197653  0.67159219  0.11388008  1
  Si  Si149  1  0.85860462  0.41700379  0.11776974  1
  Si  Si150  1  0.53377118  0.91652448  0.61405422  1
  Si  Si151  1  0.20180104  0.07586651  0.10957196  1
  Si  Si152  1  0.85122642  0.58831804  0.61634000  1
  Si  Si153  1  0.80483295  0.92031393  0.88919979  1
  Si  Si154  1  0.64460899  0.16148363  0.38445380  1
  Si  Si155  1  0.18850722  0.08575465  0.61251347  1
  Si  Si156  1  0.69597348  0.83444303  0.62044262  1
  Si  Si157  1  0.86283446  0.91359264  0.10763704  1
  Si  Si158  1  0.68943257  0.67198350  0.61886407  1
  Si  Si159  1  0.52579045  0.08180977  0.61528951  1
  Si  Si160  1  0.01904320  0.66822384  0.61940529  1
  Si  Si161  1  0.64210961  0.67556925  0.38473735  1
  Si  Si162  1  0.30796750  0.16662224  0.88536298  1
  Si  Si163  1  0.02073345  0.83114458  0.61614442  1
  Si  Si164  1  0.97311803  0.33201111  0.88655841  1
  Si  Si165  1  0.97343489  0.16578925  0.88546022  1
  Si  Si166  1  0.18191799  0.58759154  0.61399535  1
  Si  Si167  1  0.35681222  0.32850749  0.11240998  1
  Si  Si168  1  0.30722779  0.66640213  0.88551813  1
  Si  Si169  1  0.31305551  0.83485439  0.38389515  1
  Si  Si170  1  0.86164870  0.58022261  0.11341144  1
  Si  Si171  1  0.97954143  0.66902278  0.38549594  1
  Si  Si172  1  0.14684441  0.58675969  0.38504096  1
  Si  Si173  1  0.31242299  0.66969146  0.38438747  1
  Si  Si174  1  0.19771258  0.91078986  0.11295851  1
  Si  Si175  1  0.52628965  0.09108631  0.11421370  1
  Si  Si176  1  0.30784958  0.33190546  0.88666000  1
  Si  Si177  1  0.14489774  0.57977750  0.89074283  1
  Si  Si178  1  0.13848103  0.42227908  0.38506111  1
  Si  Si179  1  0.80341587  0.41100171  0.88735064  1
  Si  Si180  1  0.14177349  0.91960076  0.88831910  1
  Si  Si181  1  0.52380806  0.58441546  0.61319200  1
  Si  Si182  1  0.02934843  0.83359379  0.11366690  1
  Si  Si183  1  0.47212744  0.41766140  0.88695937  1
  Si  Si184  1  0.30698869  0.16622700  0.38309037  1
  Si  Si185  1  0.85773788  0.91242727  0.61914497  1
  Si  Si186  1  0.35542905  0.15877264  0.61343672  1
  Si  Si187  1  0.36680482  0.83579951  0.11317597  1
  Si  Si188  1  0.81062255  0.07944630  0.38385085  1
  Si  Si189  1  0.68779604  0.33859940  0.11684971  1
  Si  Si190  1  0.69063618  0.17285623  0.11149458  1
  Si  Si191  1  0.47203188  0.58344169  0.88443669  1
  O  O192  1  0.28798272  0.10609919  0.08320795  1
  O  O193  1  0.28295375  0.09655715  0.59043958  1
  O  O194  1  0.26468148  0.64802888  0.08475288  1
  O  O195  1  0.26886228  0.61424293  0.58710335  1
  O  O196  1  0.60262918  0.12736120  0.08154352  1
  O  O197  1  0.60571644  0.11595188  0.58559173  1
  O  O198  1  0.58759252  0.59860763  0.07315199  1
  O  O199  1  0.60470334  0.62595678  0.58787005  1
  O  O200  1  0.94048692  0.11855002  0.06352687  1
  O  O201  1  0.93370178  0.09472286  0.57881618  1
  O  O202  1  0.94322352  0.61976185  0.08691383  1
  O  O203  1  0.93700178  0.61740281  0.58920890  1
  O  O204  1  0.08510153  0.38956706  0.07420566  1
  O  O205  1  0.12783383  0.34210788  0.57769607  1
  O  O206  1  0.11251610  0.86368329  0.08460244  1
  O  O207  1  0.09625409  0.85208532  0.57731976  1
  O  O208  1  0.44572304  0.35219691  0.08677570  1
  O  O209  1  0.46009835  0.34251521  0.57465505  1
  O  O210  1  0.43434105  0.88383322  0.08115565  1
  O  O211  1  0.46455715  0.86100638  0.57790799  1
  O  O212  1  0.76549710  0.37852533  0.08847699  1
  O  O213  1  0.79279946  0.34214149  0.58300828  1
  O  O214  1  0.79216522  0.85334115  0.08123589  1
  O  O215  1  0.78137865  0.85517805  0.59128860  1
  O  O216  1  0.28086313  0.37789889  0.07462276  1
  O  O217  1  0.29395537  0.40654728  0.57560883  1
  O  O218  1  0.27303860  0.86866011  0.08307081  1
  O  O219  1  0.27806131  0.89768139  0.56709768  1
  O  O220  1  0.60272691  0.38527271  0.08324969  1
  O  O221  1  0.63426492  0.38465336  0.57523982  1
  O  O222  1  0.59730998  0.89898272  0.07055187  1
  O  O223  1  0.62520347  0.89517377  0.59158650  1
  O  O224  1  0.92550686  0.36934631  0.08411158  1
  O  O225  1  0.96512624  0.41807447  0.58400082  1
  O  O226  1  0.95181177  0.88556746  0.08222007  1
  O  O227  1  0.93926770  0.88542348  0.58832353  1
  O  O228  1  0.12420401  0.12199426  0.07148612  1
  O  O229  1  0.12613439  0.15064897  0.58329851  1
  O  O230  1  0.10509236  0.63699609  0.08557025  1
  O  O231  1  0.10456911  0.64705843  0.58879132  1
  O  O232  1  0.44431758  0.14162079  0.08389157  1
  O  O233  1  0.44056449  0.12703473  0.58605093  1
  O  O234  1  0.42576461  0.62019205  0.08082594  1
  O  O235  1  0.43785166  0.63275269  0.58669402  1
  O  O236  1  0.76195618  0.13990173  0.07432360  1
  O  O237  1  0.76894446  0.12363955  0.58247155  1
  O  O238  1  0.77757936  0.61926400  0.07519875  1
  O  O239  1  0.77461712  0.64886734  0.59056398  1
  O  O240  1  0.06321718  0.10691514  0.41459764  1
  O  O241  1  0.06212238  0.12200907  0.91424663  1
  O  O242  1  0.06771374  0.62435972  0.41510330  1
  O  O243  1  0.07654707  0.61773651  0.92837123  1
  O  O244  1  0.39766705  0.12545740  0.41552308  1
  O  O245  1  0.39464279  0.12044972  0.91563222  1
  O  O246  1  0.39955868  0.62698486  0.41483648  1
  O  O247  1  0.39777446  0.62672640  0.91452354  1
  O  O248  1  0.72928582  0.11313265  0.41364585  1
  O  O249  1  0.72872505  0.12960882  0.91523940  1
  O  O250  1  0.73418889  0.63978473  0.41420389  1
  O  O251  1  0.72048200  0.61759179  0.91561855  1
  O  O252  1  0.21447930  0.36396212  0.41247033  1
  O  O253  1  0.22824520  0.36726904  0.91665290  1
  O  O254  1  0.23150140  0.86816062  0.41177739  1
  O  O255  1  0.22947281  0.87389296  0.91728599  1
  O  O256  1  0.54695287  0.34048153  0.41611512  1
  O  O257  1  0.56073063  0.37546578  0.91883994  1
  O  O258  1  0.56814134  0.88286844  0.41648382  1
  O  O259  1  0.56066193  0.87105315  0.91532905  1
  O  O260  1  0.88887022  0.36155915  0.43056180  1
  O  O261  1  0.89500596  0.37151288  0.91616962  1
  O  O262  1  0.89882670  0.87118258  0.41052205  1
  O  O263  1  0.89666623  0.88608944  0.92061176  1
  O  O264  1  0.06089095  0.40225251  0.42130919  1
  O  O265  1  0.06246918  0.37452815  0.91658150  1
  O  O266  1  0.06644593  0.88004660  0.41445672  1
  O  O267  1  0.06312827  0.88688010  0.92023859  1
  O  O268  1  0.37509085  0.38245007  0.42222819  1
  O  O269  1  0.39481336  0.37751647  0.91732796  1
  O  O270  1  0.39947124  0.87946732  0.41471347  1
  O  O271  1  0.39495331  0.87456603  0.91595923  1
  O  O272  1  0.70622216  0.38055420  0.42554590  1
  O  O273  1  0.72855708  0.36755910  0.91775709  1
  O  O274  1  0.73413159  0.87787583  0.41464753  1
  O  O275  1  0.72726924  0.87682370  0.91572502  1
  O  O276  1  0.23142658  0.12370199  0.41310477  1
  O  O277  1  0.22921937  0.12971630  0.91536589  1
  O  O278  1  0.23171174  0.63619019  0.41347651  1
  O  O279  1  0.23668784  0.62146992  0.91746285  1
  O  O280  1  0.56493425  0.12414619  0.41451533  1
  O  O281  1  0.56169099  0.12158580  0.91832746  1
  O  O282  1  0.56455233  0.63751795  0.41580797  1
  O  O283  1  0.55832934  0.62868122  0.91400272  1
  O  O284  1  0.89785473  0.12174836  0.41485520  1
  O  O285  1  0.89560588  0.12541328  0.91453068  1
  O  O286  1  0.90035973  0.63772758  0.41732263  1
  O  O287  1  0.88617192  0.61733970  0.92884330  1
  O  O288  1  0.19116128  -0.00875229  0.08026079  1
  O  O289  1  0.14836219  0.01057442  0.58143031  1
  O  O290  1  0.19547046  0.51915305  0.07493035  1
  O  O291  1  0.15079768  0.51276457  0.57988517  1
  O  O292  1  0.50386150  0.01046594  0.08365097  1
  O  O293  1  0.51360735  -0.00069783  0.58608139  1
  O  O294  1  0.48751017  0.48960528  0.08575774  1
  O  O295  1  0.50984436  0.50799615  0.57755648  1
  O  O296  1  0.83713935  -0.01056325  0.07026036  1
  O  O297  1  0.82520905  -0.00853377  0.58984849  1
  O  O298  1  0.85775549  0.49753329  0.08246624  1
  O  O299  1  0.81685573  0.51382093  0.58299550  1
  O  O300  1  0.02287322  0.25971852  0.07135153  1
  O  O301  1  -0.02928417  0.25166911  0.57672514  1
  O  O302  1  0.01049293  0.75094222  0.08632273  1
  O  O303  1  -0.01115090  0.74911086  0.59181209  1
  O  O304  1  0.33544441  0.24548035  0.08380537  1
  O  O305  1  0.32682080  0.23370677  0.57842950  1
  O  O306  1  0.37189306  0.75347970  0.08495070  1
  O  O307  1  0.33340895  0.74120458  0.57581106  1
  O  O308  1  0.67240828  0.25698477  0.08459068  1
  O  O309  1  0.67547171  0.24421939  0.58880084  1
  O  O310  1  0.65657958  0.74462499  0.06251928  1
  O  O311  1  0.66575697  0.75467345  0.59157643  1
  O  O312  1  0.16326933  -0.00400977  0.41495535  1
  O  O313  1  0.15723652  0.00259985  0.91702608  1
  O  O314  1  0.16829686  0.50566774  0.41302102  1
  O  O315  1  0.15766269  0.49516649  0.91747737  1
  O  O316  1  0.48055824  0.00245144  0.41379082  1
  O  O317  1  0.47879297  -0.00250166  0.91616587  1
  O  O318  1  0.49583083  0.50985286  0.42103687  1
  O  O319  1  0.47881989  0.50137347  0.91552483  1
  O  O320  1  0.82242239  -0.00265552  0.41621055  1
  O  O321  1  0.80434321  0.00395055  0.91580406  1
  O  O322  1  0.81765158  0.51753620  0.42911133  1
  O  O323  1  0.80333708  0.49343333  0.91686941  1
  O  O324  1  0.31192851  0.24798207  0.41326149  1
  O  O325  1  0.32218279  0.24872999  0.91587105  1
  O  O326  1  0.32619424  0.75257281  0.41292761  1
  O  O327  1  0.31274504  0.74931278  0.91633036  1
  O  O328  1  0.66202367  0.24177466  0.41485927  1
  O  O329  1  0.63485518  0.24865269  0.91398486  1
  O  O330  1  0.64735010  0.75793571  0.41737596  1
  O  O331  1  0.64919562  0.74902822  0.91296422  1
  O  O332  1  1.00137502  0.23572579  0.42535893  1
  O  O333  1  0.98201876  0.24836200  0.91540813  1
  O  O334  1  0.99373740  0.75262238  0.41442743  1
  O  O335  1  0.98454731  0.76362680  0.92919785  1
  O  O336  1  0.21700206  0.07515929  0.18939148  1
  O  O337  1  0.20792716  0.08299490  0.69503847  1
  O  O338  1  0.21437563  0.59049766  0.19299198  1
  O  O339  1  0.20501291  0.58674886  0.69565110  1
  O  O340  1  0.54604125  0.08979393  0.19359072  1
  O  O341  1  0.54302786  0.08078699  0.69603015  1
  O  O342  1  0.53166512  0.58075125  0.19084822  1
  O  O343  1  0.54222117  0.58432526  0.69463779  1
  O  O344  1  0.88024071  0.08168824  0.19987433  1
  O  O345  1  0.87334972  0.07980441  0.69425687  1
  O  O346  1  0.87771547  0.58298808  0.19375900  1
  O  O347  1  0.87109076  0.58606326  0.69740683  1
  O  O348  1  0.04645894  0.33210339  0.18843916  1
  O  O349  1  0.04506519  0.33348550  0.70176450  1
  O  O350  1  0.04854260  0.83336221  0.19412878  1
  O  O351  1  0.04209698  0.83642730  0.69639498  1
  O  O352  1  0.37372654  0.33067246  0.19283728  1
  O  O353  1  0.37735708  0.33210198  0.70114029  1
  O  O354  1  0.38089729  0.83581427  0.19344574  1
  O  O355  1  0.37756391  0.83359262  0.70023885  1
  O  O356  1  0.69835429  0.33401870  0.19563833  1
  O  O357  1  0.71667457  0.33768234  0.69145612  1
  O  O358  1  0.69517688  0.83327528  0.19512755  1
  O  O359  1  0.71104887  0.83375108  0.70097123  1
  O  O360  1  0.21280697  0.42000029  0.20059318  1
  O  O361  1  0.21097093  0.41905274  0.70176288  1
  O  O362  1  0.21496948  0.91380976  0.19332063  1
  O  O363  1  0.20905912  0.91507147  0.70130331  1
  O  O364  1  0.54172517  0.41359763  0.19548171  1
  O  O365  1  0.54596668  0.41641606  0.70029113  1
  O  O366  1  0.54314926  0.91915167  0.18996134  1
  O  O367  1  0.54501036  0.91635105  0.69542245  1
  O  O368  1  0.87880188  0.42414512  0.19578724  1
  O  O369  1  0.87835959  0.41893333  0.70426598  1
  O  O370  1  0.88472518  0.92211914  0.18783832  1
  O  O371  1  0.87512640  0.91447672  0.69974695  1
  O  O372  1  0.04669839  0.16384430  0.19852899  1
  O  O373  1  0.04254721  0.16464718  0.70107710  1
  O  O374  1  0.04729780  0.66937655  0.19657031  1
  O  O375  1  0.04200377  0.66447387  0.69904045  1
  O  O376  1  0.37689120  0.16578540  0.19395817  1
  O  O377  1  0.37598024  0.16210343  0.69507608  1
  O  O378  1  0.37950124  0.66994690  0.19430445  1
  O  O379  1  0.37337880  0.66673729  0.69383119  1
  O  O380  1  0.70867794  0.16787549  0.19201973  1
  O  O381  1  0.71372622  0.15544447  0.69431262  1
  O  O382  1  0.70991543  0.66653203  0.19801970  1
  O  O383  1  0.70728447  0.66841841  0.69951186  1
  O  O384  1  0.12551091  0.07623848  0.30437877  1
  O  O385  1  0.12479097  0.08156876  0.80603707  1
  O  O386  1  0.12730379  0.58854281  0.30472068  1
  O  O387  1  0.12532901  0.58333461  0.81022586  1
  O  O388  1  0.45496687  0.08625122  0.30458837  1
  O  O389  1  0.45510010  0.08065971  0.80640132  1
  O  O390  1  0.45862027  0.58775281  0.30607607  1
  O  O391  1  0.45455984  0.58362642  0.80419886  1
  O  O392  1  0.79032725  0.08002014  0.30393373  1
  O  O393  1  0.78815032  0.08344629  0.80631789  1
  O  O394  1  0.79818144  0.58587962  0.30894705  1
  O  O395  1  0.78744484  0.58212169  0.80954290  1
  O  O396  1  0.28868435  0.33256343  0.30580961  1
  O  O397  1  0.29038770  0.33196697  0.80714151  1
  O  O398  1  0.29524059  0.83518872  0.30343974  1
  O  O399  1  0.28875613  0.83218356  0.80709883  1
  O  O400  1  0.62165761  0.32938443  0.30819118  1
  O  O401  1  0.61664668  0.33796215  0.80788087  1
  O  O402  1  0.62236568  0.83837134  0.30583410  1
  O  O403  1  0.62069212  0.83394697  0.80622838  1
  O  O404  1  0.97164359  0.32724058  0.30443247  1
  O  O405  1  0.95681995  0.33171798  0.80701871  1
  O  O406  1  0.96858732  0.83351113  0.30382075  1
  O  O407  1  0.95438777  0.84030295  0.81313144  1
  O  O408  1  0.12508527  0.42262113  0.30510426  1
  O  O409  1  0.12323839  0.41615406  0.80766455  1
  O  O410  1  0.12782851  0.91566461  0.30340639  1
  O  O411  1  0.12255217  0.91737271  0.80840801  1
  O  O412  1  0.45174438  0.41739780  0.29767016  1
  O  O413  1  0.45436353  0.41795322  0.80724951  1
  O  O414  1  0.45789684  0.91500840  0.30482316  1
  O  O415  1  0.45642085  0.91614205  0.80645973  1
  O  O416  1  0.78368966  0.42454810  0.30627534  1
  O  O417  1  0.78573618  0.41316590  0.80743495  1
  O  O418  1  0.78888959  0.92201895  0.30339349  1
  O  O419  1  0.78825118  0.91784747  0.80858009  1
  O  O420  1  0.29354727  0.16423617  0.30354951  1
  O  O421  1  0.29070617  0.16508943  0.80533330  1
  O  O422  1  0.29389981  0.66996020  0.30388628  1
  O  O423  1  0.28951096  0.66751521  0.80530789  1
  O  O424  1  0.62331212  0.16264738  0.30439484  1
  O  O425  1  0.61581503  0.15817356  0.80724889  1
  O  O426  1  0.61964909  0.67533656  0.30565693  1
  O  O427  1  0.61968808  0.66630306  0.80507313  1
  O  O428  1  0.96032156  0.16222852  0.30809220  1
  O  O429  1  0.95515987  0.16394823  0.80559657  1
  O  O430  1  0.96229005  0.66793204  0.30557875  1
  O  O431  1  0.95222218  0.66573681  0.80573987  1
  F  F432  1  0.05018831  -0.00313140  0.19922354  1
  F  F433  1  0.04232741  -0.00250295  0.70553645  1
  F  F434  1  0.05183662  0.51296259  0.19636080  1
  F  F435  1  0.04406337  0.50430255  0.70928140  1
  F  F436  1  0.37780249  0.00054775  0.19995473  1
  F  F437  1  0.37938821  -0.00124153  0.70373089  1
  F  F438  1  0.37628685  0.50351920  0.20064396  1
  F  F439  1  0.37826654  0.50233150  0.70351314  1
  F  F440  1  0.71268957  0.00172090  0.19735397  1
  F  F441  1  0.71063549  -0.00223227  0.70558555  1
  F  F442  1  0.71237244  0.49834127  0.20011125  1
  F  F443  1  0.71104266  0.50161962  0.70624359  1
  F  F444  1  0.21365898  0.25449615  0.19768319  1
  F  F445  1  0.21352524  0.24863352  0.70543580  1
  F  F446  1  0.21643825  0.75239401  0.20154125  1
  F  F447  1  0.20966942  0.74924597  0.70329776  1
  F  F448  1  0.54441978  0.24926812  0.20421930  1
  F  F449  1  0.53279328  0.24593969  0.70021518  1
  F  F450  1  0.54197115  0.75135459  0.19997613  1
  F  F451  1  0.54513669  0.74992864  0.70357024  1
  F  F452  1  0.88393005  0.23975965  0.19771192  1
  F  F453  1  0.87898394  0.24699985  0.70325563  1
  F  F454  1  0.88757506  0.73772932  0.19732586  1
  F  F455  1  0.86876925  0.75237395  0.70613196  1
  F  F456  1  0.29027592  -0.00175801  0.29787204  1
  F  F457  1  0.28913977  0.00042926  0.79977281  1
  F  F458  1  0.28923373  0.50718832  0.29862223  1
  F  F459  1  0.28940922  0.50361542  0.80026349  1
  F  F460  1  0.62549124  0.00084822  0.29587711  1
  F  F461  1  0.61962489  -0.00168062  0.80040398  1
  F  F462  1  0.61661328  0.49934230  0.29827972  1
  F  F463  1  0.61938843  0.50282972  0.80076983  1
  F  F464  1  0.95897711  -0.00436812  0.29802867  1
  F  F465  1  0.95337074  0.00105930  0.80004577  1
  F  F466  1  0.95629727  0.50758558  0.30087446  1
  F  F467  1  0.95432150  0.50204819  0.80402057  1
  F  F468  1  0.12595269  0.25292946  0.29751483  1
  F  F469  1  0.12478813  0.24853643  0.80172373  1
  F  F470  1  0.12690763  0.75174203  0.29774472  1
  F  F471  1  0.12776273  0.75171694  0.80319608  1
  F  F472  1  0.45130847  0.24785789  0.29666578  1
  F  F473  1  0.45375349  0.24538937  0.80220814  1
  F  F474  1  0.45688382  0.75337949  0.29682252  1
  F  F475  1  0.45431780  0.74760380  0.79911804  1
  F  F476  1  0.78373187  0.23571158  0.30162931  1
  F  F477  1  0.79884794  0.24834460  0.80198166  1
  F  F478  1  0.78787806  0.74373398  0.30269275  1
  F  F479  1  0.78382873  0.75082432  0.80527901  1
