# generated using pymatgen
data_K24Na3Li5Mg64Fe17Si79(O5F)48
_symmetry_space_group_name_H-M   'P 1'
_cell_length_a   16.08982096
_cell_length_b   18.59099420
_cell_length_c   20.54834643
_cell_angle_alpha   90.00693204
_cell_angle_beta   100.01623006
_cell_angle_gamma   89.97893393
_symmetry_Int_Tables_number   1
_chemical_formula_structural   K24Na3Li5Mg64Fe17Si79(O5F)48
_chemical_formula_sum   'K24 Na3 Li5 Mg64 Fe17 Si79 O240 F48'
_cell_volume   6052.85715504
_cell_formula_units_Z   1
loop_
 _symmetry_equiv_pos_site_id
 _symmetry_equiv_pos_as_xyz
  1  'x, y, z'
loop_
 _atom_site_type_symbol
 _atom_site_label
 _atom_site_symmetry_multiplicity
 _atom_site_fract_x
 _atom_site_fract_y
 _atom_site_fract_z
 _atom_site_occupancy
  K  K0  1  0.00834775  0.00359670  0.00727040  1
  K  K1  1  -0.00158683  -0.00501305  0.49696894  1
  K  K2  1  -0.00188935  0.49798652  -0.00160994  1
  K  K3  1  -0.00103283  0.49280190  0.49811812  1
  K  K4  1  0.33512130  -0.00721869  0.00458452  1
  K  K5  1  0.33979718  -0.00138743  0.49802927  1
  K  K6  1  0.33538395  0.49849233  -0.00941751  1
  K  K7  1  0.34259984  0.49677019  0.50679079  1
  K  K8  1  0.66447556  -0.00008570  0.00436885  1
  K  K9  1  0.66547359  -0.00807183  0.49497149  1
  K  K10  1  0.66178959  0.50256131  0.00063025  1
  K  K11  1  0.66219445  0.50162169  0.49564725  1
  K  K12  1  0.16300834  0.24531507  0.00298811  1
  K  K13  1  0.17005025  0.25017176  0.49899617  1
  K  K14  1  0.17655622  0.75460768  -0.00632778  1
  K  K15  1  0.16562071  0.75128597  0.50462947  1
  K  K16  1  0.49289618  0.25997689  -0.00029605  1
  K  K17  1  0.49194267  0.25059434  0.49940427  1
  K  K18  1  0.50528024  0.76101513  -0.00619087  1
  K  K19  1  0.49103709  0.74794654  0.50081323  1
  K  K20  1  0.84054842  0.24968446  0.01141838  1
  K  K21  1  0.83522293  0.25417525  0.48901643  1
  K  K22  1  0.82027569  0.74325164  0.00046709  1
  K  K23  1  0.83862161  0.75740102  0.50002462  1
  Na  Na24  1  0.33191724  0.75315096  0.75019638  1
  Na  Na25  1  0.67009857  0.41762640  0.25421981  1
  Na  Na26  1  0.33412525  0.41694222  0.74948260  1
  Li  Li27  1  0.16684341  -0.00070124  0.24866628  1
  Li  Li28  1  0.16572857  -0.00307852  0.74670181  1
  Li  Li29  1  0.83223238  0.33269022  0.25402847  1
  Li  Li30  1  0.00230313  0.41784866  0.75050986  1
  Li  Li31  1  0.83654575  0.83247257  0.74999708  1
  Mg  Mg32  1  0.33327981  0.25171687  0.75048654  1
  Mg  Mg33  1  -0.00219098  0.75110778  0.25332052  1
  Mg  Mg34  1  0.00095130  0.25243406  0.74989701  1
  Mg  Mg35  1  0.66631642  0.75173628  0.24862441  1
  Mg  Mg36  1  0.66948483  0.75137604  0.75244565  1
  Mg  Mg37  1  0.16387575  0.50072024  0.25334234  1
  Mg  Mg38  1  0.50022293  -0.00075449  0.74668631  1
  Mg  Mg39  1  0.67016317  0.25296843  0.25164188  1
  Mg  Mg40  1  0.16447428  0.49943622  0.75174794  1
  Mg  Mg41  1  0.33113634  0.24805495  0.24501425  1
  Mg  Mg42  1  0.83346655  0.00047257  0.24887365  1
  Mg  Mg43  1  0.49928994  -0.00100109  0.24490140  1
  Mg  Mg44  1  -0.00119033  0.24700220  0.25138765  1
  Mg  Mg45  1  0.83296606  0.49755772  0.25243790  1
  Mg  Mg46  1  0.33287347  0.75036705  0.25177339  1
  Mg  Mg47  1  0.83626124  -0.00195205  0.74856784  1
  Mg  Mg48  1  0.49919681  0.50001899  0.25373255  1
  Mg  Mg49  1  0.49999091  0.49999925  0.75137777  1
  Mg  Mg50  1  0.66828470  0.25142561  0.74990355  1
  Mg  Mg51  1  0.83564920  0.49938109  0.75330682  1
  Mg  Mg52  1  -0.00210617  0.75151519  0.74912679  1
  Mg  Mg53  1  0.00075253  0.58347677  0.25396110  1
  Mg  Mg54  1  0.33335631  0.58456887  0.25455474  1
  Mg  Mg55  1  0.49778230  0.16659262  0.24562234  1
  Mg  Mg56  1  0.16533916  0.16098685  0.24617881  1
  Mg  Mg57  1  0.49790612  0.16698643  0.74663523  1
  Mg  Mg58  1  0.32968317  0.08305244  0.74807720  1
  Mg  Mg59  1  0.67206510  0.91523786  0.74925503  1
  Mg  Mg60  1  0.33097432  0.08226073  0.24395856  1
  Mg  Mg61  1  0.66509114  0.41667773  0.75085535  1
  Mg  Mg62  1  0.50056801  0.33378644  0.25059620  1
  Mg  Mg63  1  0.32969365  0.91802582  0.74820427  1
  Mg  Mg64  1  -0.00150243  0.58166927  0.75270060  1
  Mg  Mg65  1  0.66615945  0.08553749  0.24655230  1
  Mg  Mg66  1  0.00151314  0.91710500  0.24973270  1
  Mg  Mg67  1  0.66561485  0.58584308  0.75043366  1
  Mg  Mg68  1  0.66698873  0.58314443  0.25292028  1
  Mg  Mg69  1  0.33254188  0.91692195  0.24789101  1
  Mg  Mg70  1  0.16613498  0.33558721  0.75067629  1
  Mg  Mg71  1  0.83277405  0.66517652  0.25242895  1
  Mg  Mg72  1  0.66809249  0.08375158  0.74896647  1
  Mg  Mg73  1  0.16609007  0.16481454  0.75057827  1
  Mg  Mg74  1  0.66493261  0.91559833  0.24749536  1
  Mg  Mg75  1  0.50001477  0.66491109  0.25265666  1
  Mg  Mg76  1  0.83648801  0.16843944  0.25032992  1
  Mg  Mg77  1  0.33240873  0.41591253  0.25007088  1
  Mg  Mg78  1  0.16676158  0.83541955  0.25174652  1
  Mg  Mg79  1  0.83514418  0.16628146  0.74951520  1
  Mg  Mg80  1  0.00275619  0.08246227  0.74890426  1
  Mg  Mg81  1  0.16465089  0.66691309  0.75096629  1
  Mg  Mg82  1  0.83597178  0.33520961  0.75007488  1
  Mg  Mg83  1  0.50094524  0.83487460  0.74997851  1
  Mg  Mg84  1  0.00070659  0.91565480  0.74917222  1
  Mg  Mg85  1  0.16374901  0.33263365  0.24824221  1
  Mg  Mg86  1  0.83266524  0.66832749  0.75260543  1
  Mg  Mg87  1  -0.00352740  0.41293099  0.25386099  1
  Mg  Mg88  1  0.33338249  0.58440465  0.75440691  1
  Mg  Mg89  1  0.16581580  0.66609207  0.25529884  1
  Mg  Mg90  1  0.16517166  0.83608369  0.74906390  1
  Mg  Mg91  1  0.00351603  0.08318099  0.24909661  1
  Mg  Mg92  1  0.49886585  0.33615657  0.74828915  1
  Mg  Mg93  1  0.49950975  0.83608458  0.24639177  1
  Mg  Mg94  1  0.49943627  0.66746615  0.75254597  1
  Mg  Mg95  1  0.83223874  0.83460931  0.24859356  1
  Fe  Fe96  1  0.53021151  0.41875611  0.60710127  1
  Fe  Fe97  1  0.02803106  0.16506742  0.10748803  1
  Fe  Fe98  1  0.13979840  0.58188787  0.39304231  1
  Fe  Fe99  1  0.47514101  0.58257770  0.39276001  1
  Fe  Fe100  1  0.98064385  0.16026282  0.39164182  1
  Fe  Fe101  1  0.52198420  0.92190268  0.10433536  1
  Fe  Fe102  1  0.02621904  0.83092738  0.60998760  1
  Fe  Fe103  1  0.69372698  0.83200977  0.10701280  1
  Fe  Fe104  1  0.48060900  0.41263693  0.89363103  1
  Fe  Fe105  1  0.35528638  0.17050826  0.10622375  1
  Fe  Fe106  1  0.35921032  0.83789203  0.60924190  1
  Fe  Fe107  1  0.47456568  0.91647202  0.38758909  1
  Fe  Fe108  1  0.81266612  0.41641009  0.39347741  1
  Fe  Fe109  1  0.30347705  0.66828933  0.89220922  1
  Fe  Fe110  1  0.35735982  0.32784192  0.60615162  1
  Fe  Fe111  1  0.64052572  0.67183532  0.89021879  1
  Fe  Fe112  1  0.97645692  0.83615710  0.38931672  1
  Si  Si113  1  0.13870317  0.41530937  0.88652723  1
  Si  Si114  1  0.63730143  0.32914578  0.38812378  1
  Si  Si115  1  0.85598390  0.57819546  0.61687164  1
  Si  Si116  1  0.98474563  0.33051210  0.39112180  1
  Si  Si117  1  0.02031136  0.66076852  0.61479652  1
  Si  Si118  1  0.80226329  0.08396543  0.38571550  1
  Si  Si119  1  0.80256579  0.91833700  0.38562490  1
  Si  Si120  1  0.85905169  0.58196270  0.11673460  1
  Si  Si121  1  0.64982391  0.32764832  0.88950416  1
  Si  Si122  1  0.14726793  0.41353049  0.38706845  1
  Si  Si123  1  0.47309775  0.40989484  0.38720798  1
  Si  Si124  1  0.97438620  0.33204734  0.88529467  1
  Si  Si125  1  0.35520508  0.66381467  0.61581306  1
  Si  Si126  1  0.47626097  0.08515513  0.38335220  1
  Si  Si127  1  0.13452118  0.58198603  0.89034323  1
  Si  Si128  1  0.02145798  0.66949098  0.11600108  1
  Si  Si129  1  0.18834747  0.58768981  0.11672550  1
  Si  Si130  1  0.35078570  0.34014713  0.11117609  1
  Si  Si131  1  0.85721124  0.08071999  0.11075718  1
  Si  Si132  1  0.18640620  0.08256730  0.61561899  1
  Si  Si133  1  0.30795382  0.16385585  0.38142716  1
  Si  Si134  1  0.19244603  0.92018441  0.61090339  1
  Si  Si135  1  0.30580403  0.16399262  0.88561768  1
  Si  Si136  1  0.69210776  0.33270225  0.11580699  1
  Si  Si137  1  0.18797863  0.42407043  0.11534850  1
  Si  Si138  1  0.02383967  0.16917846  0.61431856  1
  Si  Si139  1  0.68904278  0.66110579  0.11418657  1
  Si  Si140  1  0.97555330  0.16832384  0.88511708  1
  Si  Si141  1  0.69199551  0.16863169  0.61428328  1
  Si  Si142  1  0.35643845  0.82732614  0.11015758  1
  Si  Si143  1  0.85757171  0.41796035  0.11596403  1
  Si  Si144  1  0.13727585  0.91794789  0.88653065  1
  Si  Si145  1  0.30532535  0.83433427  0.38583661  1
  Si  Si146  1  0.81254074  0.91971956  0.88463119  1
  Si  Si147  1  0.52617154  0.09326628  0.10798117  1
  Si  Si148  1  0.19551000  0.07558797  0.10662969  1
  Si  Si149  1  0.64517065  0.84308484  0.88687185  1
  Si  Si150  1  0.35719572  0.66250197  0.11552023  1
  Si  Si151  1  0.64698048  0.16376994  0.88433189  1
  Si  Si152  1  0.18823172  0.58108652  0.61613059  1
  Si  Si153  1  0.80827924  0.58726970  0.38904660  1
  Si  Si154  1  0.52192851  0.41438269  0.11607577  1
  Si  Si155  1  0.47546559  0.58402622  0.89364108  1
  Si  Si156  1  0.97010838  0.66589793  0.88688094  1
  Si  Si157  1  0.85779387  0.08616574  0.61399086  1
  Si  Si158  1  0.69583434  0.66943007  0.61526947  1
  Si  Si159  1  0.97443623  0.83181757  0.88618323  1
  Si  Si160  1  0.19253999  0.90885838  0.11389080  1
  Si  Si161  1  0.86225440  0.41448870  0.61859604  1
  Si  Si162  1  0.97187201  0.66540912  0.38942046  1
  Si  Si163  1  0.70148839  0.83438878  0.61687294  1
  Si  Si164  1  0.52789420  0.08185897  0.61333921  1
  Si  Si165  1  0.86208316  0.92224815  0.61298935  1
  Si  Si166  1  0.81108081  0.41514167  0.88671293  1
  Si  Si167  1  0.02344839  0.33682309  0.11194006  1
  Si  Si168  1  0.47635422  0.08838773  0.88365081  1
  Si  Si169  1  0.02636838  0.83346566  0.11449859  1
  Si  Si170  1  0.13835330  0.08264358  0.88474699  1
  Si  Si171  1  0.02590705  0.33350802  0.61586331  1
  Si  Si172  1  0.30685751  0.84343734  0.88821639  1
  Si  Si173  1  0.35431752  0.15761537  0.61047927  1
  Si  Si174  1  0.69995583  0.33353248  0.61345431  1
  Si  Si175  1  0.30645572  0.32809906  0.38161037  1
  Si  Si176  1  0.63811847  0.16737178  0.38252609  1
  Si  Si177  1  0.52378372  0.57907932  0.11593001  1
  Si  Si178  1  0.86248856  0.91579831  0.11119809  1
  Si  Si179  1  0.30458902  0.67037522  0.39040056  1
  Si  Si180  1  0.53484516  0.91548969  0.61186276  1
  Si  Si181  1  0.80678062  0.58115907  0.88875391  1
  Si  Si182  1  0.64112124  0.83120012  0.38588552  1
  Si  Si183  1  0.81232183  0.08226047  0.88458778  1
  Si  Si184  1  0.14904965  0.07754623  0.38555082  1
  Si  Si185  1  0.30129600  0.32858843  0.88978776  1
  Si  Si186  1  0.47562758  0.92375883  0.88429416  1
  Si  Si187  1  0.52534173  0.59005796  0.61283613  1
  Si  Si188  1  0.14412557  0.91700209  0.38450390  1
  Si  Si189  1  0.69597903  0.16859532  0.11296316  1
  Si  Si190  1  0.18598984  0.41713988  0.61271865  1
  Si  Si191  1  0.64386824  0.66993947  0.38688684  1
  O  O192  1  0.27622988  0.09933733  0.07295965  1
  O  O193  1  0.27112166  0.10548219  0.58514831  1
  O  O194  1  0.27002243  0.61728712  0.08666209  1
  O  O195  1  0.27217606  0.61049880  0.58855623  1
  O  O196  1  0.61465355  0.11901940  0.08248882  1
  O  O197  1  0.60450190  0.12479058  0.58513650  1
  O  O198  1  0.60539059  0.61016917  0.08714840  1
  O  O199  1  0.60353438  0.63469774  0.58634422  1
  O  O200  1  0.93063705  0.11112258  0.07350485  1
  O  O201  1  0.93845828  0.12139115  0.58559192  1
  O  O202  1  0.93726791  0.62083813  0.08619465  1
  O  O203  1  0.93953889  0.60546401  0.58827375  1
  O  O204  1  0.10237238  0.37898199  0.08443150  1
  O  O205  1  0.10235775  0.36656915  0.58222060  1
  O  O206  1  0.10861237  0.85981556  0.08350650  1
  O  O207  1  0.12002392  0.86413238  0.57690298  1
  O  O208  1  0.43465866  0.37153697  0.08313712  1
  O  O209  1  0.44372340  0.36112584  0.56522357  1
  O  O210  1  0.42789145  0.86114683  0.07369652  1
  O  O211  1  0.45541853  0.87052592  0.57504692  1
  O  O212  1  0.76860035  0.37523383  0.08557542  1
  O  O213  1  0.78946109  0.35541814  0.58929484  1
  O  O214  1  0.79339573  0.85946248  0.07555640  1
  O  O215  1  0.77775394  0.87277631  0.58597662  1
  O  O216  1  0.27158210  0.39745691  0.08608178  1
  O  O217  1  0.26210024  0.38761891  0.57848972  1
  O  O218  1  0.26749155  0.87040156  0.08092979  1
  O  O219  1  0.27618146  0.90735800  0.57784961  1
  O  O220  1  0.60206031  0.37615589  0.08810342  1
  O  O221  1  0.62940113  0.38705341  0.57690467  1
  O  O222  1  0.60928874  0.89062269  0.06380596  1
  O  O223  1  0.61833607  0.88224372  0.58550821  1
  O  O224  1  0.93535316  0.38233526  0.08351612  1
  O  O225  1  0.94498271  0.38630824  0.58913524  1
  O  O226  1  0.95175607  0.89119983  0.08613405  1
  O  O227  1  0.93684887  0.89454841  0.57665477  1
  O  O228  1  0.11354874  0.12085977  0.06979532  1
  O  O229  1  0.10612471  0.13716470  0.58631947  1
  O  O230  1  0.10388211  0.63648878  0.08741337  1
  O  O231  1  0.10419652  0.62991098  0.58695976  1
  O  O232  1  0.45883218  0.15540947  0.07877946  1
  O  O233  1  0.43665030  0.11883682  0.58404593  1
  O  O234  1  0.43619302  0.62399650  0.08727565  1
  O  O235  1  0.43771663  0.63457112  0.58452647  1
  O  O236  1  0.77369784  0.13155255  0.08243962  1
  O  O237  1  0.77229852  0.13354597  0.58551660  1
  O  O238  1  0.77077897  0.62337242  0.08723491  1
  O  O239  1  0.77137126  0.62582889  0.58598845  1
  O  O240  1  0.07178712  0.09737432  0.42373720  1
  O  O241  1  0.06344360  0.12610933  0.91552058  1
  O  O242  1  0.03614787  0.60136712  0.41984345  1
  O  O243  1  0.04992443  0.61419125  0.91772381  1
  O  O244  1  0.39230336  0.11652761  0.41086370  1
  O  O245  1  0.39838247  0.12632434  0.91343590  1
  O  O246  1  0.37868904  0.61559752  0.42362393  1
  O  O247  1  0.39052737  0.60405716  0.92353499  1
  O  O248  1  0.71508561  0.11190747  0.41168226  1
  O  O249  1  0.72836338  0.11114797  0.91281307  1
  O  O250  1  0.72229108  0.61527593  0.41503415  1
  O  O251  1  0.73220815  0.60965117  0.92512240  1
  O  O252  1  0.22287482  0.35324129  0.41075133  1
  O  O253  1  0.22200781  0.36789165  0.91924328  1
  O  O254  1  0.21645064  0.85520257  0.41092153  1
  O  O255  1  0.22965494  0.88431422  0.92007234  1
  O  O256  1  0.54766603  0.35039048  0.41359775  1
  O  O257  1  0.57554211  0.35250537  0.92735139  1
  O  O258  1  0.56226152  0.85163972  0.42161140  1
  O  O259  1  0.56333223  0.88052373  0.91327385  1
  O  O260  1  0.90730520  0.35835939  0.42657568  1
  O  O261  1  0.89696165  0.36905911  0.91638258  1
  O  O262  1  0.87978794  0.86895633  0.42105890  1
  O  O263  1  0.89496350  0.86965981  0.91552017  1
  O  O264  1  0.06483096  0.38698613  0.41730135  1
  O  O265  1  0.05940645  0.37746572  0.91590677  1
  O  O266  1  0.06371103  0.90164550  0.42017557  1
  O  O267  1  0.06280093  0.87457274  0.91839395  1
  O  O268  1  0.38661270  0.37930662  0.41156277  1
  O  O269  1  0.38606328  0.36965699  0.92403542  1
  O  O270  1  0.37633098  0.89062959  0.41947084  1
  O  O271  1  0.39534199  0.89070663  0.91395631  1
  O  O272  1  0.71232276  0.38166813  0.42224608  1
  O  O273  1  0.73513676  0.37677271  0.91782355  1
  O  O274  1  0.71689988  0.88963659  0.41193769  1
  O  O275  1  0.72810978  0.89548563  0.91380332  1
  O  O276  1  0.22977442  0.13234000  0.41415488  1
  O  O277  1  0.23140479  0.11824558  0.91383655  1
  O  O278  1  0.21875330  0.65492820  0.41963656  1
  O  O279  1  0.21204820  0.62852494  0.92892567  1
  O  O280  1  0.55255685  0.14335498  0.41040999  1
  O  O281  1  0.56407154  0.13330236  0.91288054  1
  O  O282  1  0.56485162  0.64736115  0.42164573  1
  O  O283  1  0.54665707  0.64356615  0.92482513  1
  O  O284  1  0.88013993  0.13210942  0.42252624  1
  O  O285  1  0.89464269  0.13288531  0.91334860  1
  O  O286  1  0.87983823  0.64984359  0.41297958  1
  O  O287  1  0.89110296  0.63081382  0.91717215  1
  O  O288  1  0.17597174  -0.01027822  0.08323760  1
  O  O289  1  0.15674351  0.00300547  0.58784384  1
  O  O290  1  0.16744951  0.50636307  0.08696874  1
  O  O291  1  0.16486263  0.50036184  0.58540690  1
  O  O292  1  0.49694786  0.01690153  0.07338120  1
  O  O293  1  0.52809726  0.00020734  0.58441601  1
  O  O294  1  0.51075927  0.49687539  0.08597358  1
  O  O295  1  0.51752247  0.51387693  0.57505787  1
  O  O296  1  0.83706702  -0.00234242  0.08252266  1
  O  O297  1  0.83788686  0.00546971  0.58434109  1
  O  O298  1  0.84891731  0.50055134  0.08474068  1
  O  O299  1  0.83654358  0.49543155  0.58889946  1
  O  O300  1  0.01293214  0.26054369  0.07388549  1
  O  O301  1  0.00512526  0.25125235  0.58543604  1
  O  O302  1  0.00300375  0.75118431  0.08530361  1
  O  O303  1  -0.00535644  0.73711588  0.57969307  1
  O  O304  1  0.32159207  0.26472845  0.07574106  1
  O  O305  1  0.33527456  0.23228026  0.57141256  1
  O  O306  1  0.34069316  0.74297718  0.08391268  1
  O  O307  1  0.33046125  0.74193867  0.58275134  1
  O  O308  1  0.68401616  0.25106094  0.08144213  1
  O  O309  1  0.67929182  0.25026265  0.58576465  1
  O  O310  1  0.67166983  0.73651799  0.07631599  1
  O  O311  1  0.69440137  0.75208214  0.58624711  1
  O  O312  1  0.18466062  -0.00366988  0.40909915  1
  O  O313  1  0.13703199  0.00121457  0.91548947  1
  O  O314  1  0.18073079  0.48931772  0.42015598  1
  O  O315  1  0.14490787  0.49718737  0.91785318  1
  O  O316  1  0.50388444  0.01012506  0.42056693  1
  O  O317  1  0.48929397  0.00666576  0.91374780  1
  O  O318  1  0.49849530  0.48656287  0.42161205  1
  O  O319  1  0.50741862  0.50559551  0.92570700  1
  O  O320  1  0.81547025  0.00112329  0.41458115  1
  O  O321  1  0.83522147  0.00179722  0.91461884  1
  O  O322  1  0.83552403  0.51221635  0.42611779  1
  O  O323  1  0.82889136  0.49713182  0.91541398  1
  O  O324  1  0.32845689  0.24622123  0.40949853  1
  O  O325  1  0.30584179  0.24410011  0.91869823  1
  O  O326  1  0.33471805  0.75342776  0.41306960  1
  O  O327  1  0.32053505  0.76542349  0.92308632  1
  O  O328  1  0.66247919  0.24630323  0.41618069  1
  O  O329  1  0.67512586  0.24340731  0.91407027  1
  O  O330  1  0.67719771  0.75118664  0.41200352  1
  O  O331  1  0.66599178  0.76649041  0.92227485  1
  O  O332  1  1.01475939  0.25227162  0.42336962  1
  O  O333  1  0.98621386  0.24987115  0.91604971  1
  O  O334  1  1.00582283  0.74272971  0.41992619  1
  O  O335  1  0.98465762  0.74874160  0.91635369  1
  O  O336  1  0.21161390  0.08457282  0.18678574  1
  O  O337  1  0.20842229  0.08780826  0.69526493  1
  O  O338  1  0.20886320  0.58572833  0.19676185  1
  O  O339  1  0.20461144  0.58157336  0.69623046  1
  O  O340  1  0.54404160  0.08719369  0.18969412  1
  O  O341  1  0.54587883  0.08417733  0.69402614  1
  O  O342  1  0.54214698  0.58211238  0.19597385  1
  O  O343  1  0.54511324  0.58499081  0.69366718  1
  O  O344  1  0.87458227  0.08168479  0.19137279  1
  O  O345  1  0.87661406  0.08615116  0.69466493  1
  O  O346  1  0.87887049  0.58337747  0.19684932  1
  O  O347  1  0.87335104  0.58184704  0.69732220  1
  O  O348  1  0.04223746  0.33476865  0.19261904  1
  O  O349  1  0.04479995  0.32929506  0.69545936  1
  O  O350  1  0.04476610  0.83168907  0.19438173  1
  O  O351  1  0.04232777  0.83368214  0.70127193  1
  O  O352  1  0.37186452  0.33590728  0.19202832  1
  O  O353  1  0.38301533  0.32161486  0.69676363  1
  O  O354  1  0.37420847  0.82944035  0.19089879  1
  O  O355  1  0.38522413  0.84513241  0.69922303  1
  O  O356  1  0.71112037  0.32654968  0.19388373  1
  O  O357  1  0.71334999  0.33228641  0.69487306  1
  O  O358  1  0.71132531  0.83351142  0.19959077  1
  O  O359  1  0.71270987  0.83357767  0.69651247  1
  O  O360  1  0.20692860  0.41934456  0.19560443  1
  O  O361  1  0.19744142  0.41593983  0.69260367  1
  O  O362  1  0.21236956  0.90864370  0.19328578  1
  O  O363  1  0.21049343  0.91588230  0.69173897  1
  O  O364  1  0.53254548  0.41668449  0.19526964  1
  O  O365  1  0.54911437  0.41571578  0.69950043  1
  O  O366  1  0.54598151  0.91679962  0.19632203  1
  O  O367  1  0.54969213  0.91861395  0.69296064  1
  O  O368  1  0.87938605  0.41975389  0.19493551  1
  O  O369  1  0.87568378  0.41669078  0.69830060  1
  O  O370  1  0.87605661  0.91717088  0.19190866  1
  O  O371  1  0.88035170  0.92299579  0.69310059  1
  O  O372  1  0.04603807  0.16589247  0.19831544  1
  O  O373  1  0.04087497  0.16752009  0.69484030  1
  O  O374  1  0.04025783  0.66842551  0.19597371  1
  O  O375  1  0.03831570  0.66322682  0.69588751  1
  O  O376  1  0.37686294  0.16697563  0.19789370  1
  O  O377  1  0.37536108  0.16234117  0.69160804  1
  O  O378  1  0.37392945  0.66541799  0.19573037  1
  O  O379  1  0.38079978  0.66085567  0.69548239  1
  O  O380  1  0.71179976  0.16753236  0.19329399  1
  O  O381  1  0.71124623  0.16644803  0.69501683  1
  O  O382  1  0.70847950  0.66552336  0.19503872  1
  O  O383  1  0.71417852  0.66737456  0.69543900  1
  O  O384  1  0.12560691  0.08384265  0.30566354  1
  O  O385  1  0.11917711  0.08744924  0.80551175  1
  O  O386  1  0.12098044  0.58311058  0.30050843  1
  O  O387  1  0.11833788  0.58315170  0.80979206  1
  O  O388  1  0.45837663  0.08254740  0.30255596  1
  O  O389  1  0.45895100  0.08626581  0.80330317  1
  O  O390  1  0.45339811  0.58372850  0.30084452  1
  O  O391  1  0.46000482  0.58416006  0.81152270  1
  O  O392  1  0.78831962  0.08381538  0.30461667  1
  O  O393  1  0.79257448  0.08410314  0.80404465  1
  O  O394  1  0.79060804  0.58396722  0.30762814  1
  O  O395  1  0.78998009  0.58268399  0.80801236  1
  O  O396  1  0.28845570  0.33131077  0.30092483  1
  O  O397  1  0.28271100  0.32476308  0.81001080  1
  O  O398  1  0.29021808  0.83355964  0.30446539  1
  O  O399  1  0.28291698  0.84542332  0.80879733  1
  O  O400  1  0.61783517  0.32590712  0.30823402  1
  O  O401  1  0.63117084  0.32980600  0.80860385  1
  O  O402  1  0.62104395  0.83244716  0.30504574  1
  O  O403  1  0.62728775  0.83942734  0.80601650  1
  O  O404  1  0.96749770  0.33027763  0.31018336  1
  O  O405  1  0.95459442  0.32923705  0.80593308  1
  O  O406  1  0.95313779  0.83483094  0.29739231  1
  O  O407  1  0.95782197  0.83368408  0.80690814  1
  O  O408  1  0.12517531  0.41488556  0.30561181  1
  O  O409  1  0.12469080  0.41522497  0.80717585  1
  O  O410  1  0.12124912  0.91347732  0.30421570  1
  O  O411  1  0.11907681  0.91627140  0.80734076  1
  O  O412  1  0.45427860  0.41411603  0.30594292  1
  O  O413  1  0.46861364  0.41551503  0.80439439  1
  O  O414  1  0.45366922  0.91673830  0.29612102  1
  O  O415  1  0.45994783  0.92280035  0.80437845  1
  O  O416  1  0.80250314  0.41734437  0.30575837  1
  O  O417  1  0.79117762  0.41445077  0.80639679  1
  O  O418  1  0.78895542  0.91880326  0.30468055  1
  O  O419  1  0.79252403  0.92180000  0.80495774  1
  O  O420  1  0.28775599  0.16482248  0.30119936  1
  O  O421  1  0.28968761  0.16522412  0.80523092  1
  O  O422  1  0.28923721  0.66721304  0.30819602  1
  O  O423  1  0.28086308  0.66214081  0.80264606  1
  O  O424  1  0.62168206  0.16678383  0.30195801  1
  O  O425  1  0.62697984  0.16473006  0.80383164  1
  O  O426  1  0.62360562  0.66837889  0.30553287  1
  O  O427  1  0.62408989  0.66797270  0.79883675  1
  O  O428  1  0.95573423  0.16255252  0.30032460  1
  O  O429  1  0.95696581  0.16717947  0.80479354  1
  O  O430  1  0.95591201  0.66607564  0.30720058  1
  O  O431  1  0.95431094  0.66641220  0.80672363  1
  F  F432  1  0.04085165  -0.00099439  0.19979604  1
  F  F433  1  0.04009308  0.00150096  0.70142138  1
  F  F434  1  0.04330511  0.49783209  0.20215714  1
  F  F435  1  0.04337781  0.50244505  0.70497995  1
  F  F436  1  0.37793935  0.00008253  0.19540274  1
  F  F437  1  0.38123994  0.00461168  0.70027850  1
  F  F438  1  0.37476457  0.49967879  0.20238749  1
  F  F439  1  0.38350549  0.51013527  0.70197318  1
  F  F440  1  0.71257305  0.00147694  0.20051786  1
  F  F441  1  0.71427806  0.00236332  0.70073970  1
  F  F442  1  0.71648138  0.51057664  0.19931028  1
  F  F443  1  0.71480124  0.50015965  0.70472372  1
  F  F444  1  0.20953052  0.25091911  0.19826796  1
  F  F445  1  0.21015044  0.24878060  0.70340261  1
  F  F446  1  0.21082095  0.74773376  0.20393128  1
  F  F447  1  0.19443397  0.75090555  0.69926697  1
  F  F448  1  0.54547674  0.25178600  0.20110791  1
  F  F449  1  0.54977600  0.24772365  0.70264506  1
  F  F450  1  0.54357430  0.74756512  0.20155832  1
  F  F451  1  0.54908876  0.75432478  0.70097495  1
  F  F452  1  0.88066073  0.24834456  0.20000767  1
  F  F453  1  0.87879181  0.24920119  0.70160159  1
  F  F454  1  0.87728898  0.74594991  0.20090765  1
  F  F455  1  0.87851486  0.74580392  0.70221228  1
  F  F456  1  0.29177226  0.00083512  0.29291112  1
  F  F457  1  0.29370521  0.00281039  0.79806510  1
  F  F458  1  0.28679236  0.49878053  0.29795769  1
  F  F459  1  0.28045683  0.50576827  0.80237176  1
  F  F460  1  0.62131171  0.00327886  0.29464556  1
  F  F461  1  0.62336593  0.00172823  0.79616715  1
  F  F462  1  0.61587117  0.50929587  0.30312411  1
  F  F463  1  0.62626655  0.50189224  0.79952698  1
  F  F464  1  0.95279078  -0.00004716  0.29635150  1
  F  F465  1  0.95441041  0.00311907  0.79973511  1
  F  F466  1  0.95618508  0.49995393  0.29871255  1
  F  F467  1  0.95117470  0.50387004  0.80437365  1
  F  F468  1  0.12491427  0.24976963  0.29587315  1
  F  F469  1  0.11964586  0.24814702  0.79944518  1
  F  F470  1  0.12000542  0.75077811  0.29784666  1
  F  F471  1  0.11752237  0.74820002  0.80184138  1
  F  F472  1  0.45176278  0.25105960  0.29548306  1
  F  F473  1  0.45716633  0.24440755  0.79977241  1
  F  F474  1  0.45391652  0.75074485  0.29575465  1
  F  F475  1  0.47063677  0.75308198  0.80330039  1
  F  F476  1  0.78634867  0.24354750  0.30147638  1
  F  F477  1  0.79042030  0.24870709  0.79783885  1
  F  F478  1  0.78816296  0.74903525  0.29738567  1
  F  F479  1  0.78778972  0.74684015  0.80261475  1
