# generated using pymatgen
data_K24Na3Li5Mg64Fe17Si79(O5F)48
_symmetry_space_group_name_H-M   'P 1'
_cell_length_a   16.10341547
_cell_length_b   18.59161400
_cell_length_c   20.56406085
_cell_angle_alpha   89.98521814
_cell_angle_beta   100.00586892
_cell_angle_gamma   90.01350777
_symmetry_Int_Tables_number   1
_chemical_formula_structural   K24Na3Li5Mg64Fe17Si79(O5F)48
_chemical_formula_sum   'K24 Na3 Li5 Mg64 Fe17 Si79 O240 F48'
_cell_volume   6062.99991218
_cell_formula_units_Z   1
loop_
 _symmetry_equiv_pos_site_id
 _symmetry_equiv_pos_as_xyz
  1  'x, y, z'
loop_
 _atom_site_type_symbol
 _atom_site_label
 _atom_site_symmetry_multiplicity
 _atom_site_fract_x
 _atom_site_fract_y
 _atom_site_fract_z
 _atom_site_occupancy
  K  K0  1  0.00277165  0.00433245  0.00156480  1
  K  K1  1  -0.00689192  0.00148995  0.49341031  1
  K  K2  1  0.00302387  0.48358099  0.00775428  1
  K  K3  1  0.00263534  0.49575695  0.49380610  1
  K  K4  1  0.34286091  -0.00096363  0.02756673  1
  K  K5  1  0.34255469  0.00957987  0.49064454  1
  K  K6  1  0.33331264  0.49838444  0.01417627  1
  K  K7  1  0.32666046  0.49883648  0.48764622  1
  K  K8  1  0.66306702  0.01274930  0.00662455  1
  K  K9  1  0.65882895  -0.00428791  0.49349128  1
  K  K10  1  0.67199669  0.49357674  0.01266189  1
  K  K11  1  0.66822419  0.49032489  0.48686650  1
  K  K12  1  0.17649511  0.25606886  0.01539640  1
  K  K13  1  0.16426413  0.24779573  0.49367472  1
  K  K14  1  0.17881861  0.75002540  0.01939819  1
  K  K15  1  0.16818741  0.74684236  0.49513144  1
  K  K16  1  0.50410589  0.24881688  0.02506906  1
  K  K17  1  0.49323963  0.25229518  0.48543627  1
  K  K18  1  0.49302443  0.74865629  0.01711620  1
  K  K19  1  0.50509329  0.75974516  0.48999167  1
  K  K20  1  0.83837240  0.25795098  0.00430780  1
  K  K21  1  0.83530610  0.24783252  0.49505250  1
  K  K22  1  0.83351797  0.74677012  0.00281273  1
  K  K23  1  0.82025710  0.74676689  0.49442372  1
  Na  Na24  1  0.33949780  0.24798287  0.24487045  1
  Na  Na25  1  0.33564822  0.08228831  0.24298672  1
  Na  Na26  1  0.66829336  0.42211107  0.75638942  1
  Li  Li27  1  0.50633388  0.49274195  0.25679115  1
  Li  Li28  1  0.33977482  0.74988601  0.25623630  1
  Li  Li29  1  0.65973212  0.41628529  0.25584814  1
  Li  Li30  1  0.83206626  0.66774541  0.75120651  1
  Li  Li31  1  0.50038212  0.16443927  0.24905050  1
  Mg  Mg32  1  0.83526116  -0.00039287  0.74790543  1
  Mg  Mg33  1  0.83346119  0.50447512  0.75456282  1
  Mg  Mg34  1  0.00034270  0.25059883  0.75107268  1
  Mg  Mg35  1  0.33286087  0.25169024  0.74931900  1
  Mg  Mg36  1  0.50017636  0.50104741  0.75264600  1
  Mg  Mg37  1  -0.00135795  0.24784201  0.25212212  1
  Mg  Mg38  1  0.66915079  0.25402624  0.75113776  1
  Mg  Mg39  1  0.16775485  0.00147451  0.74899155  1
  Mg  Mg40  1  0.49517883  0.00210624  0.24397020  1
  Mg  Mg41  1  0.66381621  0.74578656  0.25052666  1
  Mg  Mg42  1  0.50370083  0.00090772  0.74722664  1
  Mg  Mg43  1  0.16767844  0.50080211  0.25113468  1
  Mg  Mg44  1  0.66381700  0.25259893  0.24772719  1
  Mg  Mg45  1  0.33415912  0.75101252  0.74914100  1
  Mg  Mg46  1  0.66927361  0.74976182  0.75035472  1
  Mg  Mg47  1  0.16766812  -0.00196074  0.24761931  1
  Mg  Mg48  1  -0.00277763  0.75105089  0.75040300  1
  Mg  Mg49  1  0.16578924  0.49989398  0.75051508  1
  Mg  Mg50  1  0.82973693  0.49918423  0.25267784  1
  Mg  Mg51  1  -0.00042813  0.74874045  0.25114430  1
  Mg  Mg52  1  0.83064765  -0.00049857  0.25038918  1
  Mg  Mg53  1  0.83281884  0.16581320  0.25101946  1
  Mg  Mg54  1  0.83142573  0.83189820  0.24877542  1
  Mg  Mg55  1  0.00226519  0.58413419  0.25325594  1
  Mg  Mg56  1  -0.00020841  0.91520562  0.24989090  1
  Mg  Mg57  1  0.66867929  0.08628257  0.74764670  1
  Mg  Mg58  1  0.33570296  0.91692273  0.74857439  1
  Mg  Mg59  1  0.50223976  0.33306619  0.24546661  1
  Mg  Mg60  1  0.17015836  0.83081643  0.24630171  1
  Mg  Mg61  1  0.33536106  0.41608331  0.24720684  1
  Mg  Mg62  1  0.66647062  0.91569931  0.74690984  1
  Mg  Mg63  1  0.50152788  0.83573227  0.74785524  1
  Mg  Mg64  1  0.49747224  0.66157243  0.24975087  1
  Mg  Mg65  1  0.83598214  0.33683740  0.75586962  1
  Mg  Mg66  1  -0.00103881  0.41612529  0.75301708  1
  Mg  Mg67  1  0.16460177  0.66745650  0.75000266  1
  Mg  Mg68  1  -0.00276789  0.58698619  0.75254607  1
  Mg  Mg69  1  0.00136800  0.41552378  0.25296947  1
  Mg  Mg70  1  0.50240469  0.16786632  0.75026751  1
  Mg  Mg71  1  0.16948671  0.33267796  0.25048584  1
  Mg  Mg72  1  0.16787891  0.16522545  0.24727877  1
  Mg  Mg73  1  0.33573284  0.91178116  0.24676056  1
  Mg  Mg74  1  0.33072558  0.58460487  0.75001931  1
  Mg  Mg75  1  0.50039849  0.33545007  0.75115675  1
  Mg  Mg76  1  0.66825669  0.58521376  0.75350759  1
  Mg  Mg77  1  0.66577759  0.57692459  0.25076679  1
  Mg  Mg78  1  0.33062013  0.41662752  0.74904258  1
  Mg  Mg79  1  0.50015842  0.66627418  0.75120277  1
  Mg  Mg80  1  -0.00263108  0.91677835  0.74839595  1
  Mg  Mg81  1  0.16611088  0.83570061  0.74859527  1
  Mg  Mg82  1  0.33589874  0.58321448  0.24927647  1
  Mg  Mg83  1  0.66224337  0.91416805  0.24557395  1
  Mg  Mg84  1  0.17083501  0.66685002  0.24854612  1
  Mg  Mg85  1  -0.00267810  0.08527007  0.74857110  1
  Mg  Mg86  1  0.83227068  0.33472296  0.25408588  1
  Mg  Mg87  1  0.16403113  0.33648748  0.74879954  1
  Mg  Mg88  1  0.16447971  0.16702377  0.74873184  1
  Mg  Mg89  1  0.83188758  0.83213970  0.74729732  1
  Mg  Mg90  1  0.66246855  0.08425521  0.24683665  1
  Mg  Mg91  1  0.49586515  0.83179660  0.24741444  1
  Mg  Mg92  1  0.00083676  0.08300776  0.25276626  1
  Mg  Mg93  1  0.83306031  0.66361206  0.25297586  1
  Mg  Mg94  1  0.83502505  0.16632930  0.75028135  1
  Mg  Mg95  1  0.33464167  0.08546705  0.74970730  1
  Fe  Fe96  1  0.31393022  0.66634551  0.38882450  1
  Fe  Fe97  1  0.35389462  0.83050758  0.10741226  1
  Fe  Fe98  1  0.02549481  0.16382849  0.61030066  1
  Fe  Fe99  1  0.18820995  0.41754086  0.11017053  1
  Fe  Fe100  1  0.85467953  0.91260733  0.60885785  1
  Fe  Fe101  1  0.35631465  0.16698424  0.09924223  1
  Fe  Fe102  1  0.80498671  0.58369081  0.39133606  1
  Fe  Fe103  1  0.13996894  0.58574381  0.39070302  1
  Fe  Fe104  1  0.97659272  0.33247769  0.89524973  1
  Fe  Fe105  1  0.52881972  0.91810246  0.60833565  1
  Fe  Fe106  1  0.85109912  0.08122226  0.60809278  1
  Fe  Fe107  1  0.47790707  0.41089709  0.38855415  1
  Fe  Fe108  1  0.47633569  0.92737274  0.38701770  1
  Fe  Fe109  1  0.30850505  0.83501626  0.38822734  1
  Fe  Fe110  1  0.52755102  0.08273093  0.10517869  1
  Fe  Fe111  1  0.18881424  0.41537146  0.60955625  1
  Fe  Fe112  1  0.97579332  0.16161968  0.39070726  1
  Si  Si113  1  0.64814168  0.32784863  0.38629005  1
  Si  Si114  1  0.64299972  0.16748381  0.38045776  1
  Si  Si115  1  0.85693361  0.58727656  0.61916102  1
  Si  Si116  1  0.80644091  0.08021565  0.88653354  1
  Si  Si117  1  0.01769899  0.83387925  0.11270375  1
  Si  Si118  1  0.52436840  0.41750629  0.61847259  1
  Si  Si119  1  0.18638299  0.58643597  0.61490780  1
  Si  Si120  1  0.14038653  0.41468981  0.38734546  1
  Si  Si121  1  0.47661666  0.57971938  0.38629955  1
  Si  Si122  1  0.85404729  0.91638459  0.11331195  1
  Si  Si123  1  0.80694846  0.58647110  0.88957590  1
  Si  Si124  1  0.53292178  0.41765502  0.11544102  1
  Si  Si125  1  0.69216254  0.17753797  0.61377007  1
  Si  Si126  1  0.20052371  0.08381597  0.61341171  1
  Si  Si127  1  0.97054360  0.67260089  0.38942794  1
  Si  Si128  1  0.64338395  0.16797754  0.88679819  1
  Si  Si129  1  0.30714978  0.16698486  0.88449119  1
  Si  Si130  1  0.02240136  0.66979249  0.11395501  1
  Si  Si131  1  0.31023642  0.83473125  0.88480333  1
  Si  Si132  1  0.69877164  0.17133677  0.11079576  1
  Si  Si133  1  0.69438091  0.82449469  0.61205282  1
  Si  Si134  1  0.02012097  0.16348885  0.11489930  1
  Si  Si135  1  0.35974002  0.83030672  0.61366533  1
  Si  Si136  1  0.85770947  0.08079439  0.11445776  1
  Si  Si137  1  0.18024112  0.91680584  0.10757559  1
  Si  Si138  1  0.02236077  0.67142309  0.61645155  1
  Si  Si139  1  0.14300431  0.58779312  0.88734272  1
  Si  Si140  1  0.64038565  0.83102981  0.38322230  1
  Si  Si141  1  0.47562831  0.08523428  0.88427838  1
  Si  Si142  1  0.47434456  0.41604311  0.88760434  1
  Si  Si143  1  0.36266673  0.33377156  0.61355175  1
  Si  Si144  1  0.97659691  0.33211844  0.38805496  1
  Si  Si145  1  0.63494028  0.66534251  0.38555152  1
  Si  Si146  1  0.18584231  0.58557519  0.11040753  1
  Si  Si147  1  0.35601470  0.66518516  0.61644865  1
  Si  Si148  1  0.97592891  0.16064562  0.89080817  1
  Si  Si149  1  0.52961967  0.58182339  0.11387477  1
  Si  Si150  1  0.52850376  0.09098913  0.61333923  1
  Si  Si151  1  0.69323870  0.34002884  0.61965763  1
  Si  Si152  1  0.53024664  0.91046131  0.10567037  1
  Si  Si153  1  0.69735720  0.33580225  0.11699021  1
  Si  Si154  1  0.36337986  0.34193636  0.10519925  1
  Si  Si155  1  0.30955449  0.66887418  0.88602299  1
  Si  Si156  1  0.80591620  0.91428103  0.88563062  1
  Si  Si157  1  0.81282096  0.41393806  0.38902504  1
  Si  Si158  1  0.18052991  0.08242839  0.10856121  1
  Si  Si159  1  0.02961351  0.83705557  0.61313862  1
  Si  Si160  1  0.97564980  0.66762244  0.88838151  1
  Si  Si161  1  0.47526329  0.91915903  0.88525662  1
  Si  Si162  1  0.30919009  0.33340362  0.88589240  1
  Si  Si163  1  0.63970241  0.33291565  0.88810493  1
  Si  Si164  1  0.30242828  0.33106645  0.38730005  1
  Si  Si165  1  0.80798103  0.42078383  0.89331012  1
  Si  Si166  1  0.14269610  0.91479906  0.88559091  1
  Si  Si167  1  0.14607493  0.42115333  0.88907853  1
  Si  Si168  1  0.97296283  0.83686665  0.38291215  1
  Si  Si169  1  0.13835004  0.91276543  0.38328336  1
  Si  Si170  1  0.68590851  0.66220883  0.61812315  1
  Si  Si171  1  0.69457450  0.82632129  0.11236065  1
  Si  Si172  1  0.30570743  0.16573359  0.38252929  1
  Si  Si173  1  0.86062293  0.41796750  0.11793532  1
  Si  Si174  1  0.85729822  0.42285362  0.61797974  1
  Si  Si175  1  0.14746514  0.07677148  0.38646408  1
  Si  Si176  1  0.69494388  0.66264677  0.11411456  1
  Si  Si177  1  0.36337698  0.16883388  0.61644764  1
  Si  Si178  1  0.14391883  0.08031490  0.88592946  1
  Si  Si179  1  0.86236143  0.58246194  0.11570359  1
  Si  Si180  1  0.97531340  0.83356413  0.88713651  1
  Si  Si181  1  0.47969535  0.09156268  0.38399582  1
  Si  Si182  1  0.64007975  0.83317122  0.88660915  1
  Si  Si183  1  0.63957081  0.66809535  0.88816014  1
  Si  Si184  1  0.35976528  0.65861418  0.11012106  1
  Si  Si185  1  0.80040563  0.07941814  0.38494291  1
  Si  Si186  1  0.47409066  0.58298053  0.88723342  1
  Si  Si187  1  0.02005885  0.32796136  0.11582023  1
  Si  Si188  1  0.01647796  0.33333572  0.61267942  1
  Si  Si189  1  0.19724413  0.91691396  0.61508375  1
  Si  Si190  1  0.80503142  0.91326427  0.38209980  1
  Si  Si191  1  0.52114446  0.58129250  0.61633612  1
  O  O192  1  0.25327144  0.11510772  0.07275293  1
  O  O193  1  0.28989844  0.10954309  0.58955596  1
  O  O194  1  0.26875126  0.61680860  0.08116582  1
  O  O195  1  0.27201597  0.61714704  0.58999774  1
  O  O196  1  0.61492269  0.13415618  0.07155869  1
  O  O197  1  0.60937095  0.12648357  0.58649598  1
  O  O198  1  0.60340697  0.62720424  0.08130015  1
  O  O199  1  0.60466066  0.60991457  0.58842733  1
  O  O200  1  0.93891271  0.11142022  0.08486781  1
  O  O201  1  0.95125883  0.09293663  0.57648323  1
  O  O202  1  0.93553076  0.62427338  0.08247347  1
  O  O203  1  0.93633207  0.62464374  0.58920031  1
  O  O204  1  0.09302436  0.35772345  0.07859537  1
  O  O205  1  0.09610350  0.35673823  0.57823590  1
  O  O206  1  0.09117427  0.87149850  0.07885656  1
  O  O207  1  0.11808583  0.86307721  0.58859985  1
  O  O208  1  0.44454168  0.38162967  0.07714367  1
  O  O209  1  0.45129576  0.35844613  0.58869528  1
  O  O210  1  0.44191845  0.87377796  0.07094175  1
  O  O211  1  0.43890134  0.85394452  0.58146283  1
  O  O212  1  0.76953079  0.38225346  0.08553866  1
  O  O213  1  0.77263882  0.37465811  0.58881058  1
  O  O214  1  0.76887283  0.87084005  0.08261878  1
  O  O215  1  0.78262584  0.83314278  0.58562265  1
  O  O216  1  0.27957016  0.38749245  0.07163117  1
  O  O217  1  0.28836399  0.38613967  0.57955998  1
  O  O218  1  0.25149064  0.88090724  0.07143754  1
  O  O219  1  0.27835310  0.88313750  0.58776995  1
  O  O220  1  0.60818593  0.37463047  0.08375678  1
  O  O221  1  0.61283430  0.39436471  0.59482363  1
  O  O222  1  0.60411351  0.85896712  0.07886982  1
  O  O223  1  0.62380918  0.88179527  0.57861141  1
  O  O224  1  0.93268762  0.37409938  0.08709801  1
  O  O225  1  0.93848387  0.39228700  0.58900147  1
  O  O226  1  0.93055260  0.87876455  0.08184635  1
  O  O227  1  0.95728266  0.89028514  0.57836008  1
  O  O228  1  0.09469699  0.13096895  0.07891055  1
  O  O229  1  0.12893922  0.13890844  0.58093396  1
  O  O230  1  0.10369210  0.64069689  0.08350573  1
  O  O231  1  0.10622447  0.64135176  0.58984257  1
  O  O232  1  0.43116923  0.12062449  0.05407489  1
  O  O233  1  0.44908005  0.14699566  0.58893262  1
  O  O234  1  0.43674540  0.61474131  0.07968304  1
  O  O235  1  0.43792004  0.63168555  0.58898973  1
  O  O236  1  0.77845134  0.13142276  0.08221306  1
  O  O237  1  0.77145962  0.15625612  0.58043278  1
  O  O238  1  0.77010642  0.61886220  0.08440675  1
  O  O239  1  0.77041732  0.63295485  0.59077369  1
  O  O240  1  0.07047439  0.10397859  0.42161703  1
  O  O241  1  0.06374945  0.11319567  0.91569476  1
  O  O242  1  0.04319240  0.61824849  0.42383347  1
  O  O243  1  0.06486630  0.62499694  0.91824252  1
  O  O244  1  0.39665704  0.12676908  0.41144463  1
  O  O245  1  0.39727633  0.12585251  0.90996728  1
  O  O246  1  0.39573240  0.59684716  0.42128059  1
  O  O247  1  0.39606184  0.62339670  0.91567952  1
  O  O248  1  0.71402110  0.10565552  0.41063458  1
  O  O249  1  0.73113621  0.12371781  0.91642059  1
  O  O250  1  0.70896227  0.61404548  0.42425907  1
  O  O251  1  0.73148069  0.63147721  0.91877067  1
  O  O252  1  0.21549684  0.35660432  0.41502794  1
  O  O253  1  0.23610390  0.37817163  0.91442418  1
  O  O254  1  0.20385948  0.85390911  0.41812352  1
  O  O255  1  0.22964137  0.86919129  0.91328786  1
  O  O256  1  0.57310640  0.35281729  0.42467667  1
  O  O257  1  0.56238847  0.37352664  0.91750002  1
  O  O258  1  0.56817290  0.86468891  0.41859246  1
  O  O259  1  0.56441922  0.87726060  0.91453372  1
  O  O260  1  0.89390885  0.36078345  0.41739705  1
  O  O261  1  0.88977362  0.37929527  0.93264021  1
  O  O262  1  0.88948826  0.86563105  0.41116315  1
  O  O263  1  0.89748646  0.87515910  0.91545390  1
  O  O264  1  0.05421048  0.38818821  0.41426446  1
  O  O265  1  0.07511800  0.38688757  0.92585943  1
  O  O266  1  0.04701994  0.89547740  0.40858560  1
  O  O267  1  0.06423107  0.87682864  0.91564610  1
  O  O268  1  0.38286864  0.37642132  0.42508104  1
  O  O269  1  0.39869820  0.37415099  0.91614628  1
  O  O270  1  0.38431776  0.90421294  0.42484524  1
  O  O271  1  0.39682564  0.87972038  0.91341884  1
  O  O272  1  0.73213170  0.37752984  0.41629474  1
  O  O273  1  0.72363086  0.38145356  0.91577405  1
  O  O274  1  0.72866429  0.87576747  0.41192007  1
  O  O275  1  0.73209368  0.87046839  0.91670513  1
  O  O276  1  0.23345640  0.12278573  0.41706556  1
  O  O277  1  0.23122918  0.12533629  0.91374522  1
  O  O278  1  0.22508198  0.64344761  0.43225094  1
  O  O279  1  0.22911516  0.63532230  0.91525122  1
  O  O280  1  0.55733789  0.14961377  0.41027450  1
  O  O281  1  0.56492794  0.12666404  0.91361220  1
  O  O282  1  0.54767797  0.64430499  0.41164622  1
  O  O283  1  0.56319297  0.62503488  0.91665801  1
  O  O284  1  0.87866298  0.12747491  0.42072603  1
  O  O285  1  0.89906705  0.11394637  0.91735078  1
  O  O286  1  0.88482434  0.65673781  0.41845266  1
  O  O287  1  0.89724103  0.62860057  0.91792715  1
  O  O288  1  0.15857260  -0.00052967  0.07913275  1
  O  O289  1  0.18233952  -0.00048296  0.58723304  1
  O  O290  1  0.15920583  0.51011343  0.07360818  1
  O  O291  1  0.16105504  0.51012943  0.58127002  1
  O  O292  1  0.53957741  -0.01184164  0.07208174  1
  O  O293  1  0.50368800  0.01370131  0.58082896  1
  O  O294  1  0.53436273  0.50019839  0.08340699  1
  O  O295  1  0.49966588  0.49893490  0.58900603  1
  O  O296  1  0.84034428  -0.00140082  0.08348396  1
  O  O297  1  0.80294955  -0.00449447  0.57407098  1
  O  O298  1  0.85876479  0.49994587  0.08654009  1
  O  O299  1  0.84145210  0.50536591  0.58887324  1
  O  O300  1  -0.00443921  0.24513827  0.08833849  1
  O  O301  1  -0.01865266  0.25573461  0.58501925  1
  O  O302  1  0.00240112  0.75165468  0.08283588  1
  O  O303  1  0.00903030  0.75340361  0.58743128  1
  O  O304  1  0.35215392  0.26335866  0.06911771  1
  O  O305  1  0.33914210  0.25005988  0.58831291  1
  O  O306  1  0.35004458  0.73529808  0.07142974  1
  O  O307  1  0.33347330  0.74702962  0.59035522  1
  O  O308  1  0.70036095  0.25535018  0.08349054  1
  O  O309  1  0.66491827  0.26067512  0.58865133  1
  O  O310  1  0.69849557  0.74420125  0.08238966  1
  O  O311  1  0.65997903  0.74213851  0.58823290  1
  O  O312  1  0.16821163  -0.00675854  0.41158425  1
  O  O313  1  0.15556394  -0.00298830  0.91482227  1
  O  O314  1  0.16555667  0.49102015  0.42210454  1
  O  O315  1  0.16192066  0.50596538  0.91492853  1
  O  O316  1  0.50465851  0.01842031  0.42609047  1
  O  O317  1  0.48405400  0.00228015  0.91298220  1
  O  O318  1  0.51514111  0.50366176  0.41791255  1
  O  O319  1  0.48162891  0.49984883  0.91576561  1
  O  O320  1  0.81847801  -0.00482445  0.41065143  1
  O  O321  1  0.80782136  -0.00317877  0.91566451  1
  O  O322  1  0.83358042  0.49094199  0.42586144  1
  O  O323  1  0.80835193  0.50535702  0.92220928  1
  O  O324  1  0.31415689  0.24684667  0.41549568  1
  O  O325  1  0.31338423  0.24983982  0.91303486  1
  O  O326  1  0.35340791  0.75169341  0.42812796  1
  O  O327  1  0.32422463  0.75194024  0.91328228  1
  O  O328  1  0.67765728  0.24511739  0.41272000  1
  O  O329  1  0.65257319  0.24993238  0.91864107  1
  O  O330  1  0.65980445  0.74849487  0.41107662  1
  O  O331  1  0.64262553  0.75098582  0.91759044  1
  O  O332  1  1.00273454  0.25502586  0.42181393  1
  O  O333  1  0.98431679  0.23679641  0.92885745  1
  O  O334  1  0.99937032  0.75714609  0.41260402  1
  O  O335  1  0.98189954  0.75122770  0.91833769  1
  O  O336  1  0.19383688  0.08135503  0.18807322  1
  O  O337  1  0.21440940  0.08300078  0.69501747  1
  O  O338  1  0.20423157  0.58334837  0.19017604  1
  O  O339  1  0.20735213  0.58590130  0.69667521  1
  O  O340  1  0.54816543  0.07851052  0.19495365  1
  O  O341  1  0.54568533  0.08774958  0.69514937  1
  O  O342  1  0.54915695  0.58734963  0.19254643  1
  O  O343  1  0.54010763  0.58373185  0.69725998  1
  O  O344  1  0.87431429  0.07932594  0.19425662  1
  O  O345  1  0.87650840  0.08378173  0.70243677  1
  O  O346  1  0.88026010  0.58499230  0.19526286  1
  O  O347  1  0.87868294  0.58470224  0.69892338  1
  O  O348  1  0.03869346  0.33162809  0.19617473  1
  O  O349  1  0.04175132  0.33638215  0.69467239  1
  O  O350  1  0.03495715  0.83399516  0.19243978  1
  O  O351  1  0.04529005  0.83513701  0.69483507  1
  O  O352  1  0.38004116  0.34173464  0.18469600  1
  O  O353  1  0.37756235  0.33389548  0.69520332  1
  O  O354  1  0.37751696  0.82893378  0.19634348  1
  O  O355  1  0.37711922  0.83302134  0.69554389  1
  O  O356  1  0.71713502  0.33262423  0.19582043  1
  O  O357  1  0.71694532  0.33250009  0.69905818  1
  O  O358  1  0.71175881  0.82917590  0.19238509  1
  O  O359  1  0.70806221  0.83056472  0.69420928  1
  O  O360  1  0.20767737  0.41656460  0.20099703  1
  O  O361  1  0.21104712  0.41828717  0.70239613  1
  O  O362  1  0.19891212  0.91530664  0.18748234  1
  O  O363  1  0.21311090  0.91756362  0.69637766  1
  O  O364  1  0.54771248  0.41630101  0.19362150  1
  O  O365  1  0.53363717  0.41915411  0.69805480  1
  O  O366  1  0.54755629  0.91012857  0.18646882  1
  O  O367  1  0.54602990  0.91753689  0.70129628  1
  O  O368  1  0.87779745  0.41734702  0.19769047  1
  O  O369  1  0.87484685  0.42171776  0.69862636  1
  O  O370  1  0.87381192  0.91550718  0.19329639  1
  O  O371  1  0.87821272  0.91538755  0.70253259  1
  O  O372  1  0.03983029  0.16275524  0.19475014  1
  O  O373  1  0.04567958  0.16681056  0.70379204  1
  O  O374  1  0.03607300  0.66811257  0.19345317  1
  O  O375  1  0.04198823  0.66940085  0.69738948  1
  O  O376  1  0.39128651  0.16329604  0.18273092  1
  O  O377  1  0.37923101  0.16840587  0.69745708  1
  O  O378  1  0.38147165  0.65902596  0.18925767  1
  O  O379  1  0.37646521  0.66603477  0.69773855  1
  O  O380  1  0.71436528  0.16646774  0.19105667  1
  O  O381  1  0.70960993  0.17131219  0.69556468  1
  O  O382  1  0.71152298  0.66633356  0.19357464  1
  O  O383  1  0.70280199  0.66550507  0.69808881  1
  O  O384  1  0.12391264  0.07995747  0.30546055  1
  O  O385  1  0.12723249  0.08097678  0.80570978  1
  O  O386  1  0.12123049  0.58536112  0.29801806  1
  O  O387  1  0.12391548  0.58794503  0.80680091  1
  O  O388  1  0.46574417  0.07980123  0.30589238  1
  O  O389  1  0.45920656  0.08444219  0.80366431  1
  O  O390  1  0.45618052  0.58301788  0.30569384  1
  O  O391  1  0.45456565  0.58534028  0.80697204  1
  O  O392  1  0.78826659  0.08081530  0.30375945  1
  O  O393  1  0.78755271  0.08275662  0.80662033  1
  O  O394  1  0.78885088  0.58299513  0.29979243  1
  O  O395  1  0.78822575  0.58439744  0.81032691  1
  O  O396  1  0.28603989  0.33695498  0.30775865  1
  O  O397  1  0.29317791  0.33340617  0.80550741  1
  O  O398  1  0.28480677  0.83328342  0.29700870  1
  O  O399  1  0.29144016  0.83454584  0.80425893  1
  O  O400  1  0.62737803  0.33027512  0.30660205  1
  O  O401  1  0.61783351  0.32767885  0.80896277  1
  O  O402  1  0.62482682  0.83189628  0.30214802  1
  O  O403  1  0.62372216  0.83251830  0.80661106  1
  O  O404  1  0.95695207  0.33177071  0.30680619  1
  O  O405  1  0.95779609  0.33395793  0.80331156  1
  O  O406  1  0.95314709  0.83386613  0.30207248  1
  O  O407  1  0.95923639  0.83275920  0.80734604  1
  O  O408  1  0.12053220  0.41581963  0.30641960  1
  O  O409  1  0.12372598  0.41945012  0.80820201  1
  O  O410  1  0.11979559  0.91369449  0.30207835  1
  O  O411  1  0.12471719  0.91549371  0.80518676  1
  O  O412  1  0.45354031  0.41051464  0.29879830  1
  O  O413  1  0.45572386  0.41732436  0.80724169  1
  O  O414  1  0.45884720  0.91805239  0.29553372  1
  O  O415  1  0.45655774  0.91750002  0.80497831  1
  O  O416  1  0.79880134  0.41683188  0.30897854  1
  O  O417  1  0.80196769  0.42093952  0.81397740  1
  O  O418  1  0.78843975  0.91372212  0.30137926  1
  O  O419  1  0.78736053  0.91516867  0.80584172  1
  O  O420  1  0.27941244  0.16525205  0.30452002  1
  O  O421  1  0.28935594  0.16689998  0.80379239  1
  O  O422  1  0.28828718  0.66547931  0.29713162  1
  O  O423  1  0.29057151  0.66813055  0.80551445  1
  O  O424  1  0.63241024  0.16739194  0.30111842  1
  O  O425  1  0.62565278  0.16814276  0.80640645  1
  O  O426  1  0.62447228  0.66372004  0.30470892  1
  O  O427  1  0.62153426  0.66862335  0.80809324  1
  O  O428  1  0.95348148  0.16377772  0.29887892  1
  O  O429  1  0.95681168  0.16577721  0.81053567  1
  O  O430  1  0.95553531  0.66929038  0.30741291  1
  O  O431  1  0.96234610  0.66884558  0.80909522  1
  F  F432  1  0.03984484  -0.00132313  0.20161988  1
  F  F433  1  0.04836128  -0.00089403  0.70455846  1
  F  F434  1  0.04065808  0.49823847  0.20111901  1
  F  F435  1  0.04425217  0.50311171  0.70647122  1
  F  F436  1  0.37910681  -0.01250885  0.18810399  1
  F  F437  1  0.38024098  0.00151843  0.70290597  1
  F  F438  1  0.36642738  0.50146354  0.19608846  1
  F  F439  1  0.37797618  0.50206106  0.70538255  1
  F  F440  1  0.71441584  -0.00300421  0.19810472  1
  F  F441  1  0.71157515  0.00091007  0.70401118  1
  F  F442  1  0.71813261  0.50540257  0.19366835  1
  F  F443  1  0.71665470  0.51041199  0.70356086  1
  F  F444  1  0.19535367  0.24948883  0.19475240  1
  F  F445  1  0.21308711  0.25126703  0.70312945  1
  F  F446  1  0.18895890  0.74900531  0.18847751  1
  F  F447  1  0.21241665  0.75080771  0.70350578  1
  F  F448  1  0.55523950  0.26019610  0.18938500  1
  F  F449  1  0.54596819  0.25171224  0.70402281  1
  F  F450  1  0.54824527  0.74718511  0.19820419  1
  F  F451  1  0.54464071  0.74892630  0.70489627  1
  F  F452  1  0.87749939  0.25139666  0.20159477  1
  F  F453  1  0.87758105  0.25131756  0.70670869  1
  F  F454  1  0.87682364  0.74863855  0.20092889  1
  F  F455  1  0.88089805  0.75057847  0.70441631  1
  F  F456  1  0.28281630  -0.01032310  0.29298190  1
  F  F457  1  0.29069455  0.00014801  0.79856642  1
  F  F458  1  0.28741810  0.50223918  0.29814224  1
  F  F459  1  0.28929688  0.50371339  0.80133577  1
  F  F460  1  0.62532068  -0.00429613  0.29408320  1
  F  F461  1  0.62347931  0.00335588  0.79958630  1
  F  F462  1  0.62843053  0.49980328  0.30053117  1
  F  F463  1  0.61425498  0.51296551  0.80659090  1
  F  F464  1  0.95160966  -0.00262331  0.29740488  1
  F  F465  1  0.95887478  -0.00085631  0.80255954  1
  F  F466  1  0.95440464  0.50053899  0.29828527  1
  F  F467  1  0.95674723  0.50352833  0.80229505  1
  F  F468  1  0.11855423  0.24775210  0.29720931  1
  F  F469  1  0.12568477  0.25309435  0.80012698  1
  F  F470  1  0.11800865  0.75101581  0.29480639  1
  F  F471  1  0.12246314  0.75242803  0.79863047  1
  F  F472  1  0.47186294  0.25039408  0.29541944  1
  F  F473  1  0.45439520  0.25041982  0.79929341  1
  F  F474  1  0.46536558  0.74691821  0.29744656  1
  F  F475  1  0.45457502  0.75130113  0.79952125  1
  F  F476  1  0.78904699  0.24844385  0.29750688  1
  F  F477  1  0.78838447  0.24962714  0.80279676  1
  F  F478  1  0.78683890  0.75006747  0.29642763  1
  F  F479  1  0.78579842  0.75541487  0.80225409  1
