# generated using pymatgen
data_K24Na3Li5Mg64Fe17Si79(O5F)48
_symmetry_space_group_name_H-M   'P 1'
_cell_length_a   16.10315047
_cell_length_b   18.59416289
_cell_length_c   20.56162147
_cell_angle_alpha   90.01140037
_cell_angle_beta   100.01457021
_cell_angle_gamma   89.97870743
_symmetry_Int_Tables_number   1
_chemical_formula_structural   K24Na3Li5Mg64Fe17Si79(O5F)48
_chemical_formula_sum   'K24 Na3 Li5 Mg64 Fe17 Si79 O240 F48'
_cell_volume   6062.84937370
_cell_formula_units_Z   1
loop_
 _symmetry_equiv_pos_site_id
 _symmetry_equiv_pos_as_xyz
  1  'x, y, z'
loop_
 _atom_site_type_symbol
 _atom_site_label
 _atom_site_symmetry_multiplicity
 _atom_site_fract_x
 _atom_site_fract_y
 _atom_site_fract_z
 _atom_site_occupancy
  K  K0  1  0.01709469  0.00494984  0.01021750  1
  K  K1  1  0.01111936  0.00092774  0.49506175  1
  K  K2  1  -0.00239917  0.48868566  -0.00165020  1
  K  K3  1  -0.00357435  0.50671150  0.49916637  1
  K  K4  1  0.32632607  0.00423571  0.01670492  1
  K  K5  1  0.33172906  -0.00383505  0.48705539  1
  K  K6  1  0.33058168  0.48864564  0.01105042  1
  K  K7  1  0.33671976  0.49399219  0.49179136  1
  K  K8  1  0.66978264  0.00968089  0.01334981  1
  K  K9  1  0.65209052  -0.00075077  0.49272171  1
  K  K10  1  0.66982514  0.49360203  0.00579348  1
  K  K11  1  0.67095008  0.49347720  0.49426436  1
  K  K12  1  0.17385045  0.24089303  0.01779186  1
  K  K13  1  0.15303290  0.24709572  0.48608265  1
  K  K14  1  0.16059276  0.75651623  -0.00041552  1
  K  K15  1  0.15690107  0.75835723  0.49964485  1
  K  K16  1  0.50258194  0.24469633  0.02733758  1
  K  K17  1  0.50981995  0.23934823  0.48705297  1
  K  K18  1  0.49961227  0.75519122  0.00461657  1
  K  K19  1  0.49968769  0.75284822  0.49152559  1
  K  K20  1  0.83897521  0.24579662  0.00699245  1
  K  K21  1  0.83434208  0.25721515  0.49114319  1
  K  K22  1  0.83930880  0.75457597  0.00518150  1
  K  K23  1  0.83560510  0.74646588  0.49822796  1
  Na  Na24  1  0.83461019  0.49826741  0.74917289  1
  Na  Na25  1  0.33382284  0.41670836  0.24888630  1
  Na  Na26  1  0.16993933  0.32986039  0.24417326  1
  Li  Li27  1  0.17015272  0.00425301  0.26332122  1
  Li  Li28  1  0.49925133  0.00864950  0.25147066  1
  Li  Li29  1  0.49891336  0.15878835  0.25393934  1
  Li  Li30  1  0.83390424  0.67063407  0.24894432  1
  Li  Li31  1  0.00480275  0.91707469  0.75436883  1
  Mg  Mg32  1  0.66217667  0.24816974  0.24729363  1
  Mg  Mg33  1  0.83259176  0.50538195  0.24938584  1
  Mg  Mg34  1  0.33309413  0.25116402  0.75137909  1
  Mg  Mg35  1  -0.00192766  0.24950156  0.75687046  1
  Mg  Mg36  1  0.49863996  -0.00164040  0.74749462  1
  Mg  Mg37  1  0.66804937  0.75026633  0.74762655  1
  Mg  Mg38  1  0.16673382  0.50158983  0.74737619  1
  Mg  Mg39  1  0.16213199  -0.00067236  0.75586363  1
  Mg  Mg40  1  -0.00249316  0.75092381  0.25012218  1
  Mg  Mg41  1  0.49885107  0.49887658  0.24984976  1
  Mg  Mg42  1  0.50096230  0.50127127  0.74783551  1
  Mg  Mg43  1  0.66918064  0.75271325  0.25113758  1
  Mg  Mg44  1  0.83192367  0.00077674  0.25052272  1
  Mg  Mg45  1  0.33228063  0.74975909  0.74886976  1
  Mg  Mg46  1  0.33313462  0.75011555  0.25023879  1
  Mg  Mg47  1  -0.00025103  0.24944905  0.25136766  1
  Mg  Mg48  1  0.83508941  -0.00166761  0.75217501  1
  Mg  Mg49  1  0.16695948  0.49935278  0.24637653  1
  Mg  Mg50  1  0.33793788  0.24587670  0.24864885  1
  Mg  Mg51  1  0.00188229  0.75185443  0.74938098  1
  Mg  Mg52  1  0.66729528  0.25102735  0.74748696  1
  Mg  Mg53  1  0.16578713  0.33473718  0.75184728  1
  Mg  Mg54  1  0.33618590  0.58240434  0.24872337  1
  Mg  Mg55  1  0.33531257  0.08079150  0.25278236  1
  Mg  Mg56  1  0.33098959  0.91560717  0.75122684  1
  Mg  Mg57  1  0.49908067  0.66729395  0.74882752  1
  Mg  Mg58  1  0.83713783  0.83421776  0.75105514  1
  Mg  Mg59  1  0.00067210  0.58470485  0.74658327  1
  Mg  Mg60  1  0.16285884  0.83593701  0.75155054  1
  Mg  Mg61  1  0.16674187  0.83623783  0.25137808  1
  Mg  Mg62  1  0.83513902  0.83360905  0.25149858  1
  Mg  Mg63  1  0.50139232  0.66600650  0.25109677  1
  Mg  Mg64  1  0.50204342  0.32882048  0.24919429  1
  Mg  Mg65  1  0.33134157  0.91887771  0.25002852  1
  Mg  Mg66  1  0.83173312  0.16618202  0.25237770  1
  Mg  Mg67  1  0.00179380  0.41731967  0.24986923  1
  Mg  Mg68  1  0.66428794  0.08287181  0.74792064  1
  Mg  Mg69  1  -0.00196829  0.58534501  0.24736489  1
  Mg  Mg70  1  0.66285192  0.08429362  0.25009146  1
  Mg  Mg71  1  0.16427055  0.66582025  0.74514951  1
  Mg  Mg72  1  0.33146285  0.08489609  0.75300769  1
  Mg  Mg73  1  0.16549576  0.16537488  0.75572686  1
  Mg  Mg74  1  0.33007893  0.58406941  0.74555254  1
  Mg  Mg75  1  0.66775065  0.58371661  0.74990856  1
  Mg  Mg76  1  0.66811624  0.41608145  0.74881026  1
  Mg  Mg77  1  0.66602936  0.91948354  0.24959818  1
  Mg  Mg78  1  0.00139543  0.08439862  0.24931270  1
  Mg  Mg79  1  0.49863789  0.16576458  0.74874793  1
  Mg  Mg80  1  -0.00091359  0.41549335  0.75256973  1
  Mg  Mg81  1  0.00374341  0.91947293  0.25108956  1
  Mg  Mg82  1  0.83295930  0.16451616  0.75369070  1
  Mg  Mg83  1  0.16751891  0.66566414  0.24875079  1
  Mg  Mg84  1  0.50033410  0.33520541  0.74743232  1
  Mg  Mg85  1  0.00195862  0.08073117  0.75827035  1
  Mg  Mg86  1  0.49800699  0.83506267  0.74686443  1
  Mg  Mg87  1  0.66456168  0.91492949  0.74677408  1
  Mg  Mg88  1  0.50031138  0.83650425  0.24996270  1
  Mg  Mg89  1  0.16852175  0.16384868  0.25491119  1
  Mg  Mg90  1  0.83322727  0.33454908  0.75166940  1
  Mg  Mg91  1  0.66908967  0.58858187  0.24914883  1
  Mg  Mg92  1  0.33205420  0.41699660  0.74716316  1
  Mg  Mg93  1  0.83543433  0.66434617  0.74859989  1
  Mg  Mg94  1  0.66551550  0.41693476  0.24857707  1
  Mg  Mg95  1  0.83291672  0.33642877  0.25103907  1
  Fe  Fe96  1  0.14192533  0.08711601  0.39582369  1
  Fe  Fe97  1  0.81208353  0.91505801  0.38837407  1
  Fe  Fe98  1  0.18884594  0.08020348  0.11798152  1
  Fe  Fe99  1  0.14710967  0.08462823  0.89684206  1
  Fe  Fe100  1  0.64301399  0.15484209  0.38903253  1
  Fe  Fe101  1  0.35794271  0.33285295  0.10745842  1
  Fe  Fe102  1  0.14243942  0.91477669  0.39105302  1
  Fe  Fe103  1  0.02291916  0.67413281  0.60607855  1
  Fe  Fe104  1  0.14557826  0.91020399  0.89469807  1
  Fe  Fe105  1  0.69113878  0.33573926  0.60883098  1
  Fe  Fe106  1  0.64744016  0.32692627  0.38810871  1
  Fe  Fe107  1  0.68961970  0.16673524  0.10913821  1
  Fe  Fe108  1  0.19157569  0.57940301  0.60491355  1
  Fe  Fe109  1  0.96894087  0.17317288  0.39064974  1
  Fe  Fe110  1  0.47895603  0.57962748  0.39004772  1
  Fe  Fe111  1  0.97354773  0.33543922  0.89457864  1
  Fe  Fe112  1  0.52315281  0.91173139  0.60736588  1
  Si  Si113  1  0.48044287  0.41161568  0.38883072  1
  Si  Si114  1  0.01857567  0.33650380  0.11388696  1
  Si  Si115  1  0.18834974  0.40959160  0.61219813  1
  Si  Si116  1  0.35934831  0.16020515  0.11234380  1
  Si  Si117  1  0.18917065  0.58492882  0.10997529  1
  Si  Si118  1  0.96862306  0.16173539  0.89309757  1
  Si  Si119  1  0.14494310  0.58689931  0.88492482  1
  Si  Si120  1  0.80283835  0.58540049  0.88627156  1
  Si  Si121  1  0.85795757  0.58530699  0.11311734  1
  Si  Si122  1  0.02481958  0.83013474  0.11411949  1
  Si  Si123  1  0.47658389  0.41788011  0.88346485  1
  Si  Si124  1  0.79827344  0.41794097  0.89001679  1
  Si  Si125  1  0.31365157  0.66327129  0.88425879  1
  Si  Si126  1  0.69485220  0.66272686  0.61414036  1
  Si  Si127  1  0.52667404  0.91093017  0.11277812  1
  Si  Si128  1  0.86045769  0.58086808  0.61098611  1
  Si  Si129  1  0.81064636  0.07847755  0.38854406  1
  Si  Si130  1  0.47151866  0.08406322  0.88522947  1
  Si  Si131  1  0.64469405  0.67346615  0.38719244  1
  Si  Si132  1  0.69991072  0.83004401  0.61194138  1
  Si  Si133  1  0.63999690  0.67003488  0.88585406  1
  Si  Si134  1  0.85993606  0.91970710  0.61867902  1
  Si  Si135  1  0.63735043  0.16500726  0.88374104  1
  Si  Si136  1  0.02249570  0.17048825  0.11274614  1
  Si  Si137  1  0.52765120  0.42447867  0.11009963  1
  Si  Si138  1  0.19283472  0.90846305  0.11359681  1
  Si  Si139  1  0.86718449  0.41211270  0.61278339  1
  Si  Si140  1  0.31223302  0.33265688  0.38390842  1
  Si  Si141  1  0.63670972  0.33072136  0.88532977  1
  Si  Si142  1  0.52496687  0.58992455  0.61578434  1
  Si  Si143  1  0.97909205  0.66382865  0.38105949  1
  Si  Si144  1  0.19329618  0.92065395  0.61724042  1
  Si  Si145  1  0.02833482  0.32717611  0.61725499  1
  Si  Si146  1  0.02371707  0.84227720  0.61431535  1
  Si  Si147  1  0.18365036  0.42082996  0.10752783  1
  Si  Si148  1  0.63772560  0.83469840  0.88491598  1
  Si  Si149  1  0.14622311  0.42119382  0.88736433  1
  Si  Si150  1  0.52465672  0.07577583  0.11210978  1
  Si  Si151  1  0.52820387  0.58953815  0.11214851  1
  Si  Si152  1  0.52180700  0.42452990  0.61259012  1
  Si  Si153  1  0.69475804  0.83458021  0.11210459  1
  Si  Si154  1  0.47232128  0.91800545  0.88533521  1
  Si  Si155  1  0.97839689  0.34495042  0.38764388  1
  Si  Si156  1  0.81047177  0.42672336  0.38566669  1
  Si  Si157  1  0.31156706  0.17157468  0.39095603  1
  Si  Si158  1  0.86297444  0.91628032  0.11427870  1
  Si  Si159  1  0.02366824  0.66649846  0.11197284  1
  Si  Si160  1  0.47746419  0.58144811  0.88399400  1
  Si  Si161  1  0.63896526  0.83922100  0.38623558  1
  Si  Si162  1  0.97277693  0.66154388  0.88666382  1
  Si  Si163  1  0.69297178  0.67068812  0.11273261  1
  Si  Si164  1  0.31238179  0.33923419  0.88454915  1
  Si  Si165  1  0.85737382  0.42141966  0.11351510  1
  Si  Si166  1  0.46837975  0.07924541  0.38786634  1
  Si  Si167  1  0.85605200  0.08303475  0.61845762  1
  Si  Si168  1  0.68857248  0.16382081  0.61459407  1
  Si  Si169  1  0.35932252  0.82978422  0.11280014  1
  Si  Si170  1  0.31243304  0.17523736  0.88905105  1
  Si  Si171  1  0.69294224  0.33939811  0.11098983  1
  Si  Si172  1  0.80398737  0.91376395  0.88589408  1
  Si  Si173  1  0.52077458  0.08269298  0.61308613  1
  Si  Si174  1  0.35768696  0.66551166  0.11240982  1
  Si  Si175  1  0.35861494  0.17014796  0.61575724  1
  Si  Si176  1  0.80103463  0.07965217  0.88570416  1
  Si  Si177  1  0.85976320  0.08176036  0.11150511  1
  Si  Si178  1  0.96926678  0.82746534  0.88960240  1
  Si  Si179  1  0.30841827  0.82558566  0.38654103  1
  Si  Si180  1  0.30654014  0.66213496  0.38443659  1
  Si  Si181  1  0.46748438  0.91309027  0.38296789  1
  Si  Si182  1  0.80923547  0.59136633  0.38196670  1
  Si  Si183  1  0.14171218  0.58284064  0.38152439  1
  Si  Si184  1  0.02251011  0.16336907  0.62019278  1
  Si  Si185  1  0.19354540  0.08675163  0.61871154  1
  Si  Si186  1  0.14701151  0.42015941  0.38263140  1
  Si  Si187  1  0.35177827  0.82878747  0.61277181  1
  Si  Si188  1  0.35982386  0.66515508  0.61323845  1
  Si  Si189  1  0.31432814  0.82608416  0.88806774  1
  Si  Si190  1  0.97400371  0.82665908  0.38812148  1
  Si  Si191  1  0.35951381  0.33556152  0.61419336  1
  O  O192  1  0.27326357  0.11953560  0.07758933  1
  O  O193  1  0.27111312  0.12583050  0.58872302  1
  O  O194  1  0.26978411  0.62205511  0.08139216  1
  O  O195  1  0.29734594  0.60281877  0.58068404  1
  O  O196  1  0.59236017  0.11410770  0.07228849  1
  O  O197  1  0.60790512  0.10952742  0.58912511  1
  O  O198  1  0.60119627  0.63394941  0.07978302  1
  O  O199  1  0.60748072  0.61832459  0.58665182  1
  O  O200  1  0.93562268  0.12494227  0.08336407  1
  O  O201  1  0.93925629  0.11442217  0.59090113  1
  O  O202  1  0.93534744  0.62355364  0.08180333  1
  O  O203  1  0.92730448  0.61706555  0.57098284  1
  O  O204  1  0.09261933  0.37787070  0.08187951  1
  O  O205  1  0.11485204  0.34810827  0.58927088  1
  O  O206  1  0.10650672  0.85959311  0.08477141  1
  O  O207  1  0.10562241  0.87940467  0.58759948  1
  O  O208  1  0.44276126  0.38656582  0.07245169  1
  O  O209  1  0.43639341  0.37553376  0.58585510  1
  O  O210  1  0.43924185  0.86519602  0.08274543  1
  O  O211  1  0.42992586  0.85178464  0.57775683  1
  O  O212  1  0.76935619  0.38197583  0.08103626  1
  O  O213  1  0.78863226  0.36429321  0.57682046  1
  O  O214  1  0.77165630  0.87618229  0.08303730  1
  O  O215  1  0.78521401  0.86210365  0.58773645  1
  O  O216  1  0.25450977  0.38236239  0.07274803  1
  O  O217  1  0.27326040  0.37954478  0.58546802  1
  O  O218  1  0.27116946  0.87023884  0.08132467  1
  O  O219  1  0.26956190  0.88092536  0.58710586  1
  O  O220  1  0.60930158  0.38927078  0.08234486  1
  O  O221  1  0.59978237  0.39943056  0.57927624  1
  O  O222  1  0.60376795  0.87203154  0.07946743  1
  O  O223  1  0.61890883  0.87521231  0.57651337  1
  O  O224  1  0.93245196  0.38215156  0.08221270  1
  O  O225  1  0.95333758  0.38297447  0.58538240  1
  O  O226  1  0.93711483  0.87327635  0.08265007  1
  O  O227  1  0.94611434  0.90012909  0.59105926  1
  O  O228  1  0.09534490  0.13634059  0.07794676  1
  O  O229  1  0.10508814  0.13030643  0.59257784  1
  O  O230  1  0.10305102  0.63242236  0.08089703  1
  O  O231  1  0.11209887  0.64419948  0.56642495  1
  O  O232  1  0.43387940  0.11382817  0.08320846  1
  O  O233  1  0.44080795  0.13829753  0.58822577  1
  O  O234  1  0.43644607  0.62810866  0.08254352  1
  O  O235  1  0.45194157  0.64968461  0.58974301  1
  O  O236  1  0.77340535  0.11722506  0.07228977  1
  O  O237  1  0.77319000  0.13193638  0.58910425  1
  O  O238  1  0.76899447  0.62791692  0.08316310  1
  O  O239  1  0.76733891  0.61945173  0.58401803  1
  O  O240  1  0.05698994  0.12162012  0.43846949  1
  O  O241  1  0.04427682  0.10825785  0.92341041  1
  O  O242  1  0.05613260  0.60720694  0.40948599  1
  O  O243  1  0.06473128  0.62215532  0.91517271  1
  O  O244  1  0.39048455  0.11663451  0.42004430  1
  O  O245  1  0.39588987  0.12351973  0.91515703  1
  O  O246  1  0.37844429  0.60750369  0.41946212  1
  O  O247  1  0.39448374  0.60988165  0.91332046  1
  O  O248  1  0.72254003  0.08203239  0.41702080  1
  O  O249  1  0.71941610  0.11508327  0.91282507  1
  O  O250  1  0.73424990  0.63034489  0.41410942  1
  O  O251  1  0.73060926  0.63242474  0.91774144  1
  O  O252  1  0.22840732  0.36848282  0.41123442  1
  O  O253  1  0.23351062  0.37425736  0.91380470  1
  O  O254  1  0.23154948  0.84887445  0.42219902  1
  O  O255  1  0.23715508  0.84482896  0.92434035  1
  O  O256  1  0.54970734  0.35267211  0.42158747  1
  O  O257  1  0.55504082  0.36469078  0.91359631  1
  O  O258  1  0.55213457  0.86510554  0.41266037  1
  O  O259  1  0.56119926  0.87525911  0.91382390  1
  O  O260  1  0.90297797  0.39027684  0.41467339  1
  O  O261  1  0.88469364  0.38308552  0.92827368  1
  O  O262  1  0.88729967  0.83904980  0.41667544  1
  O  O263  1  0.88569233  0.86431574  0.91577305  1
  O  O264  1  0.06587114  0.39187152  0.41437881  1
  O  O265  1  0.07204321  0.39133141  0.92302609  1
  O  O266  1  0.04766229  0.87907931  0.42455009  1
  O  O267  1  0.05166485  0.86807129  0.92739914  1
  O  O268  1  0.38900074  0.38909795  0.41195180  1
  O  O269  1  0.39256385  0.39271131  0.91172064  1
  O  O270  1  0.39217761  0.87448218  0.41548880  1
  O  O271  1  0.39891113  0.87623235  0.91633601  1
  O  O272  1  0.73725415  0.39262673  0.41978021  1
  O  O273  1  0.71740063  0.37986268  0.91826319  1
  O  O274  1  0.71253644  0.89194270  0.42132372  1
  O  O275  1  0.72490090  0.87693567  0.91581145  1
  O  O276  1  0.23343671  0.14946755  0.42655777  1
  O  O277  1  0.23381365  0.15426015  0.92286419  1
  O  O278  1  0.21684980  0.64021729  0.40926988  1
  O  O279  1  0.22995844  0.63596499  0.91375702  1
  O  O280  1  0.55199511  0.11879962  0.42677709  1
  O  O281  1  0.55875569  0.12834325  0.91294837  1
  O  O282  1  0.57097531  0.64121798  0.42278222  1
  O  O283  1  0.56122886  0.63041608  0.91393627  1
  O  O284  1  0.86858796  0.14684278  0.41850004  1
  O  O285  1  0.88193335  0.12774484  0.91674457  1
  O  O286  1  0.89597835  0.63627271  0.41050017  1
  O  O287  1  0.89800571  0.61687383  0.91645700  1
  O  O288  1  0.17478305  -0.01363794  0.08113914  1
  O  O289  1  0.18564681  0.00422843  0.59039245  1
  O  O290  1  0.17176827  0.50542523  0.07570376  1
  O  O291  1  0.15921812  0.48413471  0.57613077  1
  O  O292  1  0.51491186  -0.00866168  0.08094218  1
  O  O293  1  0.49438762  0.00620479  0.57902089  1
  O  O294  1  0.52555662  0.50890951  0.08044166  1
  O  O295  1  0.49629075  0.50887051  0.58940965  1
  O  O296  1  0.85951796  -0.00276803  0.08299648  1
  O  O297  1  0.83401748  0.00122727  0.59057851  1
  O  O298  1  0.84863781  0.50375400  0.08155819  1
  O  O299  1  0.85067216  0.49598396  0.58722869  1
  O  O300  1  0.00551427  0.25454388  0.08411417  1
  O  O301  1  0.00417649  0.24507982  0.59001377  1
  O  O302  1  0.00865968  0.74826296  0.08223993  1
  O  O303  1  -0.00202394  0.76882043  0.57414553  1
  O  O304  1  0.35771756  0.23858729  0.07502663  1
  O  O305  1  0.34704573  0.25267192  0.58728812  1
  O  O306  1  0.34962138  0.74728880  0.08114212  1
  O  O307  1  0.32539017  0.74580894  0.58843129  1
  O  O308  1  0.68121234  0.26216026  0.07466690  1
  O  O309  1  0.66218754  0.24094751  0.58253466  1
  O  O310  1  0.69159711  0.75227820  0.08023692  1
  O  O311  1  0.68910318  0.74535562  0.58554394  1
  O  O312  1  0.17276199  -0.00098921  0.43586574  1
  O  O313  1  0.18273326  -0.00312630  0.93273987  1
  O  O314  1  0.16910542  0.50272223  0.41216935  1
  O  O315  1  0.16636647  0.50544015  0.91407267  1
  O  O316  1  0.47573905  -0.00616826  0.41522895  1
  O  O317  1  0.48250422  0.00091870  0.91348202  1
  O  O318  1  0.50610388  0.48878752  0.42596629  1
  O  O319  1  0.50002894  0.49969954  0.91219399  1
  O  O320  1  0.85939143  0.00393044  0.41647325  1
  O  O321  1  0.81246528  -0.00343229  0.91453048  1
  O  O322  1  0.82325005  0.51064623  0.41355910  1
  O  O323  1  0.79560644  0.50371416  0.91461020  1
  O  O324  1  0.33677663  0.25434931  0.42074841  1
  O  O325  1  0.34048506  0.25883354  0.91201985  1
  O  O326  1  0.33505182  0.74287572  0.41223876  1
  O  O327  1  0.34492367  0.74287530  0.91272109  1
  O  O328  1  0.67887292  0.24112707  0.42976724  1
  O  O329  1  0.65106948  0.24748574  0.91254514  1
  O  O330  1  0.66075458  0.75662257  0.41432560  1
  O  O331  1  0.64356704  0.75247280  0.91567953  1
  O  O332  1  0.98932242  0.26880472  0.42483482  1
  O  O333  1  0.98058645  0.24098636  0.92658643  1
  O  O334  1  1.00620184  0.74301121  0.41091818  1
  O  O335  1  0.97273556  0.74253481  0.91876530  1
  O  O336  1  0.21284478  0.08027769  0.20706679  1
  O  O337  1  0.21337258  0.08669348  0.69901091  1
  O  O338  1  0.20780380  0.58648136  0.18991299  1
  O  O339  1  0.21104908  0.58261210  0.69840958  1
  O  O340  1  0.54820414  0.07669165  0.19070550  1
  O  O341  1  0.53926570  0.08261195  0.69477754  1
  O  O342  1  0.54764840  0.59014318  0.19183197  1
  O  O343  1  0.54413917  0.58719898  0.69678746  1
  O  O344  1  0.87294540  0.08206692  0.19166817  1
  O  O345  1  0.87493913  0.08331339  0.69917935  1
  O  O346  1  0.87745031  0.58387991  0.19222742  1
  O  O347  1  0.88116633  0.59001589  0.69089275  1
  O  O348  1  0.03114255  0.33606165  0.19303033  1
  O  O349  1  0.04593117  0.33068714  0.69777889  1
  O  O350  1  0.04127824  0.83028721  0.19371603  1
  O  O351  1  0.04433082  0.83175107  0.69410238  1
  O  O352  1  0.38398097  0.32708043  0.19615964  1
  O  O353  1  0.37724728  0.33454207  0.69523360  1
  O  O354  1  0.37778404  0.82942307  0.19269646  1
  O  O355  1  0.37462986  0.83250817  0.69434319  1
  O  O356  1  0.71454676  0.33993823  0.19116065  1
  O  O357  1  0.71111334  0.33392421  0.70136375  1
  O  O358  1  0.70956493  0.83236443  0.19152823  1
  O  O359  1  0.71113861  0.83155086  0.69337349  1
  O  O360  1  0.20151338  0.42775429  0.18577337  1
  O  O361  1  0.20970044  0.41436557  0.69366324  1
  O  O362  1  0.21558173  0.90416965  0.19258486  1
  O  O363  1  0.21239760  0.91823555  0.69767666  1
  O  O364  1  0.54426295  0.42475597  0.19025817  1
  O  O365  1  0.54057104  0.41896184  0.69402137  1
  O  O366  1  0.54777353  0.90730120  0.19156821  1
  O  O367  1  0.54388065  0.91550518  0.69988605  1
  O  O368  1  0.87527498  0.42202360  0.19361864  1
  O  O369  1  0.88295447  0.40792061  0.69269560  1
  O  O370  1  0.87897961  0.91404560  0.19373874  1
  O  O371  1  0.87192671  0.91713687  0.69851115  1
  O  O372  1  0.04088194  0.16971650  0.19269920  1
  O  O373  1  0.04081808  0.16696954  0.70052135  1
  O  O374  1  0.04295784  0.66572891  0.19175473  1
  O  O375  1  0.04394638  0.66831040  0.69923044  1
  O  O376  1  0.37436304  0.16133460  0.19236299  1
  O  O377  1  0.37614826  0.16868227  0.69671599  1
  O  O378  1  0.37502024  0.66805234  0.19222195  1
  O  O379  1  0.37780993  0.66634171  0.69503221  1
  O  O380  1  0.71372287  0.16686176  0.19968390  1
  O  O381  1  0.70780629  0.16448113  0.69619522  1
  O  O382  1  0.70584972  0.67032242  0.19177157  1
  O  O383  1  0.71053166  0.66552416  0.69495220  1
  O  O384  1  0.11616175  0.08551448  0.30504027  1
  O  O385  1  0.12457381  0.08457474  0.80413713  1
  O  O386  1  0.12218471  0.58397857  0.30088366  1
  O  O387  1  0.12590974  0.58526985  0.80508246  1
  O  O388  1  0.45230926  0.08078476  0.30872742  1
  O  O389  1  0.45547546  0.08361553  0.80449835  1
  O  O390  1  0.45759399  0.58426753  0.29803573  1
  O  O391  1  0.45823987  0.58378275  0.80373282  1
  O  O392  1  0.79163558  0.08073905  0.30630624  1
  O  O393  1  0.78453624  0.08025643  0.80522692  1
  O  O394  1  0.78869901  0.58699876  0.30233862  1
  O  O395  1  0.78414737  0.59163744  0.80708354  1
  O  O396  1  0.29581209  0.32362119  0.30622581  1
  O  O397  1  0.29212861  0.33681739  0.80375086  1
  O  O398  1  0.29021046  0.82891968  0.30555463  1
  O  O399  1  0.29494875  0.83091572  0.80714397  1
  O  O400  1  0.62563685  0.33463469  0.29619403  1
  O  O401  1  0.61894548  0.33281370  0.80494345  1
  O  O402  1  0.62315503  0.83529105  0.30515577  1
  O  O403  1  0.62278529  0.83203509  0.80482727  1
  O  O404  1  0.95739336  0.33986863  0.30671157  1
  O  O405  1  0.95448011  0.33399029  0.80270206  1
  O  O406  1  0.95834439  0.83177494  0.30638813  1
  O  O407  1  0.95328709  0.82601762  0.80953464  1
  O  O408  1  0.12133454  0.42459539  0.30354903  1
  O  O409  1  0.12742459  0.41852641  0.80625380  1
  O  O410  1  0.12114786  0.91419202  0.29969290  1
  O  O411  1  0.12598842  0.91489361  0.80349103  1
  O  O412  1  0.47149877  0.41795098  0.30877357  1
  O  O413  1  0.45809015  0.41787164  0.80298512  1
  O  O414  1  0.45115581  0.91023492  0.30355151  1
  O  O415  1  0.45467128  0.91646538  0.80494086  1
  O  O416  1  0.79187776  0.42323766  0.30446197  1
  O  O417  1  0.78313545  0.41165458  0.81050809  1
  O  O418  1  0.78770505  0.91555023  0.29639251  1
  O  O419  1  0.78560879  0.91400839  0.80555141  1
  O  O420  1  0.29358771  0.16752301  0.31073589  1
  O  O421  1  0.29382491  0.17026600  0.80769966  1
  O  O422  1  0.29002169  0.66497587  0.30308162  1
  O  O423  1  0.29428158  0.66487979  0.80413985  1
  O  O424  1  0.62205333  0.16676172  0.29932189  1
  O  O425  1  0.62004180  0.16579844  0.80319046  1
  O  O426  1  0.62514164  0.66981941  0.30604080  1
  O  O427  1  0.62266036  0.66877113  0.80559078  1
  O  O428  1  0.95227010  0.16763895  0.29839704  1
  O  O429  1  0.95332805  0.16494126  0.81118665  1
  O  O430  1  0.96116784  0.66569149  0.30130631  1
  O  O431  1  0.95487505  0.66368177  0.80672322  1
  F  F432  1  0.03143208  0.00038045  0.19477021  1
  F  F433  1  0.04495839  0.00538781  0.70290741  1
  F  F434  1  0.04159870  0.50285892  0.19839376  1
  F  F435  1  0.04679403  0.49808643  0.70157636  1
  F  F436  1  0.37255071  -0.00302265  0.19913890  1
  F  F437  1  0.37652106  0.00081222  0.70326352  1
  F  F438  1  0.38350553  0.51027571  0.19296488  1
  F  F439  1  0.37999717  0.49985014  0.70150404  1
  F  F440  1  0.71188030  -0.00039805  0.19712233  1
  F  F441  1  0.71099998  -0.00121311  0.70285351  1
  F  F442  1  0.71293457  0.50480896  0.19906792  1
  F  F443  1  0.69908315  0.50150507  0.69997868  1
  F  F444  1  0.21674592  0.23570851  0.19766478  1
  F  F445  1  0.21228559  0.24978910  0.70537823  1
  F  F446  1  0.21210579  0.74741446  0.20046635  1
  F  F447  1  0.21294882  0.75222238  0.70388063  1
  F  F448  1  0.55180710  0.26108730  0.18788997  1
  F  F449  1  0.54325645  0.24987311  0.70141911  1
  F  F450  1  0.54623714  0.74985734  0.20212375  1
  F  F451  1  0.54641912  0.75015988  0.70196097  1
  F  F452  1  0.87672003  0.25564194  0.20158073  1
  F  F453  1  0.87743179  0.24571528  0.70587904  1
  F  F454  1  0.88024853  0.75412238  0.19806524  1
  F  F455  1  0.87796890  0.74991410  0.70338784  1
  F  F456  1  0.29504170  -0.00501999  0.30473553  1
  F  F457  1  0.29121279  0.00034819  0.80016269  1
  F  F458  1  0.28206835  0.51071451  0.29750930  1
  F  F459  1  0.29110596  0.49885091  0.79750475  1
  F  F460  1  0.62261088  -0.00164022  0.29610438  1
  F  F461  1  0.62027869  0.00028199  0.79867283  1
  F  F462  1  0.62381910  0.50480955  0.29407173  1
  F  F463  1  0.61910872  0.50151172  0.79977311  1
  F  F464  1  0.95281346  -0.00019510  0.29582838  1
  F  F465  1  0.94908845  0.00239342  0.80394439  1
  F  F466  1  0.95409857  0.50279860  0.29597516  1
  F  F467  1  0.96825743  0.50251508  0.80117188  1
  F  F468  1  0.11564331  0.24402719  0.30103104  1
  F  F469  1  0.12290722  0.25197402  0.80131818  1
  F  F470  1  0.12081701  0.74776432  0.29439517  1
  F  F471  1  0.12380377  0.74922870  0.79970901  1
  F  F472  1  0.45931773  0.24731051  0.29646689  1
  F  F473  1  0.45577401  0.25149087  0.79734595  1
  F  F474  1  0.45504131  0.74938551  0.29628071  1
  F  F475  1  0.45631297  0.75058728  0.79733778  1
  F  F476  1  0.78841642  0.25595366  0.29746775  1
  F  F477  1  0.78496856  0.24603640  0.80101697  1
  F  F478  1  0.78669892  0.75212612  0.29630819  1
  F  F479  1  0.78641171  0.74973264  0.79773958  1
