# generated using pymatgen
data_K24Na3Li5Mg64Fe17Si79(O5F)48
_symmetry_space_group_name_H-M   'P 1'
_cell_length_a   16.08869040
_cell_length_b   18.57867082
_cell_length_c   20.54605339
_cell_angle_alpha   90.01509211
_cell_angle_beta   100.01744133
_cell_angle_gamma   89.95446019
_symmetry_Int_Tables_number   1
_chemical_formula_structural   K24Na3Li5Mg64Fe17Si79(O5F)48
_chemical_formula_sum   'K24 Na3 Li5 Mg64 Fe17 Si79 O240 F48'
_cell_volume   6047.72079872
_cell_formula_units_Z   1
loop_
 _symmetry_equiv_pos_site_id
 _symmetry_equiv_pos_as_xyz
  1  'x, y, z'
loop_
 _atom_site_type_symbol
 _atom_site_label
 _atom_site_symmetry_multiplicity
 _atom_site_fract_x
 _atom_site_fract_y
 _atom_site_fract_z
 _atom_site_occupancy
  K  K0  1  0.00185687  -0.01154974  -0.00123272  1
  K  K1  1  -0.00538332  0.00628350  0.49773733  1
  K  K2  1  -0.00193126  0.50361781  0.00101285  1
  K  K3  1  -0.01343764  0.50640948  0.50616323  1
  K  K4  1  0.33720913  -0.00922051  -0.00039233  1
  K  K5  1  0.33689018  -0.00503768  0.50381259  1
  K  K6  1  0.33552080  0.50897017  -0.00209163  1
  K  K7  1  0.33821044  0.50841455  0.49531434  1
  K  K8  1  0.66663989  -0.00220494  -0.00080528  1
  K  K9  1  0.67732335  -0.01021680  0.50142085  1
  K  K10  1  0.66164994  0.49627187  -0.01031715  1
  K  K11  1  0.66389406  0.50195694  0.50560540  1
  K  K12  1  0.16675516  0.24907987  -0.00030547  1
  K  K13  1  0.16573067  0.25130772  0.50239741  1
  K  K14  1  0.16337999  0.74099732  0.00868637  1
  K  K15  1  0.16403508  0.74840251  0.49710195  1
  K  K16  1  0.50856937  0.24567432  -0.00593286  1
  K  K17  1  0.49683652  0.25492147  0.50256448  1
  K  K18  1  0.50247351  0.75112957  0.00116628  1
  K  K19  1  0.49338399  0.74734020  0.49676665  1
  K  K20  1  0.82392767  0.25609770  -0.00639035  1
  K  K21  1  0.83308109  0.25345189  0.50356667  1
  K  K22  1  0.83839317  0.75649466  -0.00247854  1
  K  K23  1  0.83478345  0.74579397  0.50623064  1
  Na  Na24  1  0.83065994  0.49945376  0.24961388  1
  Na  Na25  1  0.16776662  0.82923368  0.24961137  1
  Na  Na26  1  0.66830849  0.57978286  0.75241946  1
  Li  Li27  1  0.32578176  0.74850754  0.25112940  1
  Li  Li28  1  0.49724071  0.00141802  0.74765332  1
  Li  Li29  1  0.34093067  0.07948085  0.74923628  1
  Li  Li30  1  0.83019735  0.33751300  0.74880498  1
  Li  Li31  1  0.00204690  0.91196526  0.24964823  1
  Mg  Mg32  1  0.66694760  0.25075618  0.75358339  1
  Mg  Mg33  1  0.66879382  0.75127805  0.74868081  1
  Mg  Mg34  1  0.66697772  0.24942920  0.25080878  1
  Mg  Mg35  1  0.66686486  0.75020033  0.24983800  1
  Mg  Mg36  1  0.83594223  -0.00081515  0.24949415  1
  Mg  Mg37  1  0.17035895  0.00277227  0.74843181  1
  Mg  Mg38  1  0.50065435  0.49733141  0.75738180  1
  Mg  Mg39  1  0.00015701  0.74963575  0.74730520  1
  Mg  Mg40  1  0.16582459  0.50050033  0.74923399  1
  Mg  Mg41  1  0.33549377  0.24601348  0.75232352  1
  Mg  Mg42  1  -0.00274560  0.25328496  0.74643217  1
  Mg  Mg43  1  0.50228047  -0.00166020  0.24632348  1
  Mg  Mg44  1  0.83328719  0.49770732  0.74931495  1
  Mg  Mg45  1  -0.00236278  0.24855409  0.25094936  1
  Mg  Mg46  1  0.33333797  0.24987291  0.25251030  1
  Mg  Mg47  1  0.33413356  0.75237815  0.75105478  1
  Mg  Mg48  1  0.49534369  0.50165864  0.25700070  1
  Mg  Mg49  1  0.83334510  -0.00057753  0.74750421  1
  Mg  Mg50  1  0.16365379  -0.00505612  0.24680830  1
  Mg  Mg51  1  0.00114293  0.74917450  0.24646809  1
  Mg  Mg52  1  0.16700099  0.49992085  0.25096705  1
  Mg  Mg53  1  0.33754043  0.92247581  0.74832989  1
  Mg  Mg54  1  0.82999686  0.33450490  0.24913640  1
  Mg  Mg55  1  0.83266621  0.66435727  0.24898867  1
  Mg  Mg56  1  0.83156452  0.16969626  0.74856905  1
  Mg  Mg57  1  0.00036200  0.58587722  0.74644517  1
  Mg  Mg58  1  0.33231017  0.58823256  0.25355856  1
  Mg  Mg59  1  0.50269911  0.33336111  0.75643126  1
  Mg  Mg60  1  0.33562643  0.41465048  0.75441434  1
  Mg  Mg61  1  0.16887139  0.66611979  0.24772003  1
  Mg  Mg62  1  0.17022857  0.16545966  0.74847022  1
  Mg  Mg63  1  0.49492780  0.66794519  0.25602887  1
  Mg  Mg64  1  0.16490468  0.66591511  0.74944894  1
  Mg  Mg65  1  0.66936252  0.08395663  0.24741446  1
  Mg  Mg66  1  0.49801917  0.83359744  0.24901690  1
  Mg  Mg67  1  0.16649944  0.83622438  0.74530191  1
  Mg  Mg68  1  0.50189042  0.16528717  0.24890394  1
  Mg  Mg69  1  -0.00135314  0.91706976  0.74545295  1
  Mg  Mg70  1  0.66753104  0.91705024  0.74834590  1
  Mg  Mg71  1  0.83268158  0.83668900  0.74693168  1
  Mg  Mg72  1  0.33398561  0.58490522  0.75310403  1
  Mg  Mg73  1  -0.00122179  0.08057322  0.24962844  1
  Mg  Mg74  1  0.66951410  0.41310026  0.75427811  1
  Mg  Mg75  1  -0.00244140  0.41595244  0.74800483  1
  Mg  Mg76  1  -0.00015858  0.58265932  0.24796116  1
  Mg  Mg77  1  -0.00179953  0.41618262  0.24921791  1
  Mg  Mg78  1  0.66364129  0.58463288  0.25299018  1
  Mg  Mg79  1  0.33263474  0.91310736  0.24829641  1
  Mg  Mg80  1  0.49942708  0.16208325  0.75254765  1
  Mg  Mg81  1  0.16771884  0.33315652  0.74989062  1
  Mg  Mg82  1  0.83863888  0.83408537  0.24653714  1
  Mg  Mg83  1  0.33353819  0.41608395  0.25434753  1
  Mg  Mg84  1  -0.00133192  0.08640858  0.74668640  1
  Mg  Mg85  1  0.50180375  0.66680289  0.75268631  1
  Mg  Mg86  1  0.16520916  0.16333982  0.24990909  1
  Mg  Mg87  1  0.66505451  0.08185745  0.75188282  1
  Mg  Mg88  1  0.50317644  0.83734088  0.74958025  1
  Mg  Mg89  1  0.83053207  0.16446340  0.24954199  1
  Mg  Mg90  1  0.49974248  0.33576127  0.25541459  1
  Mg  Mg91  1  0.16538271  0.33222374  0.25058192  1
  Mg  Mg92  1  0.83391750  0.66594130  0.74733311  1
  Mg  Mg93  1  0.66362745  0.41782743  0.25242132  1
  Mg  Mg94  1  0.33362590  0.08243968  0.24884104  1
  Mg  Mg95  1  0.66815485  0.91507426  0.24806220  1
  Fe  Fe96  1  0.19155621  0.57918039  0.11105695  1
  Fe  Fe97  1  0.02490768  0.66941341  0.60544061  1
  Fe  Fe98  1  0.64499526  0.33198302  0.89568510  1
  Fe  Fe99  1  0.30165148  0.67572890  0.39438158  1
  Fe  Fe100  1  0.97682860  0.66402401  0.88836639  1
  Fe  Fe101  1  0.85296996  0.41082816  0.61001745  1
  Fe  Fe102  1  0.02379194  0.83776084  0.10895470  1
  Fe  Fe103  1  0.47508720  0.41032745  0.39699372  1
  Fe  Fe104  1  0.69036675  0.17083781  0.10782698  1
  Fe  Fe105  1  0.46897241  0.41859506  0.89676873  1
  Fe  Fe106  1  0.52435768  0.91181014  0.10853052  1
  Fe  Fe107  1  0.81224423  0.07965724  0.39025172  1
  Fe  Fe108  1  0.14692518  0.57479683  0.88970479  1
  Fe  Fe109  1  0.86028230  0.92205567  0.60482624  1
  Fe  Fe110  1  0.68849606  0.83003790  0.60543804  1
  Fe  Fe111  1  0.47587356  0.58511639  0.39797526  1
  Fe  Fe112  1  0.81224759  0.91509432  0.88965846  1
  Si  Si113  1  0.68229202  0.32996246  0.61416292  1
  Si  Si114  1  0.35996568  0.33029502  0.61669789  1
  Si  Si115  1  0.85966562  0.41243057  0.11418275  1
  Si  Si116  1  0.31000717  0.84646187  0.38984536  1
  Si  Si117  1  0.30364108  0.32571059  0.88776339  1
  Si  Si118  1  0.35969652  0.66600510  0.11569439  1
  Si  Si119  1  0.14514721  0.40792197  0.88529399  1
  Si  Si120  1  0.81639941  0.91035501  0.38542483  1
  Si  Si121  1  0.52176932  0.41614621  0.61764236  1
  Si  Si122  1  0.68385837  0.16749459  0.61580603  1
  Si  Si123  1  0.97166733  0.66024757  0.38359352  1
  Si  Si124  1  0.97706589  0.33681813  0.88432756  1
  Si  Si125  1  0.13607749  0.92009949  0.38470760  1
  Si  Si126  1  0.64383172  0.67245048  0.38983343  1
  Si  Si127  1  0.02827022  0.16724336  0.61253480  1
  Si  Si128  1  0.02568783  0.16079368  0.11491722  1
  Si  Si129  1  0.64445189  0.15955910  0.88855850  1
  Si  Si130  1  0.14130970  0.08791443  0.88384966  1
  Si  Si131  1  0.64194752  0.16270995  0.38673275  1
  Si  Si132  1  0.64547828  0.32668611  0.38936034  1
  Si  Si133  1  0.97770183  0.17307553  0.38808598  1
  Si  Si134  1  0.85401464  0.09418775  0.61123191  1
  Si  Si135  1  0.19847350  0.92131129  0.10944876  1
  Si  Si136  1  0.36044657  0.17152268  0.11502195  1
  Si  Si137  1  0.80859360  0.58706771  0.88678338  1
  Si  Si138  1  0.85926590  0.08523148  0.11188484  1
  Si  Si139  1  0.47435302  0.59148775  0.89096956  1
  Si  Si140  1  0.19600692  0.08645906  0.11337167  1
  Si  Si141  1  0.64073771  0.66994407  0.88501414  1
  Si  Si142  1  0.01913868  0.66634072  0.10903733  1
  Si  Si143  1  0.52273561  0.57936564  0.62050939  1
  Si  Si144  1  0.64505224  0.83698310  0.38426365  1
  Si  Si145  1  0.20047603  0.91798318  0.61283297  1
  Si  Si146  1  0.02208034  0.32564374  0.11451820  1
  Si  Si147  1  0.35892824  0.16683501  0.61551713  1
  Si  Si148  1  0.47585453  0.08666192  0.38434634  1
  Si  Si149  1  0.52527326  0.91896458  0.61213273  1
  Si  Si150  1  0.19927521  0.58265161  0.61188968  1
  Si  Si151  1  0.97152974  0.33833929  0.38523261  1
  Si  Si152  1  0.52252597  0.42448901  0.11917367  1
  Si  Si153  1  0.18729098  0.40913178  0.11395081  1
  Si  Si154  1  0.81474646  0.08388194  0.88550838  1
  Si  Si155  1  0.63935681  0.83397988  0.88816695  1
  Si  Si156  1  0.80314192  0.41657796  0.38557643  1
  Si  Si157  1  0.69445922  0.66243560  0.11466389  1
  Si  Si158  1  0.13706776  0.08216731  0.38580846  1
  Si  Si159  1  0.47834736  0.92148554  0.38555867  1
  Si  Si160  1  0.98457121  0.83126823  0.88472450  1
  Si  Si161  1  0.03180981  0.84158586  0.60709732  1
  Si  Si162  1  0.85975519  0.57977336  0.11374883  1
  Si  Si163  1  0.47326308  0.91527358  0.88337745  1
  Si  Si164  1  0.36344307  0.83330208  0.61514643  1
  Si  Si165  1  0.36381584  0.66753633  0.61708904  1
  Si  Si166  1  0.85689363  0.92126605  0.11291669  1
  Si  Si167  1  0.30461864  0.15991422  0.38564889  1
  Si  Si168  1  0.13577851  0.58054609  0.38650566  1
  Si  Si169  1  0.03112105  0.33321871  0.61049061  1
  Si  Si170  1  0.30752849  0.67490990  0.88760299  1
  Si  Si171  1  0.97751928  0.82423049  0.38380200  1
  Si  Si172  1  0.35945146  0.33596941  0.11688869  1
  Si  Si173  1  0.68549261  0.66397503  0.61346275  1
  Si  Si174  1  0.19285559  0.08282706  0.61345272  1
  Si  Si175  1  0.14043645  0.92301252  0.88130145  1
  Si  Si176  1  0.68566928  0.34108524  0.11378023  1
  Si  Si177  1  0.52515669  0.58919086  0.11852781  1
  Si  Si178  1  0.69779922  0.82961860  0.11112780  1
  Si  Si179  1  0.97542759  0.17215537  0.88386760  1
  Si  Si180  1  0.35816498  0.83015668  0.11216054  1
  Si  Si181  1  0.80322301  0.58536810  0.38563240  1
  Si  Si182  1  0.47602224  0.07919264  0.88401005  1
  Si  Si183  1  0.30536781  0.84030926  0.88239634  1
  Si  Si184  1  0.29928687  0.32675038  0.38990716  1
  Si  Si185  1  0.31151832  0.16242732  0.88463215  1
  Si  Si186  1  0.85096405  0.58222974  0.60771573  1
  Si  Si187  1  0.52268432  0.08309459  0.61563680  1
  Si  Si188  1  0.52047546  0.08251417  0.10953327  1
  Si  Si189  1  0.81234693  0.42141178  0.88980142  1
  Si  Si190  1  0.13730937  0.41587109  0.38466418  1
  Si  Si191  1  0.19812537  0.41625767  0.61548148  1
  O  O192  1  0.27174550  0.12981256  0.08479428  1
  O  O193  1  0.26971060  0.12460742  0.58438905  1
  O  O194  1  0.28867693  0.61051369  0.07978632  1
  O  O195  1  0.28304223  0.61729680  0.58624757  1
  O  O196  1  0.59835715  0.11056956  0.07573493  1
  O  O197  1  0.60468277  0.11346889  0.58460432  1
  O  O198  1  0.60697313  0.61786784  0.08686003  1
  O  O199  1  0.60872907  0.60306854  0.59440396  1
  O  O200  1  0.94927558  0.10584525  0.08557468  1
  O  O201  1  0.93469725  0.13417031  0.58378619  1
  O  O202  1  0.93598790  0.61340383  0.08097531  1
  O  O203  1  0.92610814  0.61758281  0.57381294  1
  O  O204  1  0.10699650  0.35281452  0.08747582  1
  O  O205  1  0.11220397  0.37207251  0.58413137  1
  O  O206  1  0.11564709  0.87897477  0.07423688  1
  O  O207  1  0.12083397  0.86802700  0.58201705  1
  O  O208  1  0.43825063  0.37552936  0.08980328  1
  O  O209  1  0.43852920  0.36649336  0.58751743  1
  O  O210  1  0.43512038  0.85045763  0.07361082  1
  O  O211  1  0.44058545  0.86857291  0.58389339  1
  O  O212  1  0.76960377  0.37270526  0.08575908  1
  O  O213  1  0.75854001  0.35235398  0.57662263  1
  O  O214  1  0.78007167  0.86374475  0.08463681  1
  O  O215  1  0.77804555  0.85893671  0.56530096  1
  O  O216  1  0.27001591  0.37507239  0.08622477  1
  O  O217  1  0.27412481  0.37510706  0.58572259  1
  O  O218  1  0.27992289  0.88568029  0.08178975  1
  O  O219  1  0.28089417  0.88275707  0.58451870  1
  O  O220  1  0.60620641  0.39755948  0.09037934  1
  O  O221  1  0.59946510  0.38228370  0.58551474  1
  O  O222  1  0.61672116  0.87397686  0.07422259  1
  O  O223  1  0.59847095  0.89461581  0.57259028  1
  O  O224  1  0.93754001  0.37305531  0.08317909  1
  O  O225  1  0.94600908  0.37096037  0.57385479  1
  O  O226  1  0.93441258  0.90179233  0.07619059  1
  O  O227  1  0.96391177  0.90249504  0.57748906  1
  O  O228  1  0.10948539  0.13310292  0.08550924  1
  O  O229  1  0.10157733  0.12150679  0.58190527  1
  O  O230  1  0.09751385  0.63520128  0.07741883  1
  O  O231  1  0.11713512  0.62437638  0.57421519  1
  O  O232  1  0.43867275  0.13784731  0.08489524  1
  O  O233  1  0.43752252  0.13140904  0.58427752  1
  O  O234  1  0.44827502  0.64342410  0.08727177  1
  O  O235  1  0.44560909  0.63488845  0.58915007  1
  O  O236  1  0.79059883  0.14338476  0.07769562  1
  O  O237  1  0.77006708  0.14633475  0.58684367  1
  O  O238  1  0.76923396  0.62011283  0.08450472  1
  O  O239  1  0.76525003  0.63149943  0.58203894  1
  O  O240  1  0.07021370  0.13418791  0.41585841  1
  O  O241  1  0.06253038  0.12567595  0.91356769  1
  O  O242  1  0.04671692  0.60301517  0.41210939  1
  O  O243  1  0.05240822  0.59367143  0.92473907  1
  O  O244  1  0.39350366  0.11794010  0.41401130  1
  O  O245  1  0.39477313  0.11326331  0.91489280  1
  O  O246  1  0.39127877  0.62249108  0.43848635  1
  O  O247  1  0.39887930  0.63703655  0.91749413  1
  O  O248  1  0.71191406  0.10588991  0.42073067  1
  O  O249  1  0.72862781  0.10865599  0.91325786  1
  O  O250  1  0.72888622  0.62332246  0.41891391  1
  O  O251  1  0.71807370  0.61322686  0.90975338  1
  O  O252  1  0.21341167  0.35925113  0.41432949  1
  O  O253  1  0.21010298  0.33942224  0.90828092  1
  O  O254  1  0.23219290  0.89251265  0.41667182  1
  O  O255  1  0.22709807  0.87856180  0.91149827  1
  O  O256  1  0.56695659  0.34630792  0.42472132  1
  O  O257  1  0.55925937  0.36510467  0.93793186  1
  O  O258  1  0.56460900  0.87414815  0.41266052  1
  O  O259  1  0.55174300  0.86179178  0.91399047  1
  O  O260  1  0.89182462  0.37308522  0.41468357  1
  O  O261  1  0.90055325  0.37411607  0.91533404  1
  O  O262  1  0.89464861  0.85391096  0.41334825  1
  O  O263  1  0.90425268  0.85386857  0.91851810  1
  O  O264  1  0.05388037  0.38814107  0.41408715  1
  O  O265  1  0.06097294  0.38364084  0.91606024  1
  O  O266  1  0.06414133  0.87069271  0.41356111  1
  O  O267  1  0.06020598  0.89234196  0.91042966  1
  O  O268  1  0.38022703  0.36810347  0.42853530  1
  O  O269  1  0.37039396  0.38228847  0.92563796  1
  O  O270  1  0.39910634  0.89325616  0.41934911  1
  O  O271  1  0.38977878  0.88694607  0.91289863  1
  O  O272  1  0.72799326  0.37861828  0.41825087  1
  O  O273  1  0.74329271  0.38611349  0.92904021  1
  O  O274  1  0.72944203  0.88464742  0.41194148  1
  O  O275  1  0.71544273  0.88458074  0.92363192  1
  O  O276  1  0.23199087  0.11451368  0.41530128  1
  O  O277  1  0.22870143  0.13135225  0.91470750  1
  O  O278  1  0.20718763  0.63290536  0.42471889  1
  O  O279  1  0.23512678  0.64045984  0.92232207  1
  O  O280  1  0.55239910  0.14229507  0.41319683  1
  O  O281  1  0.56300252  0.12236962  0.91630908  1
  O  O282  1  0.56938447  0.64634345  0.42660006  1
  O  O283  1  0.56027571  0.63940961  0.91665908  1
  O  O284  1  0.90580849  0.13969019  0.42452166  1
  O  O285  1  0.89320578  0.14179446  0.91236085  1
  O  O286  1  0.89042924  0.62963513  0.41463280  1
  O  O287  1  0.87807112  0.64299793  0.92373902  1
  O  O288  1  0.19079756  0.00664835  0.07998482  1
  O  O289  1  0.18906904  0.00070475  0.58259285  1
  O  O290  1  0.16280601  0.48468017  0.07879271  1
  O  O291  1  0.19369871  0.49778165  0.58556272  1
  O  O292  1  0.48925964  0.00478525  0.07892739  1
  O  O293  1  0.49829812  0.00236763  0.58632158  1
  O  O294  1  0.50226659  0.50659390  0.09079961  1
  O  O295  1  0.49935644  0.49816596  0.58980237  1
  O  O296  1  0.82713479  0.00416369  0.08684180  1
  O  O297  1  0.83553981  0.01859254  0.57397938  1
  O  O298  1  0.85029206  0.49548952  0.08700085  1
  O  O299  1  0.83133597  0.50325663  0.57366723  1
  O  O300  1  0.00389281  0.24298781  0.08575655  1
  O  O301  1  0.03343244  0.24883031  0.58292818  1
  O  O302  1  -0.00667189  0.74466577  0.07698693  1
  O  O303  1  0.00981480  0.76399200  0.57219105  1
  O  O304  1  0.34946593  0.25399570  0.08626284  1
  O  O305  1  0.34626933  0.24899944  0.58404911  1
  O  O306  1  0.33117663  0.74737065  0.08775480  1
  O  O307  1  0.34785528  0.75010835  0.58781906  1
  O  O308  1  0.66056266  0.26520260  0.07827730  1
  O  O309  1  0.65230229  0.24727993  0.58739768  1
  O  O310  1  0.68814848  0.74448893  0.08458471  1
  O  O311  1  0.65184162  0.73697210  0.57467447  1
  O  O312  1  0.13017093  0.00213272  0.41775795  1
  O  O313  1  0.15447198  0.00540913  0.91188292  1
  O  O314  1  0.15869110  0.49654473  0.41394027  1
  O  O315  1  0.18524005  0.48075786  0.91897371  1
  O  O316  1  0.49741490  0.00516447  0.41378021  1
  O  O317  1  0.49016166  -0.00320925  0.91430088  1
  O  O318  1  0.50348771  0.49617495  0.43831085  1
  O  O319  1  0.48472977  0.51504969  0.92844293  1
  O  O320  1  0.84388627  -0.01334983  0.42014960  1
  O  O321  1  0.84560324  0.00866631  0.92058757  1
  O  O322  1  0.81542122  0.50066596  0.41155797  1
  O  O323  1  0.82870286  0.50491273  0.91833851  1
  O  O324  1  0.30481991  0.24139383  0.41625040  1
  O  O325  1  0.33033862  0.24344321  0.91592718  1
  O  O326  1  0.31642735  0.77108444  0.42947021  1
  O  O327  1  0.32007354  0.75953694  0.91284328  1
  O  O328  1  0.67400128  0.24368686  0.41306609  1
  O  O329  1  0.66390177  0.23546392  0.92574640  1
  O  O330  1  0.66592629  0.75637420  0.41453236  1
  O  O331  1  0.65901907  0.75097633  0.91756891  1
  O  O332  1  0.99265473  0.25731601  0.41508077  1
  O  O333  1  0.99236886  0.25372279  0.91477836  1
  O  O334  1  0.99504532  0.74146435  0.41367717  1
  O  O335  1  1.02326018  0.75533697  0.91427881  1
  O  O336  1  0.21197280  0.08610376  0.19378440  1
  O  O337  1  0.20623524  0.08418169  0.69275601  1
  O  O338  1  0.21165212  0.57772318  0.20248075  1
  O  O339  1  0.21441971  0.58360736  0.69279295  1
  O  O340  1  0.54122608  0.08451880  0.19156625  1
  O  O341  1  0.54396295  0.08721275  0.69484068  1
  O  O342  1  0.54343832  0.58668598  0.19874826  1
  O  O343  1  0.53098314  0.58018793  0.69966267  1
  O  O344  1  0.87894452  0.08697638  0.19293055  1
  O  O345  1  0.87628375  0.08862615  0.69214468  1
  O  O346  1  0.87906919  0.58665073  0.19297958  1
  O  O347  1  0.87338160  0.58150171  0.68895861  1
  O  O348  1  0.04096999  0.32875805  0.19515380  1
  O  O349  1  0.04656851  0.33261557  0.69135190  1
  O  O350  1  0.03436692  0.83289785  0.19655106  1
  O  O351  1  0.04777211  0.83804336  0.68894889  1
  O  O352  1  0.37464227  0.33215263  0.19737857  1
  O  O353  1  0.37538612  0.32989072  0.69674737  1
  O  O354  1  0.38027851  0.83834595  0.19201967  1
  O  O355  1  0.37819654  0.83439753  0.69531730  1
  O  O356  1  0.70664721  0.33636043  0.19488021  1
  O  O357  1  0.70260758  0.33030745  0.69401063  1
  O  O358  1  0.71110447  0.83114607  0.19222387  1
  O  O359  1  0.70908631  0.83409643  0.69765708  1
  O  O360  1  0.20793728  0.41032387  0.19524278  1
  O  O361  1  0.21344580  0.41492546  0.69602079  1
  O  O362  1  0.21615232  0.92589313  0.18928681  1
  O  O363  1  0.21362286  0.91941872  0.69302559  1
  O  O364  1  0.54016914  0.41874295  0.19942014  1
  O  O365  1  0.54026781  0.41516297  0.69743340  1
  O  O366  1  0.54677635  0.91529076  0.20023054  1
  O  O367  1  0.54574594  0.91417633  0.69205936  1
  O  O368  1  0.88105988  0.40730532  0.19345822  1
  O  O369  1  0.87938488  0.41544115  0.70001875  1
  O  O370  1  0.87216526  0.91900668  0.19319053  1
  O  O371  1  0.88018066  0.91979315  0.69725955  1
  O  O372  1  0.04378947  0.16592417  0.19547896  1
  O  O373  1  0.04608501  0.16689653  0.69284418  1
  O  O374  1  0.03891671  0.66329683  0.19068325  1
  O  O375  1  0.04751897  0.66934156  0.69643717  1
  O  O376  1  0.37601052  0.16834139  0.19571481  1
  O  O377  1  0.37752609  0.16846894  0.69477512  1
  O  O378  1  0.38005124  0.66347370  0.19540957  1
  O  O379  1  0.37729229  0.66825408  0.69763691  1
  O  O380  1  0.70935961  0.16959716  0.19976138  1
  O  O381  1  0.70559384  0.16554260  0.69617791  1
  O  O382  1  0.70976636  0.66469220  0.19505976  1
  O  O383  1  0.71231936  0.67303185  0.69274494  1
  O  O384  1  0.12254336  0.08454817  0.30558249  1
  O  O385  1  0.12336788  0.08719943  0.80360264  1
  O  O386  1  0.11995220  0.57911416  0.30584073  1
  O  O387  1  0.12495470  0.58166809  0.79748949  1
  O  O388  1  0.45627192  0.08509970  0.30376716  1
  O  O389  1  0.45751066  0.08318382  0.80525655  1
  O  O390  1  0.45396679  0.58365942  0.30478183  1
  O  O391  1  0.45523057  0.58599100  0.81001108  1
  O  O392  1  0.79062807  0.08192420  0.29882605  1
  O  O393  1  0.79463111  0.08477481  0.80439767  1
  O  O394  1  0.78287656  0.59002801  0.30634065  1
  O  O395  1  0.80183872  0.58364490  0.80720456  1
  O  O396  1  0.28675338  0.32846098  0.30870876  1
  O  O397  1  0.29064917  0.32895858  0.80641909  1
  O  O398  1  0.29859114  0.84210831  0.31097146  1
  O  O399  1  0.28899874  0.83813560  0.80197276  1
  O  O400  1  0.62416393  0.33160149  0.30804458  1
  O  O401  1  0.62248683  0.33085841  0.80363470  1
  O  O402  1  0.62603265  0.83429426  0.30398178  1
  O  O403  1  0.62269876  0.83459524  0.80739874  1
  O  O404  1  0.95491760  0.33435937  0.30491139  1
  O  O405  1  0.96460148  0.33277749  0.80500883  1
  O  O406  1  0.95544589  0.82556672  0.30458266  1
  O  O407  1  0.96318018  0.83466673  0.80314717  1
  O  O408  1  0.12117352  0.41272341  0.30406069  1
  O  O409  1  0.12432858  0.41293680  0.80396308  1
  O  O410  1  0.12038538  0.92561798  0.30631491  1
  O  O411  1  0.12475058  0.92109991  0.80082224  1
  O  O412  1  0.45312005  0.41429223  0.30422700  1
  O  O413  1  0.45283943  0.41433937  0.80417529  1
  O  O414  1  0.45776069  0.92090292  0.30541097  1
  O  O415  1  0.45518046  0.91440555  0.80382125  1
  O  O416  1  0.78331661  0.40976624  0.30633806  1
  O  O417  1  0.78933113  0.41983827  0.81009449  1
  O  O418  1  0.79409674  0.91322917  0.30437888  1
  O  O419  1  0.78913425  0.91920358  0.79872032  1
  O  O420  1  0.28850152  0.16364425  0.30516224  1
  O  O421  1  0.28885756  0.16605852  0.80508694  1
  O  O422  1  0.28668486  0.66651070  0.30458158  1
  O  O423  1  0.29059528  0.67025276  0.80621527  1
  O  O424  1  0.62150460  0.16439951  0.30558495  1
  O  O425  1  0.62384689  0.16365069  0.80774062  1
  O  O426  1  0.62467418  0.66890059  0.30868808  1
  O  O427  1  0.61890077  0.67557767  0.80580372  1
  O  O428  1  0.95825469  0.16869692  0.30713129  1
  O  O429  1  0.95952483  0.16910049  0.80354224  1
  O  O430  1  0.95279639  0.66218840  0.30343069  1
  O  O431  1  0.95522969  0.66693251  0.79603750  1
  F  F432  1  0.04985854  0.01038806  0.19643939  1
  F  F433  1  0.04836170  0.00448703  0.70021822  1
  F  F434  1  0.04537024  0.49586046  0.19978749  1
  F  F435  1  0.04734845  0.49578228  0.69755458  1
  F  F436  1  0.37982318  0.00260854  0.20169007  1
  F  F437  1  0.37473610  -0.00103669  0.69587139  1
  F  F438  1  0.37513116  0.49767609  0.20408960  1
  F  F439  1  0.37684684  0.50017565  0.70523376  1
  F  F440  1  0.71180653  -0.00209047  0.20048522  1
  F  F441  1  0.71160946  0.00469661  0.69889651  1
  F  F442  1  0.69612685  0.50076305  0.20087869  1
  F  F443  1  0.71452144  0.48810376  0.70045614  1
  F  F444  1  0.21175298  0.24771939  0.20327816  1
  F  F445  1  0.21395420  0.24961400  0.70051250  1
  F  F446  1  0.21113762  0.73984787  0.19383171  1
  F  F447  1  0.21548040  0.75150502  0.70053931  1
  F  F448  1  0.54314588  0.25233096  0.20475254  1
  F  F449  1  0.54180357  0.24738851  0.70501073  1
  F  F450  1  0.54704019  0.74863272  0.20319462  1
  F  F451  1  0.54228854  0.75092300  0.70216988  1
  F  F452  1  0.87844923  0.24977829  0.20307620  1
  F  F453  1  0.88148201  0.24551342  0.69806590  1
  F  F454  1  0.87572398  0.74682376  0.20004649  1
  F  F455  1  0.87895798  0.75378773  0.69881438  1
  F  F456  1  0.28736191  0.00277978  0.29674065  1
  F  F457  1  0.28596683  -0.00191532  0.79982461  1
  F  F458  1  0.28481582  0.49209586  0.30335824  1
  F  F459  1  0.28744336  0.50012790  0.79826653  1
  F  F460  1  0.62299022  0.00206675  0.29671049  1
  F  F461  1  0.62541061  -0.00087793  0.79752640  1
  F  F462  1  0.61989851  0.50035479  0.30291785  1
  F  F463  1  0.61696680  0.48895716  0.80602042  1
  F  F464  1  0.95386981  0.00459565  0.29861284  1
  F  F465  1  0.95875109  0.00496406  0.79575793  1
  F  F466  1  0.96474213  0.49774691  0.29964377  1
  F  F467  1  0.95857686  0.50130531  0.79491806  1
  F  F468  1  0.12055994  0.24798558  0.29831030  1
  F  F469  1  0.12092867  0.24824677  0.79415810  1
  F  F470  1  0.11417123  0.73624786  0.30090688  1
  F  F471  1  0.12554610  0.75561422  0.79476753  1
  F  F472  1  0.45317754  0.24750485  0.29958577  1
  F  F473  1  0.45428304  0.24687138  0.80153676  1
  F  F474  1  0.46242781  0.75432547  0.30158007  1
  F  F475  1  0.45384282  0.75273427  0.79862934  1
  F  F476  1  0.78969704  0.25165348  0.29910934  1
  F  F477  1  0.78771503  0.24635317  0.79902138  1
  F  F478  1  0.78810225  0.75032819  0.29559935  1
  F  F479  1  0.79043751  0.75049131  0.79705605  1
