# generated using pymatgen
data_K24Na3Li5Mg64Fe17Si79(O5F)48
_symmetry_space_group_name_H-M   'P 1'
_cell_length_a   16.08285182
_cell_length_b   18.58205605
_cell_length_c   20.54661137
_cell_angle_alpha   89.98659317
_cell_angle_beta   100.01033300
_cell_angle_gamma   90.01623692
_symmetry_Int_Tables_number   1
_chemical_formula_structural   K24Na3Li5Mg64Fe17Si79(O5F)48
_chemical_formula_sum   'K24 Na3 Li5 Mg64 Fe17 Si79 O240 F48'
_cell_volume   6046.92593331
_cell_formula_units_Z   1
loop_
 _symmetry_equiv_pos_site_id
 _symmetry_equiv_pos_as_xyz
  1  'x, y, z'
loop_
 _atom_site_type_symbol
 _atom_site_label
 _atom_site_symmetry_multiplicity
 _atom_site_fract_x
 _atom_site_fract_y
 _atom_site_fract_z
 _atom_site_occupancy
  K  K0  1  -0.01364491  -0.00546036  -0.01539885  1
  K  K1  1  0.00252636  0.00294749  0.51019790  1
  K  K2  1  -0.00963085  0.49411564  -0.00348225  1
  K  K3  1  -0.01086631  0.49419115  0.50133141  1
  K  K4  1  0.33099948  -0.00450530  -0.01149443  1
  K  K5  1  0.32824584  0.00124844  0.51107845  1
  K  K6  1  0.33624337  0.50460645  0.00085841  1
  K  K7  1  0.33872464  0.50107733  0.50262795  1
  K  K8  1  0.67198976  -0.00718630  -0.01071213  1
  K  K9  1  0.68445990  0.00125505  0.51827106  1
  K  K10  1  0.67826122  0.50134557  -0.00021023  1
  K  K11  1  0.67081103  0.50000805  0.50294629  1
  K  K12  1  0.16048029  0.24619648  0.00060045  1
  K  K13  1  0.16815528  0.24411732  0.50071010  1
  K  K14  1  0.16753533  0.75338258  -0.00701087  1
  K  K15  1  0.17211541  0.75282878  0.50875351  1
  K  K16  1  0.49627688  0.24823396  -0.00145712  1
  K  K17  1  0.50382404  0.24326240  0.50073783  1
  K  K18  1  0.49755937  0.75143491  -0.00855166  1
  K  K19  1  0.50465431  0.75950249  0.50895601  1
  K  K20  1  0.84211173  0.25141188  -0.00738360  1
  K  K21  1  0.83278280  0.24822747  0.50519685  1
  K  K22  1  0.82660147  0.75524623  -0.01111820  1
  K  K23  1  0.83404181  0.75550766  0.51431576  1
  Na  Na24  1  0.83325247  0.00397695  0.74710384  1
  Na  Na25  1  0.33240414  0.07492582  0.74631757  1
  Na  Na26  1  0.83308867  0.66964217  0.75372728  1
  Li  Li27  1  0.33225977  0.75077110  0.74889465  1
  Li  Li28  1  0.16523631  0.00204823  0.25424152  1
  Li  Li29  1  0.33148683  0.91407093  0.74697262  1
  Li  Li30  1  0.33219168  0.59099599  0.75016188  1
  Li  Li31  1  0.83070009  0.16116912  0.74621476  1
  Mg  Mg32  1  0.33551019  0.74902392  0.24759705  1
  Mg  Mg33  1  0.83147134  0.50041754  0.75435534  1
  Mg  Mg34  1  0.66992954  0.24896091  0.75376972  1
  Mg  Mg35  1  0.83388530  -0.00005211  0.24899399  1
  Mg  Mg36  1  0.33189933  0.25085425  0.25074928  1
  Mg  Mg37  1  0.16990581  0.50158790  0.75177910  1
  Mg  Mg38  1  0.49561743  -0.00230365  0.74562163  1
  Mg  Mg39  1  0.66551215  0.75259135  0.74953192  1
  Mg  Mg40  1  0.49430714  0.50237489  0.74925720  1
  Mg  Mg41  1  0.66536410  0.25012644  0.25565839  1
  Mg  Mg42  1  0.66967762  0.75165587  0.24633750  1
  Mg  Mg43  1  0.83420977  0.50015776  0.25133841  1
  Mg  Mg44  1  0.50182373  0.49838443  0.25066298  1
  Mg  Mg45  1  0.49811231  0.00216463  0.25033014  1
  Mg  Mg46  1  0.33210503  0.24748494  0.74754296  1
  Mg  Mg47  1  0.17084017  -0.00371263  0.74890914  1
  Mg  Mg48  1  -0.00571501  0.24814807  0.75012768  1
  Mg  Mg49  1  -0.00126654  0.75081457  0.74979338  1
  Mg  Mg50  1  0.00219138  0.75078660  0.24966118  1
  Mg  Mg51  1  0.16866171  0.49983258  0.24535140  1
  Mg  Mg52  1  0.00100214  0.24904536  0.25077681  1
  Mg  Mg53  1  0.83252509  0.66679060  0.24895354  1
  Mg  Mg54  1  -0.00072026  0.91465189  0.75144333  1
  Mg  Mg55  1  0.83234768  0.83443431  0.24657748  1
  Mg  Mg56  1  0.33512064  0.41551489  0.24850008  1
  Mg  Mg57  1  0.16490085  0.16226904  0.24960512  1
  Mg  Mg58  1  0.33440234  0.58360818  0.24853128  1
  Mg  Mg59  1  0.66924134  0.58584115  0.24994312  1
  Mg  Mg60  1  0.33134674  0.91683754  0.25035217  1
  Mg  Mg61  1  0.49864228  0.33446450  0.25378977  1
  Mg  Mg62  1  0.50130959  0.83617793  0.24744561  1
  Mg  Mg63  1  0.49329276  0.66831733  0.75043243  1
  Mg  Mg64  1  0.00089730  0.58445754  0.24770239  1
  Mg  Mg65  1  0.16503814  0.33411635  0.75060800  1
  Mg  Mg66  1  0.83399765  0.33541458  0.25282387  1
  Mg  Mg67  1  0.83324753  0.33287542  0.75379676  1
  Mg  Mg68  1  0.49964218  0.16502663  0.74896910  1
  Mg  Mg69  1  0.17148543  0.66693488  0.74891688  1
  Mg  Mg70  1  0.00050374  0.41429629  0.24976343  1
  Mg  Mg71  1  0.49907368  0.33412774  0.75207470  1
  Mg  Mg72  1  0.00427529  0.91798441  0.25090953  1
  Mg  Mg73  1  0.32856316  0.08262365  0.25245941  1
  Mg  Mg74  1  0.66715793  0.41643225  0.75343015  1
  Mg  Mg75  1  0.66577228  0.08541847  0.25165580  1
  Mg  Mg76  1  0.00066050  0.58388479  0.75278680  1
  Mg  Mg77  1  0.49862518  0.16662349  0.25222646  1
  Mg  Mg78  1  0.33184283  0.41838213  0.74909840  1
  Mg  Mg79  1  0.50311143  0.66578510  0.24825568  1
  Mg  Mg80  1  0.66622894  0.91596274  0.74701888  1
  Mg  Mg81  1  0.17094603  0.83154394  0.74662912  1
  Mg  Mg82  1  0.00275327  0.08217590  0.24986116  1
  Mg  Mg83  1  0.66869765  0.08328361  0.74993095  1
  Mg  Mg84  1  0.66522090  0.58517126  0.75084803  1
  Mg  Mg85  1  0.49318066  0.83326420  0.74966659  1
  Mg  Mg86  1  0.83268613  0.83456319  0.74959187  1
  Mg  Mg87  1  -0.00063310  0.08254008  0.74735950  1
  Mg  Mg88  1  0.83356112  0.16590639  0.25248902  1
  Mg  Mg89  1  -0.00076340  0.41577012  0.75373587  1
  Mg  Mg90  1  0.66709792  0.91660762  0.24561567  1
  Mg  Mg91  1  0.16566505  0.33360771  0.24743085  1
  Mg  Mg92  1  0.16812220  0.66499587  0.24769590  1
  Mg  Mg93  1  0.66892317  0.41562379  0.25452097  1
  Mg  Mg94  1  0.16624167  0.16495678  0.74681441  1
  Mg  Mg95  1  0.16842451  0.83489611  0.25147411  1
  Fe  Fe96  1  0.68740925  0.83315708  0.60538861  1
  Fe  Fe97  1  0.98042362  0.83029508  0.89397779  1
  Fe  Fe98  1  0.02913573  0.32861660  0.11030601  1
  Fe  Fe99  1  0.80529055  0.91748742  0.89180761  1
  Fe  Fe100  1  0.97992739  0.33154210  0.89248294  1
  Fe  Fe101  1  0.86480643  0.91688761  0.60595567  1
  Fe  Fe102  1  0.80665356  0.42060145  0.39286057  1
  Fe  Fe103  1  0.64258894  0.16218446  0.39207980  1
  Fe  Fe104  1  0.68750721  0.83550201  0.10514931  1
  Fe  Fe105  1  0.68976783  0.66493249  0.10758774  1
  Fe  Fe106  1  0.69245659  0.16809888  0.61199872  1
  Fe  Fe107  1  0.47540770  0.41779871  0.39217392  1
  Fe  Fe108  1  0.35788166  0.33308995  0.11005995  1
  Fe  Fe109  1  0.80292752  0.41648335  0.89387817  1
  Fe  Fe110  1  0.13996678  0.08164322  0.38995827  1
  Fe  Fe111  1  0.19032334  0.58736517  0.10771570  1
  Fe  Fe112  1  0.19161132  0.08101163  0.60749457  1
  Si  Si113  1  0.52501636  0.08225145  0.61342099  1
  Si  Si114  1  0.68511026  0.66168532  0.61232501  1
  Si  Si115  1  0.47517951  0.08171273  0.88456007  1
  Si  Si116  1  0.19249045  0.58252387  0.61424647  1
  Si  Si117  1  0.03091150  0.82570262  0.61089634  1
  Si  Si118  1  0.80634322  0.58626051  0.88927990  1
  Si  Si119  1  0.30547922  0.33159937  0.88437192  1
  Si  Si120  1  0.51747502  0.91815984  0.61162274  1
  Si  Si121  1  0.97034700  0.16506329  0.38692763  1
  Si  Si122  1  0.36183596  0.83397979  0.11313699  1
  Si  Si123  1  0.63692545  0.66713746  0.88445184  1
  Si  Si124  1  0.63014042  0.33316027  0.89034975  1
  Si  Si125  1  0.85508125  0.08186612  0.11527857  1
  Si  Si126  1  0.19359337  0.41883105  0.11005911  1
  Si  Si127  1  0.14541135  0.08159603  0.88360165  1
  Si  Si128  1  0.81418735  0.91641195  0.38323005  1
  Si  Si129  1  0.36800045  0.66667232  0.11154646  1
  Si  Si130  1  0.97919353  0.66826654  0.38518754  1
  Si  Si131  1  0.02459843  0.67244750  0.11331418  1
  Si  Si132  1  0.98156090  0.16115035  0.88631914  1
  Si  Si133  1  0.69663383  0.33477032  0.11703284  1
  Si  Si134  1  0.52059056  0.08973360  0.11481724  1
  Si  Si135  1  0.52159335  0.92604074  0.11076771  1
  Si  Si136  1  0.31081325  0.66357556  0.38532156  1
  Si  Si137  1  0.97822418  0.83267045  0.38495864  1
  Si  Si138  1  0.46587292  0.08257059  0.38780100  1
  Si  Si139  1  0.80568348  0.09057407  0.88895645  1
  Si  Si140  1  0.46919823  0.91714972  0.88279172  1
  Si  Si141  1  0.30982994  0.82794805  0.38558456  1
  Si  Si142  1  0.68728355  0.33802856  0.61441711  1
  Si  Si143  1  0.97406405  0.33114696  0.38915396  1
  Si  Si144  1  0.30829751  0.66892034  0.88378110  1
  Si  Si145  1  0.02470461  0.33997656  0.61481695  1
  Si  Si146  1  0.85677443  0.41840871  0.61645193  1
  Si  Si147  1  0.52256335  0.41895877  0.61690634  1
  Si  Si148  1  0.02484159  0.83544709  0.11639195  1
  Si  Si149  1  0.19308207  0.41803358  0.61386226  1
  Si  Si150  1  0.86267349  0.91705432  0.11389766  1
  Si  Si151  1  0.46625445  0.41857276  0.88554368  1
  Si  Si152  1  0.51996187  0.58258942  0.61436142  1
  Si  Si153  1  0.98357249  0.66073037  0.88913781  1
  Si  Si154  1  0.52978193  0.41142951  0.11505832  1
  Si  Si155  1  0.14575584  0.91216400  0.38792345  1
  Si  Si156  1  0.14827706  0.58188721  0.88587382  1
  Si  Si157  1  0.36481237  0.16976085  0.61158202  1
  Si  Si158  1  0.30453553  0.17131036  0.38674381  1
  Si  Si159  1  0.86339774  0.58553991  0.11379485  1
  Si  Si160  1  0.86147157  0.41913451  0.11514080  1
  Si  Si161  1  0.30430343  0.33650614  0.38725625  1
  Si  Si162  1  0.48202898  0.58827396  0.38789437  1
  Si  Si163  1  0.13854406  0.41531238  0.38511294  1
  Si  Si164  1  0.80890256  0.07889728  0.38608106  1
  Si  Si165  1  0.63748379  0.16762833  0.88844922  1
  Si  Si166  1  0.47259380  0.58341774  0.88464402  1
  Si  Si167  1  0.85731618  0.58092212  0.61698318  1
  Si  Si168  1  0.86761782  0.09125488  0.60799841  1
  Si  Si169  1  0.30718753  0.83172887  0.88149009  1
  Si  Si170  1  0.64111890  0.33156393  0.39194468  1
  Si  Si171  1  0.35845752  0.33343278  0.61432426  1
  Si  Si172  1  0.64336316  0.84089797  0.38338357  1
  Si  Si173  1  0.69125515  0.16880517  0.11557224  1
  Si  Si174  1  0.19157798  0.90999588  0.61112771  1
  Si  Si175  1  0.35747953  0.66706910  0.61446791  1
  Si  Si176  1  0.30824205  0.16824331  0.88365068  1
  Si  Si177  1  0.19167486  0.07496569  0.11551130  1
  Si  Si178  1  0.47281353  0.91624795  0.38486463  1
  Si  Si179  1  0.14266658  0.58118693  0.38509936  1
  Si  Si180  1  0.81130378  0.59121936  0.38944909  1
  Si  Si181  1  0.02483981  0.66022891  0.61454351  1
  Si  Si182  1  0.64335840  0.67551944  0.38507649  1
  Si  Si183  1  0.02316278  0.15862269  0.11125024  1
  Si  Si184  1  0.14736341  0.91705292  0.88563710  1
  Si  Si185  1  0.52834189  0.57533149  0.11411238  1
  Si  Si186  1  0.14627993  0.41921810  0.88746655  1
  Si  Si187  1  0.35022008  0.16411761  0.11331349  1
  Si  Si188  1  0.19329586  0.90940794  0.11537721  1
  Si  Si189  1  0.02981105  0.17553874  0.61045275  1
  Si  Si190  1  0.63173990  0.83303681  0.88599145  1
  Si  Si191  1  0.35873893  0.83022406  0.61509872  1
  O  O192  1  0.27358349  0.10589442  0.08496855  1
  O  O193  1  0.28720044  0.12017579  0.57775133  1
  O  O194  1  0.28742782  0.62139552  0.07610095  1
  O  O195  1  0.26764083  0.62429993  0.58324403  1
  O  O196  1  0.60254519  0.12490553  0.08698961  1
  O  O197  1  0.60409032  0.10345739  0.57876920  1
  O  O198  1  0.60918246  0.59176367  0.08035471  1
  O  O199  1  0.60186055  0.60921292  0.58300636  1
  O  O200  1  0.93720515  0.10952852  0.08521124  1
  O  O201  1  0.94599512  0.13065541  0.57735163  1
  O  O202  1  0.95139922  0.61144937  0.08869439  1
  O  O203  1  0.93491022  0.61867635  0.58504064  1
  O  O204  1  0.12990281  0.35310627  0.08247802  1
  O  O205  1  0.10190912  0.37986328  0.58357774  1
  O  O206  1  0.11011019  0.85919954  0.08720445  1
  O  O207  1  0.11553043  0.85226402  0.58220888  1
  O  O208  1  0.46039371  0.35425178  0.08039338  1
  O  O209  1  0.43791863  0.37148772  0.58643640  1
  O  O210  1  0.43536892  0.87800791  0.08341471  1
  O  O211  1  0.43352021  0.86835454  0.58143891  1
  O  O212  1  0.77829009  0.36715989  0.08898042  1
  O  O213  1  0.76962430  0.37486526  0.58718871  1
  O  O214  1  0.79104304  0.86246615  0.07949474  1
  O  O215  1  0.76896918  0.86993951  0.56176210  1
  O  O216  1  0.28228657  0.40819172  0.08224015  1
  O  O217  1  0.27021281  0.37749249  0.58472131  1
  O  O218  1  0.27153041  0.87344405  0.08337877  1
  O  O219  1  0.27257693  0.87370538  0.58262051  1
  O  O220  1  0.61806017  0.38879944  0.08791470  1
  O  O221  1  0.60570152  0.39262501  0.58761109  1
  O  O222  1  0.59984169  0.90330661  0.07658347  1
  O  O223  1  0.58998430  0.88932435  0.57251202  1
  O  O224  1  0.93912261  0.39239568  0.08171857  1
  O  O225  1  0.93732157  0.38455688  0.58625869  1
  O  O226  1  0.95316493  0.89613191  0.09040224  1
  O  O227  1  0.95266512  0.87021708  0.57053542  1
  O  O228  1  0.10396605  0.11837253  0.08527535  1
  O  O229  1  0.10656002  0.14820084  0.57543118  1
  O  O230  1  0.10621079  0.65729874  0.07997104  1
  O  O231  1  0.10012297  0.61872683  0.58252974  1
  O  O232  1  0.43758078  0.13859616  0.08580898  1
  O  O233  1  0.44932280  0.14058069  0.58443886  1
  O  O234  1  0.45144447  0.63259237  0.08606958  1
  O  O235  1  0.43442491  0.62817908  0.58174234  1
  O  O236  1  0.76999932  0.13056615  0.08639605  1
  O  O237  1  0.78484191  0.13807336  0.57540220  1
  O  O238  1  0.79081061  0.63882818  0.07820960  1
  O  O239  1  0.76869246  0.62300053  0.58805698  1
  O  O240  1  0.04155407  0.11007417  0.42171414  1
  O  O241  1  0.06333590  0.10697002  0.91569218  1
  O  O242  1  0.06374477  0.61912966  0.41476947  1
  O  O243  1  0.06386133  0.60398495  0.91624232  1
  O  O244  1  0.38235868  0.11510922  0.41405202  1
  O  O245  1  0.39612829  0.12310478  0.91223304  1
  O  O246  1  0.39713777  0.61971571  0.41541355  1
  O  O247  1  0.39637373  0.62423962  0.91496717  1
  O  O248  1  0.72683788  0.09263209  0.41897010  1
  O  O249  1  0.73164097  0.13777565  0.92051033  1
  O  O250  1  0.73038741  0.63156010  0.41518842  1
  O  O251  1  0.73050766  0.63460307  0.91507865  1
  O  O252  1  0.21695719  0.36176234  0.41486077  1
  O  O253  1  0.22543928  0.36352532  0.91417566  1
  O  O254  1  0.22768906  0.85758598  0.41435964  1
  O  O255  1  0.23290683  0.86948966  0.91600159  1
  O  O256  1  0.55332000  0.34473902  0.42020109  1
  O  O257  1  0.54736689  0.36944265  0.91660738  1
  O  O258  1  0.56305731  0.87545064  0.41277838  1
  O  O259  1  0.55312225  0.87157246  0.91603685  1
  O  O260  1  0.90048674  0.36133585  0.42633616  1
  O  O261  1  0.89380494  0.36317429  0.93363692  1
  O  O262  1  0.89356357  0.86215130  0.41167577  1
  O  O263  1  0.89879070  0.86905160  0.93684884  1
  O  O264  1  0.05790942  0.38317660  0.41493158  1
  O  O265  1  0.06873681  0.39762580  0.92277155  1
  O  O266  1  0.06243942  0.87883621  0.41637708  1
  O  O267  1  0.07563709  0.88941656  0.92568044  1
  O  O268  1  0.37469358  0.39264999  0.42246001  1
  O  O269  1  0.38633888  0.38305390  0.91420754  1
  O  O270  1  0.39764806  0.87201952  0.41396942  1
  O  O271  1  0.39218113  0.87859467  0.91323720  1
  O  O272  1  0.70710927  0.39541816  0.42181460  1
  O  O273  1  0.71113424  0.37531342  0.92839497  1
  O  O274  1  0.72901799  0.88806436  0.41032262  1
  O  O275  1  0.71502298  0.87210997  0.92473190  1
  O  O276  1  0.22504250  0.14957912  0.42053224  1
  O  O277  1  0.22956230  0.13195392  0.91443874  1
  O  O278  1  0.23088062  0.62567643  0.41388650  1
  O  O279  1  0.22911127  0.63401404  0.91605013  1
  O  O280  1  0.54502708  0.12981349  0.42241785  1
  O  O281  1  0.56465171  0.12102703  0.91940016  1
  O  O282  1  0.56113139  0.64492593  0.41425696  1
  O  O283  1  0.56403367  0.62106080  0.91518654  1
  O  O284  1  0.88138316  0.14034339  0.41119382  1
  O  O285  1  0.89812828  0.13093090  0.91551292  1
  O  O286  1  0.89706232  0.64078996  0.41544223  1
  O  O287  1  0.89718653  0.62874605  0.91282343  1
  O  O288  1  0.17839428  -0.00827471  0.08684665  1
  O  O289  1  0.17106523  -0.01351021  0.57377590  1
  O  O290  1  0.15147234  0.49539696  0.08144306  1
  O  O291  1  0.18952712  0.49996091  0.58314901  1
  O  O292  1  0.49734081  0.00918068  0.08472212  1
  O  O293  1  0.49112588  0.00141827  0.58717906  1
  O  O294  1  0.49788504  0.49305522  0.08945548  1
  O  O295  1  0.49959429  0.49992180  0.58703728  1
  O  O296  1  0.83589041  -0.00029645  0.08792347  1
  O  O297  1  0.85925453  0.01182799  0.57344359  1
  O  O298  1  0.83895349  0.50231659  0.08920768  1
  O  O299  1  0.84569923  0.49965875  0.58376055  1
  O  O300  1  0.00559829  0.23532518  0.07518390  1
  O  O301  1  0.01183339  0.25995434  0.58320056  1
  O  O302  1  -0.00873435  0.75513026  0.09035949  1
  O  O303  1  0.01777217  0.74086544  0.58285656  1
  O  O304  1  0.32190971  0.24006610  0.07846744  1
  O  O305  1  0.34766403  0.25341259  0.58149616  1
  O  O306  1  0.36020423  0.75146925  0.08479082  1
  O  O307  1  0.34685865  0.74795914  0.58100000  1
  O  O308  1  0.67904145  0.25192656  0.08685266  1
  O  O309  1  0.66488800  0.26244660  0.57793079  1
  O  O310  1  0.64511030  0.74949780  0.06931508  1
  O  O311  1  0.66794546  0.73647532  0.57247503  1
  O  O312  1  0.17141639  -0.01163466  0.42196769  1
  O  O313  1  0.17204195  0.00067001  0.91172678  1
  O  O314  1  0.15529126  0.49864993  0.41505012  1
  O  O315  1  0.17902713  0.50087145  0.91220996  1
  O  O316  1  0.47506073  -0.00225624  0.41406981  1
  O  O317  1  0.47746953  -0.00046448  0.91537389  1
  O  O318  1  0.50681005  0.51241132  0.42388886  1
  O  O319  1  0.47726493  0.50069813  0.91530040  1
  O  O320  1  0.84354961  -0.00305042  0.41030539  1
  O  O321  1  0.81052540  0.01351230  0.92666190  1
  O  O322  1  0.82908569  0.51527692  0.42701161  1
  O  O323  1  0.81284461  0.51131113  0.92991969  1
  O  O324  1  0.33131202  0.25412355  0.41303420  1
  O  O325  1  0.32503087  0.25028036  0.91540521  1
  O  O326  1  0.32344735  0.74556363  0.41542084  1
  O  O327  1  0.32230928  0.75040977  0.91606822  1
  O  O328  1  0.68164225  0.25418111  0.41884669  1
  O  O329  1  0.62995091  0.24942559  0.91783127  1
  O  O330  1  0.65837904  0.75866943  0.41246084  1
  O  O331  1  0.63230461  0.74864654  0.91297599  1
  O  O332  1  0.99552263  0.24766598  0.41433207  1
  O  O333  1  1.00844691  0.23741241  0.92203965  1
  O  O334  1  0.99872771  0.75027954  0.41347517  1
  O  O335  1  1.00756958  0.73565020  0.92750688  1
  O  O336  1  0.21197692  0.08184925  0.19493505  1
  O  O337  1  0.20010345  0.08217684  0.69674928  1
  O  O338  1  0.21351643  0.58516355  0.20028679  1
  O  O339  1  0.20662638  0.58147309  0.69340916  1
  O  O340  1  0.54023260  0.08504167  0.19510184  1
  O  O341  1  0.54157389  0.08475739  0.69425424  1
  O  O342  1  0.54520932  0.58180378  0.19551872  1
  O  O343  1  0.53829314  0.58374184  0.69446600  1
  O  O344  1  0.87424694  0.08421350  0.19589125  1
  O  O345  1  0.88677662  0.09107125  0.68764930  1
  O  O346  1  0.87872515  0.58532625  0.19556934  1
  O  O347  1  0.88042943  0.57623935  0.69600753  1
  O  O348  1  0.04403703  0.33180066  0.20254275  1
  O  O349  1  0.04573945  0.33902690  0.69462406  1
  O  O350  1  0.04610377  0.83373831  0.19715560  1
  O  O351  1  0.04631510  0.82886277  0.69123627  1
  O  O352  1  0.37751563  0.33102332  0.20193089  1
  O  O353  1  0.37510594  0.33435585  0.69475928  1
  O  O354  1  0.37832711  0.83417868  0.19394980  1
  O  O355  1  0.37835046  0.82746104  0.69344021  1
  O  O356  1  0.71071057  0.33148579  0.19738596  1
  O  O357  1  0.70481784  0.33583518  0.69510011  1
  O  O358  1  0.71099277  0.83493247  0.19852013  1
  O  O359  1  0.70770632  0.83156987  0.69679793  1
  O  O360  1  0.21086601  0.41753894  0.19306423  1
  O  O361  1  0.20947502  0.41682884  0.69397962  1
  O  O362  1  0.21464173  0.90878286  0.19501508  1
  O  O363  1  0.20520200  0.91375797  0.69069749  1
  O  O364  1  0.54823223  0.41390603  0.19615402  1
  O  O365  1  0.54021781  0.41698093  0.69727792  1
  O  O366  1  0.54005927  0.92055385  0.19204315  1
  O  O367  1  0.54046336  0.91342995  0.69200904  1
  O  O368  1  0.87888156  0.41750635  0.19627909  1
  O  O369  1  0.87646836  0.41910335  0.69614463  1
  O  O370  1  0.87846045  0.91670513  0.19518626  1
  O  O371  1  0.88364968  0.90980826  0.69535453  1
  O  O372  1  0.04023942  0.16434021  0.19208564  1
  O  O373  1  0.04524646  0.17304850  0.69127932  1
  O  O374  1  0.04465232  0.66892782  0.19506894  1
  O  O375  1  0.04419760  0.66098934  0.69439489  1
  O  O376  1  0.37260869  0.16409197  0.19446838  1
  O  O377  1  0.38187233  0.17521110  0.69146687  1
  O  O378  1  0.38061511  0.66755769  0.19310278  1
  O  O379  1  0.37780396  0.66425631  0.69283412  1
  O  O380  1  0.71056937  0.16719455  0.19579488  1
  O  O381  1  0.70661639  0.16887593  0.70220886  1
  O  O382  1  0.71273334  0.66724786  0.20098474  1
  O  O383  1  0.69663733  0.66525432  0.69189489  1
  O  O384  1  0.11959658  0.08409633  0.29938859  1
  O  O385  1  0.12529007  0.08518446  0.80394807  1
  O  O386  1  0.12357676  0.58344782  0.30504223  1
  O  O387  1  0.12782482  0.58319890  0.80540493  1
  O  O388  1  0.45304757  0.08207745  0.30625863  1
  O  O389  1  0.46495104  0.08329287  0.80575427  1
  O  O390  1  0.46047794  0.58701842  0.30668856  1
  O  O391  1  0.45722523  0.58257594  0.80518979  1
  O  O392  1  0.78969290  0.08127180  0.30452746  1
  O  O393  1  0.78194308  0.08919078  0.81024140  1
  O  O394  1  0.79403931  0.58597479  0.30864210  1
  O  O395  1  0.78315107  0.57718107  0.80965006  1
  O  O396  1  0.28605826  0.33601412  0.30626600  1
  O  O397  1  0.28951504  0.33316530  0.80388705  1
  O  O398  1  0.29339989  0.82992414  0.30511841  1
  O  O399  1  0.28663993  0.82848688  0.80323829  1
  O  O400  1  0.62390334  0.33368007  0.30913388  1
  O  O401  1  0.61804034  0.33542708  0.80945773  1
  O  O402  1  0.62200347  0.83792100  0.30296062  1
  O  O403  1  0.61617719  0.83399597  0.80560231  1
  O  O404  1  0.95524683  0.33342018  0.30819266  1
  O  O405  1  0.95698325  0.33371680  0.80042216  1
  O  O406  1  0.95955806  0.83323153  0.30438243  1
  O  O407  1  0.95767271  0.83052926  0.80222892  1
  O  O408  1  0.12377184  0.41900264  0.30500051  1
  O  O409  1  0.12636012  0.41714541  0.80623816  1
  O  O410  1  0.12423266  0.91056645  0.30759148  1
  O  O411  1  0.12502767  0.91267250  0.80528839  1
  O  O412  1  0.45626497  0.41975867  0.30040685  1
  O  O413  1  0.45249326  0.41748916  0.80518856  1
  O  O414  1  0.45582658  0.91554864  0.30404373  1
  O  O415  1  0.45772047  0.91792596  0.80396305  1
  O  O416  1  0.79073041  0.41827851  0.30091844  1
  O  O417  1  0.78661732  0.41743786  0.80151392  1
  O  O418  1  0.79262550  0.91696098  0.30277578  1
  O  O419  1  0.78285169  0.91242818  0.80245913  1
  O  O420  1  0.28844479  0.16786340  0.30552992  1
  O  O421  1  0.28675699  0.17372216  0.80472447  1
  O  O422  1  0.29324717  0.66675907  0.30509108  1
  O  O423  1  0.28773119  0.66555972  0.80521985  1
  O  O424  1  0.62029781  0.16483915  0.29974899  1
  O  O425  1  0.61881228  0.16784156  0.80849486  1
  O  O426  1  0.62412489  0.67083107  0.30471224  1
  O  O427  1  0.61910365  0.66504275  0.80424652  1
  O  O428  1  0.95556963  0.16568750  0.30542313  1
  O  O429  1  0.96558438  0.16424009  0.80634141  1
  O  O430  1  0.96061093  0.66673248  0.30476375  1
  O  O431  1  0.97105205  0.66505100  0.80925519  1
  F  F432  1  0.03971959  -0.00220000  0.19992208  1
  F  F433  1  0.04746451  -0.00249410  0.70202545  1
  F  F434  1  0.04522434  0.50055377  0.20293124  1
  F  F435  1  0.04707490  0.49917457  0.70458070  1
  F  F436  1  0.37799306  -0.00060073  0.20190363  1
  F  F437  1  0.38371673  -0.00930718  0.69232624  1
  F  F438  1  0.38081245  0.50387476  0.20190649  1
  F  F439  1  0.37861509  0.49333367  0.69679221  1
  F  F440  1  0.71102544  0.00265231  0.20104036  1
  F  F441  1  0.69636786  0.00095083  0.69534145  1
  F  F442  1  0.71304808  0.50179806  0.20374748  1
  F  F443  1  0.70803273  0.50159614  0.70175568  1
  F  F444  1  0.21066979  0.24794148  0.20309399  1
  F  F445  1  0.21150760  0.25397573  0.69938567  1
  F  F446  1  0.21444284  0.75017276  0.20275734  1
  F  F447  1  0.20495713  0.74604691  0.69497278  1
  F  F448  1  0.54427477  0.25106944  0.20376646  1
  F  F449  1  0.54544154  0.25310950  0.70563427  1
  F  F450  1  0.54502363  0.75192212  0.20172365  1
  F  F451  1  0.54244823  0.74901534  0.70196497  1
  F  F452  1  0.87770001  0.24983273  0.20414406  1
  F  F453  1  0.87676357  0.25589959  0.70049856  1
  F  F454  1  0.88152033  0.75008444  0.20377411  1
  F  F455  1  0.88264876  0.75308300  0.69654041  1
  F  F456  1  0.29325684  -0.00313505  0.30020669  1
  F  F457  1  0.28278711  -0.01043623  0.80459155  1
  F  F458  1  0.28950553  0.50040197  0.29839777  1
  F  F459  1  0.28764647  0.49513632  0.79917262  1
  F  F460  1  0.61976118  -0.00152739  0.29557732  1
  F  F461  1  0.61747694  -0.00079943  0.79619702  1
  F  F462  1  0.62351033  0.50290091  0.29866937  1
  F  F463  1  0.61589795  0.50056269  0.79746474  1
  F  F464  1  0.95390447  -0.00108714  0.29785190  1
  F  F465  1  0.96973056  0.00080652  0.80244662  1
  F  F466  1  0.95731405  0.50190843  0.29854495  1
  F  F467  1  0.95602433  0.50030492  0.80086434  1
  F  F468  1  0.12222579  0.24772860  0.29840183  1
  F  F469  1  0.12149683  0.25122298  0.79558566  1
  F  F470  1  0.12463621  0.74802551  0.29870947  1
  F  F471  1  0.12252435  0.74845936  0.79536831  1
  F  F472  1  0.45321372  0.24667114  0.30003418  1
  F  F473  1  0.45237929  0.25125859  0.79923009  1
  F  F474  1  0.45618120  0.75130721  0.29644061  1
  F  F475  1  0.45927162  0.74889693  0.80241452  1
  F  F476  1  0.78889930  0.24963205  0.29898944  1
  F  F477  1  0.78333115  0.26068230  0.80606380  1
  F  F478  1  0.79228607  0.75189452  0.30030163  1
  F  F479  1  0.78052281  0.75659892  0.80349993  1
