# generated using pymatgen
data_K24Na3Li5Mg64Fe17Si79(O5F)48
_symmetry_space_group_name_H-M   'P 1'
_cell_length_a   16.09818973
_cell_length_b   18.59559328
_cell_length_c   20.55316173
_cell_angle_alpha   90.01223682
_cell_angle_beta   100.00131311
_cell_angle_gamma   89.99056422
_symmetry_Int_Tables_number   1
_chemical_formula_structural   K24Na3Li5Mg64Fe17Si79(O5F)48
_chemical_formula_sum   'K24 Na3 Li5 Mg64 Fe17 Si79 O240 F48'
_cell_volume   6059.20170971
_cell_formula_units_Z   1
loop_
 _symmetry_equiv_pos_site_id
 _symmetry_equiv_pos_as_xyz
  1  'x, y, z'
loop_
 _atom_site_type_symbol
 _atom_site_label
 _atom_site_symmetry_multiplicity
 _atom_site_fract_x
 _atom_site_fract_y
 _atom_site_fract_z
 _atom_site_occupancy
  K  K0  1  0.00024722  -0.00678204  0.00654462  1
  K  K1  1  -0.00262596  0.00141399  0.48574162  1
  K  K2  1  0.00355500  0.51006599  0.00098454  1
  K  K3  1  0.00499231  0.50171574  0.50067366  1
  K  K4  1  0.33306746  -0.00309440  0.00869851  1
  K  K5  1  0.32999444  -0.00992360  0.49196241  1
  K  K6  1  0.32946572  0.50954530  -0.00030669  1
  K  K7  1  0.32667984  0.50697936  0.49759245  1
  K  K8  1  0.67330757  -0.00957111  0.00019134  1
  K  K9  1  0.66295388  -0.00717282  0.49637005  1
  K  K10  1  0.66145384  0.50665866  -0.01129553  1
  K  K11  1  0.66771966  0.50675505  0.50659149  1
  K  K12  1  0.17425103  0.25260676  0.00041231  1
  K  K13  1  0.15738164  0.24920831  0.49265706  1
  K  K14  1  0.17905754  0.74927117  0.02336490  1
  K  K15  1  0.16825895  0.75045900  0.49324139  1
  K  K16  1  0.49491237  0.25622228  -0.00423331  1
  K  K17  1  0.51578355  0.25968478  0.50107915  1
  K  K18  1  0.50270690  0.74975272  0.00492547  1
  K  K19  1  0.50948769  0.75065627  0.49864191  1
  K  K20  1  0.82861715  0.24634912  -0.00332206  1
  K  K21  1  0.83041347  0.24005936  0.50414424  1
  K  K22  1  0.82746671  0.75474352  -0.00462808  1
  K  K23  1  0.81632134  0.74903868  0.49978690  1
  Na  Na24  1  0.83205806  0.00010180  0.25646651  1
  Na  Na25  1  0.67128982  0.07852004  0.25448331  1
  Na  Na26  1  0.66815645  0.91568242  0.75558785  1
  Li  Li27  1  0.33001681  0.74811723  0.24718083  1
  Li  Li28  1  0.66415624  0.74808219  0.74915548  1
  Li  Li29  1  0.48835636  0.83290833  0.24840519  1
  Li  Li30  1  0.66386547  0.58984974  0.74650708  1
  Li  Li31  1  0.17540320  0.66797735  0.24808458  1
  Mg  Mg32  1  0.66017874  0.75088541  0.24698601  1
  Mg  Mg33  1  0.16730143  -0.00375443  0.25169367  1
  Mg  Mg34  1  0.66942364  0.24767517  0.25243512  1
  Mg  Mg35  1  0.50462568  0.50171694  0.74559395  1
  Mg  Mg36  1  0.50045813  -0.00213389  0.24988108  1
  Mg  Mg37  1  0.83366283  0.50287401  0.24909638  1
  Mg  Mg38  1  0.33189524  0.25064393  0.75139488  1
  Mg  Mg39  1  -0.00031249  0.24882985  0.25454523  1
  Mg  Mg40  1  0.83022942  0.00008433  0.75620917  1
  Mg  Mg41  1  0.00227426  0.75029810  0.24872503  1
  Mg  Mg42  1  0.83105751  0.50024667  0.74615713  1
  Mg  Mg43  1  -0.00174490  0.74796837  0.74932501  1
  Mg  Mg44  1  0.16930764  0.50079303  0.74880890  1
  Mg  Mg45  1  0.49850408  0.50127506  0.24541662  1
  Mg  Mg46  1  0.16416770  -0.00194868  0.75224498  1
  Mg  Mg47  1  0.66680485  0.25300177  0.74954444  1
  Mg  Mg48  1  -0.00006781  0.25103687  0.75660612  1
  Mg  Mg49  1  0.33449183  0.74997076  0.74648677  1
  Mg  Mg50  1  0.33460885  0.24928912  0.24746571  1
  Mg  Mg51  1  0.16773173  0.50438837  0.24889044  1
  Mg  Mg52  1  0.50105987  -0.00112525  0.75419890  1
  Mg  Mg53  1  0.50004586  0.16585528  0.75280951  1
  Mg  Mg54  1  0.33415079  0.08271512  0.24835264  1
  Mg  Mg55  1  0.32979813  0.58788868  0.24677392  1
  Mg  Mg56  1  0.82711649  0.83096563  0.75318271  1
  Mg  Mg57  1  0.83578741  0.33512612  0.25258493  1
  Mg  Mg58  1  0.16745812  0.33421738  0.24913512  1
  Mg  Mg59  1  0.66835672  0.08434644  0.75469856  1
  Mg  Mg60  1  0.16678364  0.16496933  0.25069186  1
  Mg  Mg61  1  0.33186126  0.08344878  0.75375021  1
  Mg  Mg62  1  0.50335524  0.83213425  0.75087732  1
  Mg  Mg63  1  0.00420303  0.58701577  0.24818081  1
  Mg  Mg64  1  0.16784889  0.66505823  0.74513053  1
  Mg  Mg65  1  0.00202175  0.91540525  0.25112266  1
  Mg  Mg66  1  0.66309934  0.58549303  0.24531252  1
  Mg  Mg67  1  0.00273237  0.41745220  0.25325458  1
  Mg  Mg68  1  -0.00065570  0.58392846  0.74576549  1
  Mg  Mg69  1  0.83266218  0.16568485  0.75575252  1
  Mg  Mg70  1  0.83203209  0.83411169  0.25118219  1
  Mg  Mg71  1  0.50454201  0.16516702  0.25109550  1
  Mg  Mg72  1  0.00064930  0.41563666  0.75217093  1
  Mg  Mg73  1  0.82802159  0.66571167  0.74958040  1
  Mg  Mg74  1  0.33313901  0.41655046  0.24579185  1
  Mg  Mg75  1  0.33379986  0.41424073  0.74937475  1
  Mg  Mg76  1  -0.00427370  0.91449304  0.75194965  1
  Mg  Mg77  1  0.33418743  0.91055116  0.24664724  1
  Mg  Mg78  1  0.49950127  0.33596708  0.74787235  1
  Mg  Mg79  1  0.66499850  0.41868019  0.74645321  1
  Mg  Mg80  1  0.00032472  0.08354519  0.25609543  1
  Mg  Mg81  1  0.83303632  0.66754279  0.24886224  1
  Mg  Mg82  1  0.66263112  0.91523255  0.24876179  1
  Mg  Mg83  1  0.83529282  0.16429191  0.25729927  1
  Mg  Mg84  1  0.16870373  0.33494180  0.75371700  1
  Mg  Mg85  1  0.50685665  0.66785758  0.74672096  1
  Mg  Mg86  1  0.16509737  0.83291938  0.74948692  1
  Mg  Mg87  1  0.50419622  0.33283479  0.24964143  1
  Mg  Mg88  1  0.66866541  0.41657854  0.24906527  1
  Mg  Mg89  1  0.49330425  0.67087557  0.24543847  1
  Mg  Mg90  1  0.16614889  0.16516813  0.75517078  1
  Mg  Mg91  1  0.33483307  0.58406078  0.74567382  1
  Mg  Mg92  1  0.17134983  0.82992003  0.24774317  1
  Mg  Mg93  1  0.83287577  0.33472450  0.74997488  1
  Mg  Mg94  1  0.33420402  0.91568563  0.75192293  1
  Mg  Mg95  1  -0.00146126  0.08386839  0.75596019  1
  Fe  Fe96  1  0.14193095  0.91497763  0.39081594  1
  Fe  Fe97  1  0.31692138  0.83209574  0.39107067  1
  Fe  Fe98  1  0.31343903  0.66662277  0.39016241  1
  Fe  Fe99  1  0.51826528  0.41993756  0.60528100  1
  Fe  Fe100  1  0.18705248  0.58177217  0.10426359  1
  Fe  Fe101  1  0.30456873  0.33201652  0.89174177  1
  Fe  Fe102  1  0.18944890  0.91852986  0.10664582  1
  Fe  Fe103  1  0.64473421  0.16753952  0.39265109  1
  Fe  Fe104  1  0.13841428  0.58384364  0.38911998  1
  Fe  Fe105  1  0.81142969  0.08611475  0.89651237  1
  Fe  Fe106  1  0.36108169  0.66757362  0.10324941  1
  Fe  Fe107  1  0.69132526  0.66801381  0.61045883  1
  Fe  Fe108  1  0.64219079  0.82844960  0.89237576  1
  Fe  Fe109  1  0.19389591  0.58213429  0.60708034  1
  Fe  Fe110  1  0.96919626  0.16565991  0.39560727  1
  Fe  Fe111  1  0.97770543  0.33693749  0.89224953  1
  Fe  Fe112  1  0.69584703  0.33650522  0.60772922  1
  Si  Si113  1  0.03206208  0.32980609  0.61838723  1
  Si  Si114  1  0.36293215  0.67197931  0.61198246  1
  Si  Si115  1  0.47217591  0.08262605  0.88722107  1
  Si  Si116  1  0.14543473  0.58902451  0.88238240  1
  Si  Si117  1  0.36193235  0.33329768  0.11306180  1
  Si  Si118  1  0.47187329  0.41847437  0.88702153  1
  Si  Si119  1  0.01484398  0.66882064  0.10936926  1
  Si  Si120  1  0.19246530  0.41074622  0.61278166  1
  Si  Si121  1  0.63205881  0.66678008  0.38059786  1
  Si  Si122  1  0.14006697  0.07567991  0.88846914  1
  Si  Si123  1  0.18851662  0.08152532  0.61805747  1
  Si  Si124  1  0.69610535  0.33087968  0.11447346  1
  Si  Si125  1  0.98407646  0.16858215  0.89351154  1
  Si  Si126  1  0.47913403  0.41382941  0.38130758  1
  Si  Si127  1  0.18771503  0.91670604  0.61603718  1
  Si  Si128  1  0.01678249  0.83267001  0.10989113  1
  Si  Si129  1  0.85892784  0.08342260  0.62017861  1
  Si  Si130  1  0.86027781  0.08308247  0.11798637  1
  Si  Si131  1  0.30746983  0.83454344  0.88414884  1
  Si  Si132  1  0.97564161  0.82728712  0.88632035  1
  Si  Si133  1  0.69759667  0.16798733  0.11655755  1
  Si  Si134  1  0.85617277  0.91937201  0.61712179  1
  Si  Si135  1  0.02034415  0.83523826  0.61529141  1
  Si  Si136  1  0.81830760  0.91552580  0.89361508  1
  Si  Si137  1  0.63680257  0.33639355  0.88547763  1
  Si  Si138  1  0.64903264  0.33660441  0.38585450  1
  Si  Si139  1  0.80555957  0.41469610  0.88775163  1
  Si  Si140  1  0.85900336  0.41780021  0.11534929  1
  Si  Si141  1  0.81060367  0.57910444  0.88350809  1
  Si  Si142  1  0.47647271  0.92388209  0.38464568  1
  Si  Si143  1  0.02193153  0.33100831  0.11687171  1
  Si  Si144  1  0.96777011  0.66622422  0.38545278  1
  Si  Si145  1  0.85769961  0.91629432  0.11696945  1
  Si  Si146  1  0.31119187  0.67074345  0.88184902  1
  Si  Si147  1  0.86356048  0.58286743  0.60997248  1
  Si  Si148  1  0.02417614  0.16589304  0.62021723  1
  Si  Si149  1  0.64350504  0.66198554  0.88625678  1
  Si  Si150  1  0.14743444  0.41247203  0.38654311  1
  Si  Si151  1  0.31093366  0.16753552  0.38309417  1
  Si  Si152  1  0.63516989  0.83220804  0.38136069  1
  Si  Si153  1  0.36268140  0.16759945  0.11288592  1
  Si  Si154  1  0.30566453  0.16008265  0.89065687  1
  Si  Si155  1  0.69276515  0.66781265  0.11250894  1
  Si  Si156  1  0.53015016  0.92221635  0.11259344  1
  Si  Si157  1  0.97006152  0.83100214  0.38760443  1
  Si  Si158  1  0.80042881  0.59074811  0.38198705  1
  Si  Si159  1  0.47411572  0.08755913  0.38633105  1
  Si  Si160  1  0.52794687  0.08566863  0.11440251  1
  Si  Si161  1  0.36483572  0.84082382  0.10515529  1
  Si  Si162  1  0.97546814  0.66233067  0.88381992  1
  Si  Si163  1  0.68878854  0.16359582  0.61592027  1
  Si  Si164  1  0.35443305  0.16233512  0.61711623  1
  Si  Si165  1  0.47473851  0.57603564  0.38264411  1
  Si  Si166  1  0.97366779  0.33860406  0.38993804  1
  Si  Si167  1  0.19023936  0.09139090  0.11144171  1
  Si  Si168  1  0.35550798  0.83672455  0.61504453  1
  Si  Si169  1  0.13972687  0.91022347  0.88567965  1
  Si  Si170  1  0.47234220  0.91710056  0.88929611  1
  Si  Si171  1  0.18894727  0.40923004  0.11065308  1
  Si  Si172  1  0.13966300  0.42577765  0.88879265  1
  Si  Si173  1  0.80203944  0.90690294  0.38633334  1
  Si  Si174  1  0.63544913  0.17003385  0.88980450  1
  Si  Si175  1  0.69186821  0.83378918  0.11446247  1
  Si  Si176  1  0.52040934  0.91794252  0.61678737  1
  Si  Si177  1  0.31366527  0.33155572  0.38224845  1
  Si  Si178  1  0.80862120  0.42671766  0.38471584  1
  Si  Si179  1  0.80862673  0.07563992  0.39793444  1
  Si  Si180  1  0.86961599  0.41601099  0.61172568  1
  Si  Si181  1  0.53027670  0.41369914  0.11283058  1
  Si  Si182  1  0.02223997  0.16760412  0.11651013  1
  Si  Si183  1  0.14729954  0.08800196  0.39010732  1
  Si  Si184  1  0.35673574  0.32621589  0.61149744  1
  Si  Si185  1  0.52227363  0.08203665  0.61730855  1
  Si  Si186  1  0.47513317  0.58412616  0.88228937  1
  Si  Si187  1  0.85566287  0.58328852  0.11270670  1
  Si  Si188  1  0.02608808  0.67098420  0.61109484  1
  Si  Si189  1  0.69057812  0.83680776  0.61343178  1
  Si  Si190  1  0.53022473  0.57898630  0.10791654  1
  Si  Si191  1  0.51921691  0.58732253  0.60951302  1
  O  O192  1  0.26988916  0.13283403  0.08352628  1
  O  O193  1  0.27090286  0.11188308  0.58941899  1
  O  O194  1  0.26466994  0.62225565  0.05851960  1
  O  O195  1  0.29035038  0.61694460  0.57846004  1
  O  O196  1  0.60473225  0.13130218  0.08873201  1
  O  O197  1  0.60413433  0.11315804  0.58904576  1
  O  O198  1  0.61016793  0.61993262  0.08169576  1
  O  O199  1  0.60055935  0.60752517  0.57596073  1
  O  O200  1  0.94007717  0.11726149  0.08626856  1
  O  O201  1  0.93811975  0.12120187  0.59151502  1
  O  O202  1  0.92979264  0.61896029  0.07915232  1
  O  O203  1  0.94631304  0.61811321  0.58330424  1
  O  O204  1  0.10575409  0.35540059  0.08722387  1
  O  O205  1  0.11616253  0.35141909  0.58827312  1
  O  O206  1  0.09057654  0.86446305  0.07374146  1
  O  O207  1  0.10232568  0.86991456  0.58765721  1
  O  O208  1  0.43800674  0.37626754  0.08434214  1
  O  O209  1  0.43282920  0.34947021  0.57517473  1
  O  O210  1  0.44176635  0.88649603  0.07640891  1
  O  O211  1  0.43428345  0.87239818  0.58489418  1
  O  O212  1  0.77209846  0.37308816  0.08518204  1
  O  O213  1  0.79515473  0.36494792  0.57537651  1
  O  O214  1  0.76962777  0.87307000  0.08569883  1
  O  O215  1  0.76770111  0.88122792  0.58365240  1
  O  O216  1  0.26993507  0.36867188  0.08397896  1
  O  O217  1  0.27329051  0.37614935  0.58441266  1
  O  O218  1  0.27849753  0.88172341  0.06860438  1
  O  O219  1  0.26970903  0.88529270  0.58816728  1
  O  O220  1  0.60379698  0.36706159  0.08435527  1
  O  O221  1  0.60938464  0.39415911  0.56577654  1
  O  O222  1  0.60614636  0.87824435  0.08365803  1
  O  O223  1  0.60318583  0.88652019  0.58955727  1
  O  O224  1  0.93981724  0.38239069  0.08755869  1
  O  O225  1  0.95752179  0.38592169  0.58812452  1
  O  O226  1  0.93112073  0.88121842  0.08072733  1
  O  O227  1  0.93627048  0.88344861  0.58774842  1
  O  O228  1  0.10568238  0.14285977  0.08593360  1
  O  O229  1  0.10457919  0.13063655  0.59073160  1
  O  O230  1  0.08776554  0.63635490  0.07344071  1
  O  O231  1  0.10566563  0.64783654  0.57831024  1
  O  O232  1  0.43690703  0.12532896  0.08134136  1
  O  O233  1  0.43624880  0.12955473  0.58882269  1
  O  O234  1  0.44587672  0.61387040  0.06829394  1
  O  O235  1  0.45063443  0.65386748  0.58587343  1
  O  O236  1  0.77219833  0.12587614  0.08557927  1
  O  O237  1  0.77106445  0.12493880  0.59090670  1
  O  O238  1  0.77004974  0.62889337  0.08264387  1
  O  O239  1  0.78200115  0.62591125  0.57353710  1
  O  O240  1  0.07354943  0.12160834  0.42614147  1
  O  O241  1  0.05981597  0.10704557  0.91778710  1
  O  O242  1  0.03577420  0.60860443  0.41972317  1
  O  O243  1  0.06291401  0.61770959  0.91251111  1
  O  O244  1  0.38447616  0.10956574  0.41201630  1
  O  O245  1  0.38820625  0.10830306  0.91648892  1
  O  O246  1  0.39623516  0.59392375  0.41769058  1
  O  O247  1  0.39477718  0.62200456  0.91043713  1
  O  O248  1  0.72616627  0.09930576  0.42946853  1
  O  O249  1  0.71467427  0.12417268  0.92709546  1
  O  O250  1  0.71794486  0.62047063  0.41042206  1
  O  O251  1  0.72915554  0.61119177  0.91236019  1
  O  O252  1  0.22934289  0.35714565  0.41110371  1
  O  O253  1  0.21245597  0.37093322  0.92400853  1
  O  O254  1  0.22858950  0.85952229  0.43417688  1
  O  O255  1  0.22329159  0.86150921  0.91249249  1
  O  O256  1  0.56003641  0.36207085  0.40938486  1
  O  O257  1  0.56045690  0.37494899  0.91624063  1
  O  O258  1  0.56070307  0.87298877  0.41206385  1
  O  O259  1  0.54727830  0.86768696  0.92636734  1
  O  O260  1  0.89759691  0.38659508  0.41503751  1
  O  O261  1  0.87896365  0.36213556  0.92490721  1
  O  O262  1  0.88237204  0.85420524  0.41508447  1
  O  O263  1  0.90016942  0.86054285  0.92011437  1
  O  O264  1  0.06558512  0.37820132  0.41542923  1
  O  O265  1  0.05341847  0.41301568  0.91786662  1
  O  O266  1  0.04316193  0.88386608  0.42357123  1
  O  O267  1  0.06141898  0.87434369  0.91489507  1
  O  O268  1  0.39585211  0.38288508  0.40988820  1
  O  O269  1  0.40207357  0.38433510  0.92592525  1
  O  O270  1  0.40319094  0.89964383  0.42398287  1
  O  O271  1  0.38262899  0.89130463  0.91292324  1
  O  O272  1  0.72492700  0.39641084  0.41127975  1
  O  O273  1  0.71934737  0.38583241  0.91440028  1
  O  O274  1  0.72267337  0.87298738  0.41781748  1
  O  O275  1  0.73914883  0.88494900  0.92458057  1
  O  O276  1  0.22729774  0.14591489  0.41322566  1
  O  O277  1  0.22613508  0.12030255  0.91787713  1
  O  O278  1  0.22032910  0.64539165  0.42884915  1
  O  O279  1  0.22714544  0.64118292  0.90886056  1
  O  O280  1  0.54238054  0.14520168  0.42184184  1
  O  O281  1  0.54904233  0.13858061  0.91522841  1
  O  O282  1  0.55618091  0.62885089  0.41111528  1
  O  O283  1  0.56334390  0.62304163  0.91607794  1
  O  O284  1  0.89244141  0.11614864  0.43899735  1
  O  O285  1  0.90344313  0.14788759  0.92717320  1
  O  O286  1  0.87685093  0.64578781  0.41002151  1
  O  O287  1  0.89786358  0.62511548  0.91480919  1
  O  O288  1  0.17432033  0.01564306  0.07358070  1
  O  O289  1  0.16989564  -0.00031517  0.58891786  1
  O  O290  1  0.16908549  0.48387252  0.07248901  1
  O  O291  1  0.16607019  0.48682532  0.57763103  1
  O  O292  1  0.52919428  0.00524637  0.08132510  1
  O  O293  1  0.50433206  0.00066137  0.58697855  1
  O  O294  1  0.53462551  0.49395751  0.08167952  1
  O  O295  1  0.47746976  0.51215593  0.57841554  1
  O  O296  1  0.84609873  0.00021587  0.09015890  1
  O  O297  1  0.85111141  0.00223370  0.58917678  1
  O  O298  1  0.84318489  0.49954992  0.08532827  1
  O  O299  1  0.85947675  0.49884119  0.58264271  1
  O  O300  1  -0.00316381  0.24964625  0.08880605  1
  O  O301  1  0.00847143  0.24755079  0.59076908  1
  O  O302  1  -0.00914732  0.75092444  0.08101497  1
  O  O303  1  0.00037273  0.75442072  0.58595626  1
  O  O304  1  0.36206340  0.25070979  0.08395341  1
  O  O305  1  0.32993671  0.24223899  0.58710208  1
  O  O306  1  0.36607813  0.76178467  0.07077879  1
  O  O307  1  0.33613938  0.75544644  0.58737820  1
  O  O308  1  0.69287607  0.24966092  0.08320056  1
  O  O309  1  0.67333770  0.23947584  0.57864079  1
  O  O310  1  0.68261886  0.75069734  0.08410565  1
  O  O311  1  0.67683360  0.76245130  0.57204325  1
  O  O312  1  0.17364500  0.01010403  0.42191577  1
  O  O313  1  0.15591733  -0.00773683  0.91462578  1
  O  O314  1  0.16961724  0.48847846  0.42122945  1
  O  O315  1  0.17186345  0.50897555  0.91104656  1
  O  O316  1  0.50332701  0.00656724  0.41315565  1
  O  O317  1  0.49175958  0.00114427  0.91579945  1
  O  O318  1  0.50629191  0.49387374  0.40894938  1
  O  O319  1  0.48517325  0.50238972  0.91294148  1
  O  O320  1  0.82309204  -0.01228696  0.41659422  1
  O  O321  1  0.84465599  -0.00635054  0.92758208  1
  O  O322  1  0.82187601  0.50970106  0.41214557  1
  O  O323  1  0.82366349  0.49780318  0.91647014  1
  O  O324  1  0.33848431  0.24970263  0.41004524  1
  O  O325  1  0.32180836  0.23692273  0.92646125  1
  O  O326  1  0.35997750  0.74810897  0.43150985  1
  O  O327  1  0.33068809  0.75274972  0.91126881  1
  O  O328  1  0.67897055  0.26229343  0.42210091  1
  O  O329  1  0.64607148  0.25449817  0.91737877  1
  O  O330  1  0.64400334  0.74863542  0.41073708  1
  O  O331  1  0.66260875  0.73535839  0.92873044  1
  O  O332  1  0.97628416  0.26235630  0.42719049  1
  O  O333  1  1.02268227  0.24573434  0.92099097  1
  O  O334  1  0.99014221  0.74778724  0.41448705  1
  O  O335  1  0.99036191  0.74433012  0.91349602  1
  O  O336  1  0.21014228  0.08820406  0.19222914  1
  O  O337  1  0.20763574  0.08169039  0.69874161  1
  O  O338  1  0.21311422  0.57639281  0.19396805  1
  O  O339  1  0.21268052  0.58273842  0.69931393  1
  O  O340  1  0.53459999  0.08396320  0.19301637  1
  O  O341  1  0.53967765  0.08372636  0.69786148  1
  O  O342  1  0.54503188  0.57904532  0.18865829  1
  O  O343  1  0.53732581  0.58476079  0.69051385  1
  O  O344  1  0.88060894  0.09049892  0.19673620  1
  O  O345  1  0.87948370  0.08341059  0.70048530  1
  O  O346  1  0.87326462  0.58328258  0.19312627  1
  O  O347  1  0.87883604  0.58389231  0.69105262  1
  O  O348  1  0.04102415  0.33317529  0.19744728  1
  O  O349  1  0.04838366  0.33074601  0.69879966  1
  O  O350  1  0.03651167  0.83330594  0.19025742  1
  O  O351  1  0.04138063  0.83476118  0.69597908  1
  O  O352  1  0.37947481  0.33275366  0.19326247  1
  O  O353  1  0.37630801  0.32910072  0.69273768  1
  O  O354  1  0.37863530  0.84186033  0.18449103  1
  O  O355  1  0.37337918  0.83703030  0.69569730  1
  O  O356  1  0.71313157  0.33460111  0.19471860  1
  O  O357  1  0.71257678  0.33346582  0.70066999  1
  O  O358  1  0.70906770  0.83016224  0.19410352  1
  O  O359  1  0.71679676  0.83088605  0.69192633  1
  O  O360  1  0.20944215  0.41187746  0.19163820  1
  O  O361  1  0.20982639  0.41479134  0.69389095  1
  O  O362  1  0.21187421  0.91997276  0.19708698  1
  O  O363  1  0.20675823  0.91700204  0.69674457  1
  O  O364  1  0.54694207  0.41445994  0.19319075  1
  O  O365  1  0.54237339  0.41532406  0.69812854  1
  O  O366  1  0.54421471  0.92136443  0.19165498  1
  O  O367  1  0.53051342  0.91943179  0.69596750  1
  O  O368  1  0.87605993  0.41733583  0.19572255  1
  O  O369  1  0.88021595  0.41669066  0.69256713  1
  O  O370  1  0.88026843  0.90981603  0.19585777  1
  O  O371  1  0.87562890  0.91689210  0.69759138  1
  O  O372  1  0.04408442  0.16774505  0.19673899  1
  O  O373  1  0.04420416  0.16485265  0.70072961  1
  O  O374  1  0.02784740  0.66736139  0.18895038  1
  O  O375  1  0.04364883  0.66888695  0.69250595  1
  O  O376  1  0.37886662  0.16802202  0.19314324  1
  O  O377  1  0.37320831  0.16374611  0.69789888  1
  O  O378  1  0.37986117  0.65984138  0.19311759  1
  O  O379  1  0.37609777  0.66880842  0.69318163  1
  O  O380  1  0.71928260  0.17421217  0.19545508  1
  O  O381  1  0.70673625  0.16727088  0.69685490  1
  O  O382  1  0.71086198  0.66566570  0.19268320  1
  O  O383  1  0.71332701  0.66802876  0.69940077  1
  O  O384  1  0.12689848  0.08681998  0.30825162  1
  O  O385  1  0.12336946  0.07964151  0.80765681  1
  O  O386  1  0.11822927  0.58001473  0.29830025  1
  O  O387  1  0.12277233  0.58706153  0.80202202  1
  O  O388  1  0.45588754  0.08750480  0.30518653  1
  O  O389  1  0.45323791  0.08386646  0.80657068  1
  O  O390  1  0.45894367  0.57879442  0.30179752  1
  O  O391  1  0.45663256  0.58436452  0.80209536  1
  O  O392  1  0.79936624  0.09180674  0.31990763  1
  O  O393  1  0.78929605  0.08506158  0.80463798  1
  O  O394  1  0.78526635  0.58518091  0.30141699  1
  O  O395  1  0.79942746  0.57985721  0.80447558  1
  O  O396  1  0.29305136  0.33253253  0.30155897  1
  O  O397  1  0.28871523  0.33191728  0.79968944  1
  O  O398  1  0.29042324  0.83395471  0.30038523  1
  O  O399  1  0.28785671  0.83425376  0.80346158  1
  O  O400  1  0.62890824  0.33625264  0.30434634  1
  O  O401  1  0.61985324  0.33233909  0.80566139  1
  O  O402  1  0.62358314  0.83090547  0.30216605  1
  O  O403  1  0.61599459  0.82544207  0.80455415  1
  O  O404  1  0.95668322  0.33661354  0.30857297  1
  O  O405  1  0.95471482  0.33443426  0.80005094  1
  O  O406  1  0.95419843  0.83180996  0.30658723  1
  O  O407  1  0.95952752  0.83069408  0.80585709  1
  O  O408  1  0.12597255  0.41353870  0.30523369  1
  O  O409  1  0.12526639  0.41954698  0.80696747  1
  O  O410  1  0.12146920  0.91416427  0.29885115  1
  O  O411  1  0.12135514  0.91369006  0.80500233  1
  O  O412  1  0.45854660  0.41409954  0.30056830  1
  O  O413  1  0.45331922  0.41442761  0.80652889  1
  O  O414  1  0.45273331  0.92285474  0.30491506  1
  O  O415  1  0.45447565  0.91735998  0.80819865  1
  O  O416  1  0.79147862  0.42134052  0.30389441  1
  O  O417  1  0.79197375  0.41635530  0.80715756  1
  O  O418  1  0.78181763  0.90562896  0.30703626  1
  O  O419  1  0.80519021  0.91642166  0.81305831  1
  O  O420  1  0.29186728  0.16822347  0.30224127  1
  O  O421  1  0.28806301  0.16330375  0.80939282  1
  O  O422  1  0.29091530  0.66440500  0.30118412  1
  O  O423  1  0.29158294  0.67003102  0.80161874  1
  O  O424  1  0.61907547  0.17512814  0.30223454  1
  O  O425  1  0.62112776  0.16920586  0.80884021  1
  O  O426  1  0.61973227  0.66481227  0.30037408  1
  O  O427  1  0.61951413  0.66497288  0.80741723  1
  O  O428  1  0.95699294  0.16890761  0.30378578  1
  O  O429  1  0.96123807  0.16586408  0.81156136  1
  O  O430  1  0.95251542  0.66593796  0.30424638  1
  O  O431  1  0.95884366  0.66398762  0.80341882  1
  F  F432  1  0.04490673  0.00491835  0.20169027  1
  F  F433  1  0.04379205  -0.00042917  0.70426065  1
  F  F434  1  0.04123291  0.49546032  0.19951128  1
  F  F435  1  0.04724593  0.49885625  0.70192374  1
  F  F436  1  0.37880821  0.00386670  0.19977035  1
  F  F437  1  0.37518884  0.00125994  0.70517606  1
  F  F438  1  0.38105299  0.49392789  0.19640772  1
  F  F439  1  0.37864762  0.49746918  0.70267709  1
  F  F440  1  0.70521112  -0.01209557  0.19303814  1
  F  F441  1  0.71514827  0.00821297  0.70176205  1
  F  F442  1  0.71282882  0.49961005  0.19886509  1
  F  F443  1  0.71627640  0.49402809  0.69790758  1
  F  F444  1  0.21207280  0.24996439  0.20089032  1
  F  F445  1  0.20976697  0.24420240  0.70358311  1
  F  F446  1  0.20264378  0.75266097  0.19140674  1
  F  F447  1  0.21060804  0.75296779  0.69991292  1
  F  F448  1  0.54688268  0.25352596  0.19804065  1
  F  F449  1  0.54302906  0.24733638  0.70350135  1
  F  F450  1  0.55030712  0.73953538  0.19090117  1
  F  F451  1  0.53368864  0.75232509  0.69617219  1
  F  F452  1  0.88005713  0.25524623  0.20356572  1
  F  F453  1  0.87990081  0.24472629  0.70466670  1
  F  F454  1  0.87537488  0.74999207  0.20211801  1
  F  F455  1  0.88077031  0.75061224  0.70226366  1
  F  F456  1  0.28829116  0.00526401  0.29685490  1
  F  F457  1  0.28514855  -0.00145729  0.80026205  1
  F  F458  1  0.29043867  0.49442026  0.29511374  1
  F  F459  1  0.29062853  0.49920306  0.79813178  1
  F  F460  1  0.61570706  -0.01068092  0.30284141  1
  F  F461  1  0.61507609  0.01129947  0.80511905  1
  F  F462  1  0.62186562  0.50027290  0.29358378  1
  F  F463  1  0.62065000  0.49716574  0.79856484  1
  F  F464  1  0.96844628  -0.00125459  0.30391374  1
  F  F465  1  0.95778085  -0.00143526  0.80105719  1
  F  F466  1  0.95233773  0.50093358  0.29638034  1
  F  F467  1  0.95485758  0.50171482  0.79446781  1
  F  F468  1  0.12386602  0.25125161  0.29783543  1
  F  F469  1  0.12391186  0.24866505  0.80164312  1
  F  F470  1  0.11666913  0.75324626  0.29585210  1
  F  F471  1  0.12168652  0.74926849  0.79598968  1
  F  F472  1  0.45452717  0.25186662  0.29493422  1
  F  F473  1  0.45297305  0.24915752  0.79855261  1
  F  F474  1  0.46275185  0.75008803  0.29644633  1
  F  F475  1  0.45072633  0.75033970  0.79716779  1
  F  F476  1  0.79065454  0.25546282  0.30044601  1
  F  F477  1  0.78784647  0.24938709  0.80091770  1
  F  F478  1  0.78347035  0.74685768  0.29625306  1
  F  F479  1  0.80359083  0.74831397  0.80615563  1
