# generated using pymatgen
data_K24Na3Li5Mg64Fe17Si79(O5F)48
_symmetry_space_group_name_H-M   'P 1'
_cell_length_a   16.08281033
_cell_length_b   18.58352918
_cell_length_c   20.54646607
_cell_angle_alpha   89.98442214
_cell_angle_beta   100.01865491
_cell_angle_gamma   90.02419902
_symmetry_Int_Tables_number   1
_chemical_formula_structural   K24Na3Li5Mg64Fe17Si79(O5F)48
_chemical_formula_sum   'K24 Na3 Li5 Mg64 Fe17 Si79 O240 F48'
_cell_volume   6047.19153153
_cell_formula_units_Z   1
loop_
 _symmetry_equiv_pos_site_id
 _symmetry_equiv_pos_as_xyz
  1  'x, y, z'
loop_
 _atom_site_type_symbol
 _atom_site_label
 _atom_site_symmetry_multiplicity
 _atom_site_fract_x
 _atom_site_fract_y
 _atom_site_fract_z
 _atom_site_occupancy
  K  K0  1  -0.01277139  -0.00006694  -0.00098220  1
  K  K1  1  0.00159537  0.00416554  0.49930143  1
  K  K2  1  -0.00013313  0.49532771  -0.00159946  1
  K  K3  1  -0.00038739  0.50181750  0.49791249  1
  K  K4  1  0.33721084  -0.00472133  -0.00017980  1
  K  K5  1  0.33257429  -0.01048834  0.49595151  1
  K  K6  1  0.32708314  0.50404066  -0.00088626  1
  K  K7  1  0.32667729  0.50061376  0.50226077  1
  K  K8  1  0.66710531  0.00446040  0.00886661  1
  K  K9  1  0.66923794  -0.00685102  0.49806845  1
  K  K10  1  0.66594401  0.49794748  0.00520453  1
  K  K11  1  0.68026435  0.49754911  0.49917987  1
  K  K12  1  0.16274288  0.24851162  -0.00210781  1
  K  K13  1  0.16841311  0.25338785  0.49884618  1
  K  K14  1  0.16298590  0.74018603  -0.00041580  1
  K  K15  1  0.17184217  0.74532679  0.49732665  1
  K  K16  1  0.50846322  0.25569742  0.00320165  1
  K  K17  1  0.50998061  0.25410828  0.49896865  1
  K  K18  1  0.50596368  0.74910264  0.00543183  1
  K  K19  1  0.50335579  0.75222623  0.49896119  1
  K  K20  1  0.81281351  0.25818617  0.00188358  1
  K  K21  1  0.82468016  0.25801287  0.49996110  1
  K  K22  1  0.82618707  0.74454678  0.00316256  1
  K  K23  1  0.82174491  0.74487985  0.49467275  1
  Na  Na24  1  0.83244906  -0.00287187  0.74596111  1
  Na  Na25  1  -0.00266411  0.58122783  0.25574691  1
  Na  Na26  1  0.66384613  0.91765065  0.24127086  1
  Li  Li27  1  0.66855648  0.25309853  0.24620069  1
  Li  Li28  1  0.16659162  -0.00035675  0.74987038  1
  Li  Li29  1  0.50049522  0.83294714  0.74785260  1
  Li  Li30  1  0.66758945  0.58458594  0.25599040  1
  Li  Li31  1  0.50849733  0.66488175  0.25313333  1
  Mg  Mg32  1  -0.00039851  0.24866489  0.24893979  1
  Mg  Mg33  1  0.00024233  0.24951449  0.74949420  1
  Mg  Mg34  1  0.33482447  0.74887745  0.25169561  1
  Mg  Mg35  1  0.49966438  0.50019588  0.74873507  1
  Mg  Mg36  1  0.33526817  0.25302776  0.25287853  1
  Mg  Mg37  1  0.82891662  0.50042930  0.25178969  1
  Mg  Mg38  1  0.16795203  -0.00168730  0.25197022  1
  Mg  Mg39  1  0.00000869  0.74954042  0.25361123  1
  Mg  Mg40  1  0.66417728  0.75215611  0.74548704  1
  Mg  Mg41  1  0.66257553  0.74612170  0.24739452  1
  Mg  Mg42  1  0.83346560  0.49904809  0.75181873  1
  Mg  Mg43  1  0.33210520  0.24992093  0.75189997  1
  Mg  Mg44  1  0.83269107  0.00084355  0.24350826  1
  Mg  Mg45  1  0.16563272  0.49950624  0.25354350  1
  Mg  Mg46  1  0.50423246  0.50438662  0.25018144  1
  Mg  Mg47  1  0.49983063  -0.00382954  0.74852943  1
  Mg  Mg48  1  0.16643239  0.49919268  0.75344040  1
  Mg  Mg49  1  0.50099070  -0.00053385  0.24713143  1
  Mg  Mg50  1  0.66575489  0.25127498  0.75052713  1
  Mg  Mg51  1  0.00151437  0.75170578  0.75252681  1
  Mg  Mg52  1  0.33722275  0.75189560  0.75092961  1
  Mg  Mg53  1  0.33725316  0.58444538  0.25243131  1
  Mg  Mg54  1  0.33391192  0.91691725  0.75095857  1
  Mg  Mg55  1  0.00066415  0.41369784  0.75257464  1
  Mg  Mg56  1  -0.00181506  0.41530140  0.25252201  1
  Mg  Mg57  1  0.50446546  0.33578704  0.24942748  1
  Mg  Mg58  1  0.49973703  0.83108594  0.24593447  1
  Mg  Mg59  1  0.00216565  0.91822441  0.74851735  1
  Mg  Mg60  1  0.66750594  0.41378656  0.74969514  1
  Mg  Mg61  1  0.16721103  0.66549775  0.25370900  1
  Mg  Mg62  1  0.16609186  0.16328008  0.75015580  1
  Mg  Mg63  1  0.83057108  0.66412443  0.25312029  1
  Mg  Mg64  1  0.33308416  0.58579770  0.74929213  1
  Mg  Mg65  1  0.66432572  0.91416211  0.74644859  1
  Mg  Mg66  1  0.50004181  0.66860941  0.74703036  1
  Mg  Mg67  1  0.33614298  0.41668409  0.25392873  1
  Mg  Mg68  1  0.49955783  0.16469077  0.75185728  1
  Mg  Mg69  1  0.33037074  0.41518502  0.75237685  1
  Mg  Mg70  1  0.66418101  0.58372019  0.74796484  1
  Mg  Mg71  1  0.16876235  0.83623018  0.75075383  1
  Mg  Mg72  1  0.33496740  0.91362413  0.25019209  1
  Mg  Mg73  1  0.83083537  0.83307526  0.24744833  1
  Mg  Mg74  1  0.00178348  0.91571092  0.24951482  1
  Mg  Mg75  1  0.82945640  0.33343182  0.25078813  1
  Mg  Mg76  1  0.33579263  0.08488007  0.25090714  1
  Mg  Mg77  1  0.66588754  0.08632715  0.24256316  1
  Mg  Mg78  1  0.00164462  0.08068439  0.74811368  1
  Mg  Mg79  1  0.16823953  0.66582917  0.75326415  1
  Mg  Mg80  1  0.16666255  0.33427571  0.75208289  1
  Mg  Mg81  1  0.50008510  0.33489156  0.75103134  1
  Mg  Mg82  1  0.16902841  0.33449593  0.25418031  1
  Mg  Mg83  1  0.16921337  0.16598863  0.25104552  1
  Mg  Mg84  1  -0.00012275  0.08326491  0.24664796  1
  Mg  Mg85  1  0.83247064  0.16445267  0.74781119  1
  Mg  Mg86  1  0.66903703  0.41729648  0.25034910  1
  Mg  Mg87  1  0.33068597  0.08129115  0.75215573  1
  Mg  Mg88  1  0.83107373  0.83431688  0.74732381  1
  Mg  Mg89  1  0.83122817  0.33488231  0.75059159  1
  Mg  Mg90  1  0.66609319  0.08222815  0.74859772  1
  Mg  Mg91  1  0.16933318  0.83399842  0.25276324  1
  Mg  Mg92  1  0.00257510  0.58445707  0.75450197  1
  Mg  Mg93  1  0.83199266  0.66670746  0.75082743  1
  Mg  Mg94  1  0.50368216  0.16911207  0.24677734  1
  Mg  Mg95  1  0.82996114  0.16651550  0.24298027  1
  Fe  Fe96  1  0.31259566  0.82597536  0.39224846  1
  Fe  Fe97  1  0.30549888  0.33111327  0.89280545  1
  Fe  Fe98  1  0.80732063  0.42098819  0.89307930  1
  Fe  Fe99  1  0.68955805  0.83278586  0.60561794  1
  Fe  Fe100  1  0.85780597  0.08085019  0.10535720  1
  Fe  Fe101  1  0.02881748  0.33243968  0.61074711  1
  Fe  Fe102  1  0.63197608  0.33552065  0.89135371  1
  Fe  Fe103  1  0.19894841  0.41836255  0.61058284  1
  Fe  Fe104  1  0.51992030  0.91373719  0.10448457  1
  Fe  Fe105  1  0.81264830  0.58764188  0.39557765  1
  Fe  Fe106  1  0.68951655  0.34001377  0.11000613  1
  Fe  Fe107  1  0.14060041  0.58181184  0.89389987  1
  Fe  Fe108  1  0.80938432  0.41533254  0.39307770  1
  Fe  Fe109  1  0.69552662  0.33286262  0.60814489  1
  Fe  Fe110  1  0.52133477  0.57920707  0.60865727  1
  Fe  Fe111  1  0.14193477  0.91679653  0.39156100  1
  Fe  Fe112  1  0.31136980  0.33864324  0.39357136  1
  Si  Si113  1  0.97772099  0.16283130  0.38258129  1
  Si  Si114  1  0.36608173  0.32941350  0.61533860  1
  Si  Si115  1  0.97976345  0.67690827  0.39093887  1
  Si  Si116  1  0.80795244  0.08346324  0.38134994  1
  Si  Si117  1  0.35684417  0.67341154  0.61237644  1
  Si  Si118  1  0.85931322  0.90827198  0.10906443  1
  Si  Si119  1  0.13404701  0.41025849  0.89377621  1
  Si  Si120  1  0.46461382  0.42336836  0.88808582  1
  Si  Si121  1  0.80627538  0.91537460  0.88484666  1
  Si  Si122  1  0.51862758  0.42346367  0.11166126  1
  Si  Si123  1  0.69505438  0.82416538  0.10909490  1
  Si  Si124  1  0.14279739  0.58436495  0.38767802  1
  Si  Si125  1  0.02136926  0.16265484  0.61125811  1
  Si  Si126  1  0.03031242  0.33320729  0.11646214  1
  Si  Si127  1  0.14758606  0.08599359  0.38645504  1
  Si  Si128  1  0.35583385  0.16511461  0.61623022  1
  Si  Si129  1  0.86653351  0.41926766  0.11315878  1
  Si  Si130  1  0.03135867  0.16718378  0.11160995  1
  Si  Si131  1  0.02909567  0.83173324  0.11396570  1
  Si  Si132  1  0.86636547  0.42300836  0.61400465  1
  Si  Si133  1  0.14260965  0.91628585  0.88519885  1
  Si  Si134  1  0.63891330  0.67135007  0.38775376  1
  Si  Si135  1  0.13383640  0.41732758  0.38954164  1
  Si  Si136  1  0.86482339  0.91203576  0.61046856  1
  Si  Si137  1  0.51966898  0.08617007  0.10870150  1
  Si  Si138  1  0.02647870  0.67073090  0.61737151  1
  Si  Si139  1  0.86271690  0.58772909  0.61909452  1
  Si  Si140  1  0.35113600  0.82993827  0.10893033  1
  Si  Si141  1  0.96793194  0.32626699  0.88876578  1
  Si  Si142  1  0.19102079  0.08275287  0.61581557  1
  Si  Si143  1  0.97566189  0.16157313  0.88463078  1
  Si  Si144  1  0.19144451  0.91912203  0.11329321  1
  Si  Si145  1  0.63649595  0.33198382  0.38553319  1
  Si  Si146  1  0.19365519  0.91767562  0.61656476  1
  Si  Si147  1  0.47557849  0.07767514  0.88539796  1
  Si  Si148  1  0.19119248  0.58952208  0.61344071  1
  Si  Si149  1  0.97052447  0.84022186  0.38691691  1
  Si  Si150  1  0.47733380  0.08322576  0.38277991  1
  Si  Si151  1  0.18867512  0.58144884  0.11670704  1
  Si  Si152  1  0.64189070  0.66949803  0.88436208  1
  Si  Si153  1  0.31032743  0.83526463  0.88653455  1
  Si  Si154  1  0.52121153  0.91962176  0.61194188  1
  Si  Si155  1  0.85782119  0.58484067  0.11548629  1
  Si  Si156  1  0.64164336  0.16241116  0.88712192  1
  Si  Si157  1  0.52275619  0.41294533  0.61188280  1
  Si  Si158  1  0.14172649  0.08120041  0.88465079  1
  Si  Si159  1  0.97144285  0.67358806  0.88934125  1
  Si  Si160  1  0.51801010  0.58713450  0.11612806  1
  Si  Si161  1  0.31504915  0.65594605  0.39012888  1
  Si  Si162  1  0.47662959  0.91906699  0.38597349  1
  Si  Si163  1  0.35088639  0.66623875  0.11528559  1
  Si  Si164  1  0.47955213  0.42105072  0.38675582  1
  Si  Si165  1  0.19314477  0.41719394  0.11746329  1
  Si  Si166  1  0.85956536  0.07943434  0.61354827  1
  Si  Si167  1  0.35649974  0.83747623  0.61630509  1
  Si  Si168  1  0.31217847  0.66979096  0.88906728  1
  Si  Si169  1  0.80910646  0.59035117  0.88751749  1
  Si  Si170  1  0.31422010  0.16781782  0.38734854  1
  Si  Si171  1  0.31155900  0.16073330  0.88945684  1
  Si  Si172  1  0.52091162  0.08309603  0.61489638  1
  Si  Si173  1  0.68902300  0.66086565  0.11351016  1
  Si  Si174  1  0.80515873  0.91749618  0.38015553  1
  Si  Si175  1  0.69266297  0.66173935  0.61179026  1
  Si  Si176  1  0.63858174  0.83420792  0.38141501  1
  Si  Si177  1  0.19746648  0.08477270  0.11509019  1
  Si  Si178  1  0.97560473  0.83833614  0.88603966  1
  Si  Si179  1  0.64282957  0.83370583  0.88446434  1
  Si  Si180  1  0.35939802  0.17126744  0.11498679  1
  Si  Si181  1  0.47688501  0.91464141  0.88384310  1
  Si  Si182  1  0.48037556  0.58162513  0.38428110  1
  Si  Si183  1  0.97265514  0.32628300  0.38567234  1
  Si  Si184  1  0.02583295  0.66856856  0.11680831  1
  Si  Si185  1  0.64149663  0.16605575  0.38029875  1
  Si  Si186  1  0.47704782  0.58761415  0.88483620  1
  Si  Si187  1  0.69005672  0.16045262  0.61081167  1
  Si  Si188  1  0.02960616  0.83478856  0.61471144  1
  Si  Si189  1  0.35792825  0.33620276  0.11564809  1
  Si  Si190  1  0.68730400  0.16757735  0.10694025  1
  Si  Si191  1  0.80617058  0.08225621  0.88334866  1
  O  O192  1  0.27774727  0.11934628  0.08574554  1
  O  O193  1  0.27218239  0.11604888  0.58544623  1
  O  O194  1  0.26636709  0.61683021  0.08460988  1
  O  O195  1  0.26978228  0.62801723  0.58441830  1
  O  O196  1  0.60047650  0.11914293  0.08017267  1
  O  O197  1  0.60379077  0.11087112  0.58497179  1
  O  O198  1  0.59844161  0.61979061  0.08380767  1
  O  O199  1  0.62536454  0.59985289  0.58211138  1
  O  O200  1  0.95348725  0.11993594  0.07455111  1
  O  O201  1  0.94068556  0.10867460  0.58187956  1
  O  O202  1  0.93247448  0.63316013  0.08785961  1
  O  O203  1  0.94583735  0.61836653  0.59028986  1
  O  O204  1  0.11039867  0.36864415  0.08718058  1
  O  O205  1  0.12111644  0.35204983  0.57195057  1
  O  O206  1  0.10282301  0.87663828  0.08410246  1
  O  O207  1  0.11300677  0.86513025  0.58666612  1
  O  O208  1  0.43368934  0.37288415  0.08367288  1
  O  O209  1  0.45676844  0.34398076  0.59098565  1
  O  O210  1  0.42340271  0.85724700  0.06911736  1
  O  O211  1  0.43593524  0.87046822  0.58559022  1
  O  O212  1  0.78322787  0.37862296  0.07668507  1
  O  O213  1  0.79142587  0.36982624  0.57948206  1
  O  O214  1  0.78021074  0.85378552  0.08142472  1
  O  O215  1  0.78689888  0.86447213  0.57265637  1
  O  O216  1  0.27244664  0.38318674  0.08722437  1
  O  O217  1  0.29865310  0.38759757  0.58101582  1
  O  O218  1  0.26531185  0.87934528  0.08090183  1
  O  O219  1  0.27506226  0.88880980  0.58584113  1
  O  O220  1  0.59366828  0.39612160  0.07555667  1
  O  O221  1  0.60473127  0.39467899  0.57849585  1
  O  O222  1  0.61549652  0.87282228  0.07478785  1
  O  O223  1  0.59595418  0.89314037  0.57411956  1
  O  O224  1  0.94846935  0.38184570  0.08597556  1
  O  O225  1  0.95127225  0.40683707  0.58426099  1
  O  O226  1  0.94037436  0.87041260  0.08158703  1
  O  O227  1  0.95188684  0.88758214  0.58244929  1
  O  O228  1  0.11682811  0.13572221  0.08527215  1
  O  O229  1  0.10501753  0.12751470  0.58436215  1
  O  O230  1  0.09972676  0.62342163  0.08672939  1
  O  O231  1  0.10871472  0.64275928  0.58797095  1
  O  O232  1  0.43905594  0.14190787  0.08321962  1
  O  O233  1  0.43839166  0.13440381  0.58685710  1
  O  O234  1  0.43294762  0.63622784  0.08497377  1
  O  O235  1  0.43394595  0.64634466  0.57806002  1
  O  O236  1  0.76054304  0.13204615  0.07072876  1
  O  O237  1  0.76988693  0.12025728  0.58320822  1
  O  O238  1  0.76510256  0.61960464  0.08154470  1
  O  O239  1  0.78567960  0.64231400  0.59037442  1
  O  O240  1  0.06125204  0.11414276  0.41279814  1
  O  O241  1  0.06101659  0.11420587  0.91554251  1
  O  O242  1  0.07003550  0.63181780  0.41513750  1
  O  O243  1  0.04856030  0.62505008  0.92677438  1
  O  O244  1  0.39349426  0.11095814  0.41226181  1
  O  O245  1  0.39242545  0.10552617  0.91479956  1
  O  O246  1  0.39336404  0.59889025  0.41394491  1
  O  O247  1  0.40044666  0.62528548  0.91669806  1
  O  O248  1  0.72887176  0.12058848  0.41112441  1
  O  O249  1  0.72625203  0.11257066  0.91524846  1
  O  O250  1  0.71781785  0.62646579  0.42772554  1
  O  O251  1  0.72493645  0.62159341  0.91548091  1
  O  O252  1  0.21553318  0.37287068  0.42511706  1
  O  O253  1  0.20600807  0.35249203  0.92474091  1
  O  O254  1  0.22257993  0.85317009  0.43198248  1
  O  O255  1  0.22996753  0.87115792  0.91594756  1
  O  O256  1  0.55107982  0.35962600  0.41381371  1
  O  O257  1  0.53302975  0.36459676  0.92131793  1
  O  O258  1  0.56363356  0.87390574  0.41328501  1
  O  O259  1  0.56145326  0.86715375  0.91377581  1
  O  O260  1  0.89372795  0.34505050  0.42045418  1
  O  O261  1  0.88957591  0.34919954  0.92347233  1
  O  O262  1  0.88193331  0.86331800  0.41305026  1
  O  O263  1  0.89652047  0.87465101  0.91598352  1
  O  O264  1  0.05105167  0.38149144  0.41391944  1
  O  O265  1  0.04692983  0.38003745  0.91807440  1
  O  O266  1  0.03827719  0.89958096  0.41992517  1
  O  O267  1  0.06274724  0.88282233  0.91682572  1
  O  O268  1  0.39832794  0.40469034  0.42135631  1
  O  O269  1  0.37793551  0.40983422  0.91715190  1
  O  O270  1  0.40346437  0.88975007  0.42358613  1
  O  O271  1  0.39576479  0.88239251  0.91456159  1
  O  O272  1  0.71447149  0.37743764  0.42467190  1
  O  O273  1  0.71360709  0.39946757  0.92921405  1
  O  O274  1  0.72182796  0.88613261  0.40699332  1
  O  O275  1  0.72905037  0.87907267  0.91779883  1
  O  O276  1  0.22653458  0.14219498  0.41261376  1
  O  O277  1  0.22849011  0.12509565  0.91670998  1
  O  O278  1  0.23428152  0.62050580  0.42002422  1
  O  O279  1  0.23895452  0.63730914  0.92539878  1
  O  O280  1  0.56177834  0.13123152  0.41189793  1
  O  O281  1  0.56067922  0.12382397  0.91457547  1
  O  O282  1  0.55139867  0.64207840  0.41326067  1
  O  O283  1  0.56130981  0.63627098  0.91383842  1
  O  O284  1  0.89629490  0.12747801  0.41110300  1
  O  O285  1  0.89532378  0.12497833  0.91326895  1
  O  O286  1  0.90915209  0.64611684  0.43033889  1
  O  O287  1  0.88177051  0.65249091  0.91288499  1
  O  O288  1  0.18201960  0.00267825  0.08447591  1
  O  O289  1  0.17458692  -0.00019185  0.58733244  1
  O  O290  1  0.17695719  0.49895489  0.08751162  1
  O  O291  1  0.17190188  0.51303331  0.57766527  1
  O  O292  1  0.49598408  0.00951927  0.07280591  1
  O  O293  1  0.49515328  0.00282972  0.58507072  1
  O  O294  1  0.49408403  0.50635132  0.08423078  1
  O  O295  1  0.47955042  0.48747346  0.58115151  1
  O  O296  1  0.84365302  -0.01493554  0.07197289  1
  O  O297  1  0.84610369  -0.00364387  0.58634129  1
  O  O298  1  0.86544358  0.50363710  0.08553326  1
  O  O299  1  0.83852707  0.50724638  0.59145565  1
  O  O300  1  0.02106840  0.25148221  0.08546395  1
  O  O301  1  -0.00440416  0.23902277  0.57716815  1
  O  O302  1  0.02665589  0.74967313  0.08297480  1
  O  O303  1  0.00723341  0.75258060  0.58713555  1
  O  O304  1  0.33871336  0.25357265  0.08694886  1
  O  O305  1  0.33706288  0.24688652  0.58827604  1
  O  O306  1  0.32618225  0.74651579  0.08346128  1
  O  O307  1  0.33418817  0.75679318  0.58650834  1
  O  O308  1  0.66692652  0.24703561  0.07560713  1
  O  O309  1  0.67497748  0.23725942  0.57415840  1
  O  O310  1  0.68080086  0.74120066  0.07773672  1
  O  O311  1  0.66348356  0.73848807  0.57710460  1
  O  O312  1  0.17540477  0.01080692  0.42221424  1
  O  O313  1  0.15653476  -0.00141692  0.91461696  1
  O  O314  1  0.13926852  0.50177302  0.41626020  1
  O  O315  1  0.15448608  0.48864383  0.92926468  1
  O  O316  1  0.49884732  0.00259078  0.41251868  1
  O  O317  1  0.49398013  -0.00414406  0.91514610  1
  O  O318  1  0.51555993  0.50182155  0.41187517  1
  O  O319  1  0.49602850  0.50636713  0.91388374  1
  O  O320  1  0.82025579  0.00043557  0.41132872  1
  O  O321  1  0.82050862  -0.00113419  0.91128203  1
  O  O322  1  0.83896951  0.50023633  0.43735031  1
  O  O323  1  0.84113433  0.51604267  0.92332074  1
  O  O324  1  0.34224837  0.24373194  0.42242388  1
  O  O325  1  0.33575895  0.23660436  0.92577626  1
  O  O326  1  0.34094748  0.73204163  0.42545532  1
  O  O327  1  0.32808761  0.75395261  0.91636814  1
  O  O328  1  0.65163297  0.24703485  0.41149881  1
  O  O329  1  0.65702547  0.23972764  0.92144837  1
  O  O330  1  0.65259716  0.75554172  0.41768719  1
  O  O331  1  0.65707811  0.75146895  0.91531536  1
  O  O332  1  1.00160119  0.24347144  0.41160371  1
  O  O333  1  0.99473801  0.24268547  0.91474653  1
  O  O334  1  1.00111367  0.76069103  0.41769772  1
  O  O335  1  0.99012699  0.75719074  0.91678774  1
  O  O336  1  0.21308191  0.08386158  0.19552894  1
  O  O337  1  0.21174422  0.08513418  0.69547514  1
  O  O338  1  0.20835060  0.58272962  0.19668793  1
  O  O339  1  0.21080760  0.58754245  0.69454523  1
  O  O340  1  0.53815697  0.08511112  0.18955167  1
  O  O341  1  0.54007571  0.08325127  0.69546880  1
  O  O342  1  0.53763844  0.58495473  0.19459232  1
  O  O343  1  0.54260987  0.58402083  0.70070326  1
  O  O344  1  0.88064475  0.08360922  0.19678314  1
  O  O345  1  0.88095416  0.08851406  0.69260078  1
  O  O346  1  0.86900842  0.58488857  0.19424209  1
  O  O347  1  0.88086962  0.58667651  0.70002372  1
  O  O348  1  0.04727413  0.33131413  0.19689937  1
  O  O349  1  0.04573951  0.33176308  0.70385729  1
  O  O350  1  0.04479579  0.83211815  0.19405235  1
  O  O351  1  0.04655433  0.83356775  0.69537466  1
  O  O352  1  0.37730608  0.33506160  0.19581430  1
  O  O353  1  0.37869682  0.33056183  0.69643432  1
  O  O354  1  0.37179031  0.83285482  0.18936616  1
  O  O355  1  0.37195505  0.83570927  0.69605950  1
  O  O356  1  0.71112092  0.33479790  0.19967564  1
  O  O357  1  0.71205276  0.33029909  0.69934802  1
  O  O358  1  0.71413290  0.82333756  0.18870166  1
  O  O359  1  0.71131613  0.83364630  0.69723237  1
  O  O360  1  0.21085400  0.41706546  0.19750167  1
  O  O361  1  0.20972505  0.41883283  0.70305879  1
  O  O362  1  0.21082660  0.91878858  0.19314596  1
  O  O363  1  0.21224985  0.91487325  0.69621748  1
  O  O364  1  0.53825376  0.41942545  0.19218995  1
  O  O365  1  0.54157268  0.41669907  0.69372504  1
  O  O366  1  0.52838667  0.91671372  0.19390658  1
  O  O367  1  0.54264882  0.91913164  0.69207543  1
  O  O368  1  0.88120388  0.41577078  0.19340616  1
  O  O369  1  0.88018093  0.41851992  0.69562407  1
  O  O370  1  0.87833629  0.91358236  0.18989091  1
  O  O371  1  0.88359343  0.90600656  0.69039734  1
  O  O372  1  0.04737016  0.16579177  0.19271940  1
  O  O373  1  0.04228222  0.16371443  0.69240524  1
  O  O374  1  0.04749451  0.67290659  0.19585879  1
  O  O375  1  0.04420696  0.67089083  0.69791784  1
  O  O376  1  0.37577161  0.16878567  0.19533197  1
  O  O377  1  0.37477006  0.16331408  0.69685739  1
  O  O378  1  0.36565775  0.66611599  0.19448724  1
  O  O379  1  0.37477579  0.66953561  0.69366564  1
  O  O380  1  0.71043592  0.16448961  0.18743798  1
  O  O381  1  0.70801443  0.16348905  0.69177393  1
  O  O382  1  0.71013684  0.66686203  0.19241835  1
  O  O383  1  0.70989135  0.66604015  0.69372998  1
  O  O384  1  0.12707266  0.08414860  0.30496779  1
  O  O385  1  0.12272361  0.08427858  0.80519253  1
  O  O386  1  0.13281560  0.58315345  0.30825538  1
  O  O387  1  0.12332524  0.58506501  0.80227071  1
  O  O388  1  0.45729055  0.08541117  0.30229131  1
  O  O389  1  0.45671209  0.08011131  0.80488474  1
  O  O390  1  0.45642992  0.58108507  0.30462736  1
  O  O391  1  0.45529450  0.58724324  0.80467781  1
  O  O392  1  0.78969159  0.08360741  0.30144844  1
  O  O393  1  0.78548972  0.08816032  0.80417268  1
  O  O394  1  0.79415920  0.58364441  0.30478181  1
  O  O395  1  0.78952919  0.58651540  0.80652153  1
  O  O396  1  0.28951380  0.33403566  0.30142089  1
  O  O397  1  0.28834810  0.32983109  0.80115474  1
  O  O398  1  0.28969674  0.83269978  0.29946759  1
  O  O399  1  0.29087629  0.83455743  0.80642539  1
  O  O400  1  0.61980609  0.33655014  0.30567990  1
  O  O401  1  0.61862957  0.33274948  0.79939841  1
  O  O402  1  0.61837186  0.82774572  0.30257534  1
  O  O403  1  0.62626638  0.83374167  0.80518647  1
  O  O404  1  0.95737813  0.32841921  0.30451274  1
  O  O405  1  0.95270203  0.32905480  0.80785447  1
  O  O406  1  0.95618214  0.83663761  0.30553821  1
  O  O407  1  0.95797148  0.83622839  0.80580656  1
  O  O408  1  0.12296914  0.41572328  0.30847560  1
  O  O409  1  0.12097896  0.41630754  0.81265742  1
  O  O410  1  0.12261410  0.91668009  0.29857904  1
  O  O411  1  0.12303204  0.91251760  0.80590819  1
  O  O412  1  0.45803180  0.41817824  0.30554438  1
  O  O413  1  0.45315637  0.42022089  0.80637311  1
  O  O414  1  0.45474011  0.91824104  0.30527365  1
  O  O415  1  0.45586791  0.91759553  0.80447343  1
  O  O416  1  0.79026704  0.41618507  0.30156394  1
  O  O417  1  0.78992252  0.41823714  0.80092538  1
  O  O418  1  0.79821425  0.91933926  0.30103953  1
  O  O419  1  0.78635068  0.90949306  0.80598406  1
  O  O420  1  0.29377356  0.16739976  0.30590162  1
  O  O421  1  0.29147677  0.16325668  0.80848192  1
  O  O422  1  0.29169555  0.66311021  0.30909780  1
  O  O423  1  0.29203062  0.66892075  0.80807575  1
  O  O424  1  0.62239621  0.16458057  0.30072022  1
  O  O425  1  0.62252679  0.16304556  0.80591840  1
  O  O426  1  0.62673561  0.67045723  0.30843775  1
  O  O427  1  0.62500811  0.66948626  0.80437610  1
  O  O428  1  0.96001763  0.16407643  0.30229738  1
  O  O429  1  0.95773800  0.16272714  0.80433484  1
  O  O430  1  0.95400288  0.67669366  0.31116889  1
  O  O431  1  0.95866075  0.67033734  0.80851650  1
  F  F432  1  0.04760170  0.00121557  0.19871034  1
  F  F433  1  0.04347766  -0.00125325  0.69877737  1
  F  F434  1  0.05108228  0.49005567  0.20097737  1
  F  F435  1  0.04477294  0.50032848  0.70586176  1
  F  F436  1  0.37520527  0.00177231  0.20149581  1
  F  F437  1  0.37744231  0.00027000  0.70141084  1
  F  F438  1  0.37619760  0.49963595  0.20249050  1
  F  F439  1  0.37625584  0.50126516  0.70414081  1
  F  F440  1  0.71647817  0.00953330  0.19211882  1
  F  F441  1  0.69839679  -0.00017311  0.69721844  1
  F  F442  1  0.71285077  0.49516832  0.19678792  1
  F  F443  1  0.71276686  0.50209149  0.70280640  1
  F  F444  1  0.21252223  0.24896678  0.20205275  1
  F  F445  1  0.21140793  0.24485710  0.70277482  1
  F  F446  1  0.20999813  0.74751674  0.20292062  1
  F  F447  1  0.21300150  0.75063631  0.70557868  1
  F  F448  1  0.53624166  0.25232655  0.19738948  1
  F  F449  1  0.54312564  0.24472380  0.70244544  1
  F  F450  1  0.54491898  0.75226649  0.19547438  1
  F  F451  1  0.54514697  0.74919817  0.69985538  1
  F  F452  1  0.88192380  0.24955897  0.19825683  1
  F  F453  1  0.87840160  0.24891670  0.70307344  1
  F  F454  1  0.88137230  0.74965634  0.20266529  1
  F  F455  1  0.88163813  0.74916983  0.70450878  1
  F  F456  1  0.28969222  0.00098373  0.29771471  1
  F  F457  1  0.29265930  -0.00159613  0.80095714  1
  F  F458  1  0.28794145  0.50013248  0.29871215  1
  F  F459  1  0.28837909  0.50586155  0.80021490  1
  F  F460  1  0.61827121  0.01140053  0.29600394  1
  F  F461  1  0.62019059  -0.00118787  0.79833842  1
  F  F462  1  0.62069224  0.49684568  0.29755261  1
  F  F463  1  0.62154964  0.49978426  0.79795715  1
  F  F464  1  0.95638208  -0.00063248  0.29450343  1
  F  F465  1  0.96667681  -0.00136541  0.80149935  1
  F  F466  1  0.95015800  0.48872848  0.30287239  1
  F  F467  1  0.95544217  0.50086307  0.80064585  1
  F  F468  1  0.12235013  0.24803961  0.29788584  1
  F  F469  1  0.12156772  0.24396761  0.79976921  1
  F  F470  1  0.12246114  0.75031114  0.30028877  1
  F  F471  1  0.12313633  0.75243298  0.80088117  1
  F  F472  1  0.45630633  0.25007748  0.29775425  1
  F  F473  1  0.45432460  0.24710192  0.79868434  1
  F  F474  1  0.45173419  0.75474121  0.29623397  1
  F  F475  1  0.45406065  0.74712294  0.79950801  1
  F  F476  1  0.79656674  0.24475836  0.29715686  1
  F  F477  1  0.78823640  0.24529216  0.79794959  1
  F  F478  1  0.78642719  0.75192992  0.29651386  1
  F  F479  1  0.78823894  0.74957480  0.79761167  1
