# generated using pymatgen
data_K24Na3Li5Mg64Fe17Si79(O5F)48
_symmetry_space_group_name_H-M   'P 1'
_cell_length_a   16.08295775
_cell_length_b   18.57050676
_cell_length_c   20.54047903
_cell_angle_alpha   89.98906104
_cell_angle_beta   100.00892734
_cell_angle_gamma   89.99526723
_symmetry_Int_Tables_number   1
_chemical_formula_structural   K24Na3Li5Mg64Fe17Si79(O5F)48
_chemical_formula_sum   'K24 Na3 Li5 Mg64 Fe17 Si79 O240 F48'
_cell_volume   6041.43009578
_cell_formula_units_Z   1
loop_
 _symmetry_equiv_pos_site_id
 _symmetry_equiv_pos_as_xyz
  1  'x, y, z'
loop_
 _atom_site_type_symbol
 _atom_site_label
 _atom_site_symmetry_multiplicity
 _atom_site_fract_x
 _atom_site_fract_y
 _atom_site_fract_z
 _atom_site_occupancy
  K  K0  1  -0.00788717  -0.00184361  0.00175574  1
  K  K1  1  -0.01331014  0.00164682  0.49873844  1
  K  K2  1  -0.00367434  0.50364704  -0.00346911  1
  K  K3  1  -0.00861159  0.49070615  0.49785256  1
  K  K4  1  0.33640736  0.00779286  0.00655434  1
  K  K5  1  0.33663828  0.00301484  0.49870236  1
  K  K6  1  0.33494518  0.49550483  -0.00213529  1
  K  K7  1  0.33611918  0.49106806  0.50257306  1
  K  K8  1  0.66765132  0.00856423  0.00116019  1
  K  K9  1  0.67265429  0.00050877  0.49940912  1
  K  K10  1  0.67139006  0.50121865  0.00299785  1
  K  K11  1  0.67607189  0.49831248  0.50391221  1
  K  K12  1  0.16055836  0.24971094  0.00009278  1
  K  K13  1  0.16415304  0.25434448  0.50219511  1
  K  K14  1  0.16144603  0.74911836  -0.00228838  1
  K  K15  1  0.16077339  0.75092351  0.50396392  1
  K  K16  1  0.51658239  0.24822492  0.00411422  1
  K  K17  1  0.49793079  0.24911721  0.50321889  1
  K  K18  1  0.50591446  0.74488085  0.00225594  1
  K  K19  1  0.51557418  0.76035774  0.50455308  1
  K  K20  1  0.82031615  0.24339313  0.00145147  1
  K  K21  1  0.82997658  0.25101710  0.49930894  1
  K  K22  1  0.83658805  0.74975091  -0.00545522  1
  K  K23  1  0.82145951  0.75184357  0.49699101  1
  Na  Na24  1  0.83252319  0.49968562  0.24320489  1
  Na  Na25  1  0.17231986  0.32888200  0.74634693  1
  Na  Na26  1  0.16315348  0.66938401  0.75499298  1
  Li  Li27  1  0.50916301  0.00137133  0.24931200  1
  Li  Li28  1  0.33243937  0.25346297  0.74485158  1
  Li  Li29  1  0.82751002  0.83278089  0.74492005  1
  Li  Li30  1  0.66105034  0.07995849  0.24878688  1
  Li  Li31  1  0.66758890  0.58345822  0.74907777  1
  Mg  Mg32  1  0.83364253  -0.00187453  0.74735491  1
  Mg  Mg33  1  0.00083364  0.74711440  0.25102161  1
  Mg  Mg34  1  0.50181543  -0.00051689  0.74930942  1
  Mg  Mg35  1  0.66496943  0.25137473  0.74825579  1
  Mg  Mg36  1  0.82961339  0.00023374  0.25486184  1
  Mg  Mg37  1  0.66721241  0.24679675  0.24627330  1
  Mg  Mg38  1  0.16634700  0.49966552  0.75137116  1
  Mg  Mg39  1  0.16858618  0.49826064  0.25069365  1
  Mg  Mg40  1  0.83076314  0.50143191  0.74883700  1
  Mg  Mg41  1  0.66911717  0.74769972  0.74782414  1
  Mg  Mg42  1  -0.00417323  0.75113979  0.75454253  1
  Mg  Mg43  1  0.33330567  0.24852793  0.25025269  1
  Mg  Mg44  1  0.16828754  0.00077483  0.75158170  1
  Mg  Mg45  1  0.66673687  0.75156221  0.24790991  1
  Mg  Mg46  1  0.00169889  0.24876463  0.74868647  1
  Mg  Mg47  1  0.33599617  0.75193747  0.24740727  1
  Mg  Mg48  1  0.33141274  0.75024053  0.74910083  1
  Mg  Mg49  1  0.50048795  0.50122568  0.74857748  1
  Mg  Mg50  1  -0.00106073  0.25201829  0.25352482  1
  Mg  Mg51  1  0.16649584  0.00027629  0.25379279  1
  Mg  Mg52  1  0.50277697  0.49875288  0.24499960  1
  Mg  Mg53  1  0.66778885  0.91407564  0.74754319  1
  Mg  Mg54  1  0.33541465  0.08310515  0.24994892  1
  Mg  Mg55  1  0.00165151  0.41520377  0.74993201  1
  Mg  Mg56  1  0.50121513  0.16346569  0.24948231  1
  Mg  Mg57  1  0.83073924  0.16449071  0.74729403  1
  Mg  Mg58  1  0.33592766  0.58347537  0.24933043  1
  Mg  Mg59  1  0.83035616  0.66560101  0.24663217  1
  Mg  Mg60  1  0.83142747  0.33380839  0.74773840  1
  Mg  Mg61  1  0.00056431  0.91383116  0.25629636  1
  Mg  Mg62  1  0.83133531  0.83465240  0.25218193  1
  Mg  Mg63  1  0.00092749  0.08346180  0.25630207  1
  Mg  Mg64  1  -0.00052140  0.58225442  0.24768205  1
  Mg  Mg65  1  0.83088043  0.16437286  0.25232230  1
  Mg  Mg66  1  -0.00298196  0.91543263  0.75062932  1
  Mg  Mg67  1  -0.00166801  0.08391357  0.74760183  1
  Mg  Mg68  1  0.49889718  0.16854266  0.74950280  1
  Mg  Mg69  1  0.50016343  0.66637488  0.74955516  1
  Mg  Mg70  1  0.16867899  0.83433254  0.25093753  1
  Mg  Mg71  1  0.50129236  0.33294905  0.24709421  1
  Mg  Mg72  1  0.16542361  0.33339587  0.25177341  1
  Mg  Mg73  1  0.66478267  0.41858518  0.74722384  1
  Mg  Mg74  1  0.50025024  0.66677102  0.24641070  1
  Mg  Mg75  1  0.50245999  0.83434076  0.74723250  1
  Mg  Mg76  1  0.16502963  0.16487185  0.25503746  1
  Mg  Mg77  1  0.16945452  0.66552759  0.24945808  1
  Mg  Mg78  1  0.49621373  0.33398171  0.74936708  1
  Mg  Mg79  1  0.33212617  0.41455898  0.74861035  1
  Mg  Mg80  1  -0.00009119  0.58519887  0.75356882  1
  Mg  Mg81  1  -0.00228195  0.41476553  0.24839143  1
  Mg  Mg82  1  0.66489166  0.08520668  0.74754574  1
  Mg  Mg83  1  0.33521855  0.08665410  0.75111907  1
  Mg  Mg84  1  0.17006927  0.16775713  0.74855759  1
  Mg  Mg85  1  0.32999586  0.58443665  0.75014002  1
  Mg  Mg86  1  0.66658028  0.58481851  0.24507842  1
  Mg  Mg87  1  0.33456547  0.41476709  0.24787233  1
  Mg  Mg88  1  0.16554935  0.83384128  0.75255191  1
  Mg  Mg89  1  0.83197360  0.66764353  0.75164086  1
  Mg  Mg90  1  0.33479345  0.91533497  0.75065158  1
  Mg  Mg91  1  0.33579980  0.91823604  0.24591610  1
  Mg  Mg92  1  0.66638515  0.41452099  0.24748411  1
  Mg  Mg93  1  0.49902840  0.83850681  0.24712559  1
  Mg  Mg94  1  0.83228128  0.33478841  0.24842629  1
  Mg  Mg95  1  0.66461449  0.92124262  0.24929286  1
  Fe  Fe96  1  0.68745054  0.33858445  0.60946932  1
  Fe  Fe97  1  0.80878026  0.91729184  0.39289554  1
  Fe  Fe98  1  0.51966191  0.08330831  0.11119535  1
  Fe  Fe99  1  0.63877282  0.16778299  0.88851124  1
  Fe  Fe100  1  0.14159618  0.07920766  0.39513614  1
  Fe  Fe101  1  0.68817929  0.67184636  0.10545425  1
  Fe  Fe102  1  0.85746334  0.08426437  0.60797755  1
  Fe  Fe103  1  0.52347560  0.41465214  0.10662760  1
  Fe  Fe104  1  0.35738016  0.83259745  0.10671704  1
  Fe  Fe105  1  0.97908951  0.66801576  0.89456601  1
  Fe  Fe106  1  0.02638843  0.33376295  0.11038887  1
  Fe  Fe107  1  0.97514905  0.33783377  0.39249501  1
  Fe  Fe108  1  0.86161660  0.58797931  0.10530417  1
  Fe  Fe109  1  0.69882316  0.33078503  0.10696814  1
  Fe  Fe110  1  0.52571596  0.91614771  0.60731681  1
  Fe  Fe111  1  0.69785312  0.82804235  0.60818516  1
  Fe  Fe112  1  0.35380165  0.33332664  0.60838492  1
  Si  Si113  1  0.86411523  0.07710333  0.11934843  1
  Si  Si114  1  0.31353701  0.33249273  0.88567582  1
  Si  Si115  1  0.30834867  0.16734576  0.88549766  1
  Si  Si116  1  0.30580822  0.83189621  0.88701949  1
  Si  Si117  1  0.80774044  0.91754035  0.88424580  1
  Si  Si118  1  0.19378237  0.91607845  0.61680627  1
  Si  Si119  1  0.80433995  0.58608751  0.38488205  1
  Si  Si120  1  0.86376349  0.41621374  0.10742863  1
  Si  Si121  1  0.30917905  0.66618316  0.88649134  1
  Si  Si122  1  0.03704283  0.66631222  0.11365076  1
  Si  Si123  1  0.63993136  0.66681411  0.88302377  1
  Si  Si124  1  0.02848858  0.33274984  0.61552345  1
  Si  Si125  1  0.02192631  0.16537229  0.11593643  1
  Si  Si126  1  0.97849250  0.82607201  0.39095623  1
  Si  Si127  1  0.31196658  0.83085035  0.38512697  1
  Si  Si128  1  0.14791488  0.42103027  0.38873492  1
  Si  Si129  1  0.86129892  0.91233650  0.11796298  1
  Si  Si130  1  0.63431112  0.83360318  0.38569680  1
  Si  Si131  1  0.63903335  0.66737426  0.38446481  1
  Si  Si132  1  0.47050741  0.91973264  0.38273847  1
  Si  Si133  1  0.19816314  0.58008307  0.11648777  1
  Si  Si134  1  0.80982237  0.41754183  0.88448252  1
  Si  Si135  1  0.68478665  0.16791321  0.60930163  1
  Si  Si136  1  0.86550094  0.91377053  0.61240647  1
  Si  Si137  1  0.14678719  0.90751288  0.39090268  1
  Si  Si138  1  0.69636371  0.15907103  0.11291257  1
  Si  Si139  1  0.47000120  0.07815906  0.88803419  1
  Si  Si140  1  0.47381841  0.41679917  0.38428445  1
  Si  Si141  1  0.31055993  0.16898118  0.38976312  1
  Si  Si142  1  0.63745436  0.16899723  0.38488706  1
  Si  Si143  1  0.18834311  0.08560213  0.11750113  1
  Si  Si144  1  0.64274391  0.83204241  0.88596039  1
  Si  Si145  1  0.14357876  0.08729963  0.88541622  1
  Si  Si146  1  0.18960165  0.42437042  0.61140049  1
  Si  Si147  1  0.47371781  0.91139734  0.88658540  1
  Si  Si148  1  0.47337165  0.42174011  0.88574361  1
  Si  Si149  1  0.68824648  0.65837549  0.61185707  1
  Si  Si150  1  0.35515569  0.66511806  0.11257775  1
  Si  Si151  1  0.79966254  0.41840486  0.38813014  1
  Si  Si152  1  0.97852798  0.83963384  0.88907838  1
  Si  Si153  1  0.85939170  0.58185472  0.61410929  1
  Si  Si154  1  0.47353559  0.58726838  0.88602042  1
  Si  Si155  1  0.02778217  0.83268991  0.11709932  1
  Si  Si156  1  0.14356858  0.92190381  0.88696400  1
  Si  Si157  1  0.80635945  0.58325969  0.88591298  1
  Si  Si158  1  0.18513399  0.58497270  0.61491757  1
  Si  Si159  1  0.86456479  0.41563295  0.61160974  1
  Si  Si160  1  0.31004627  0.33471416  0.38519926  1
  Si  Si161  1  0.35065899  0.66684644  0.61380683  1
  Si  Si162  1  0.51817050  0.58404285  0.10933286  1
  Si  Si163  1  0.03345154  0.16631841  0.61195561  1
  Si  Si164  1  0.19694908  0.08005273  0.61647557  1
  Si  Si165  1  0.18900618  0.92142511  0.11393076  1
  Si  Si166  1  0.52098380  0.42251825  0.60941257  1
  Si  Si167  1  0.97764153  0.66034105  0.38663268  1
  Si  Si168  1  0.68910683  0.84066631  0.11271944  1
  Si  Si169  1  0.35613968  0.33115122  0.11338389  1
  Si  Si170  1  0.51576005  0.58577339  0.61437905  1
  Si  Si171  1  0.31338200  0.66716254  0.38496308  1
  Si  Si172  1  0.19634930  0.41606751  0.11372600  1
  Si  Si173  1  0.14440059  0.41249383  0.88635097  1
  Si  Si174  1  0.80543841  0.08939352  0.38781696  1
  Si  Si175  1  0.14571321  0.57595291  0.89113503  1
  Si  Si176  1  0.97505849  0.33234290  0.88499984  1
  Si  Si177  1  0.51992555  0.08443633  0.61224264  1
  Si  Si178  1  0.35012183  0.17007380  0.11300958  1
  Si  Si179  1  0.03003305  0.83478137  0.61684605  1
  Si  Si180  1  0.63713543  0.33282352  0.38617214  1
  Si  Si181  1  0.97248607  0.16640478  0.39133572  1
  Si  Si182  1  0.47657368  0.58135224  0.38412336  1
  Si  Si183  1  0.35710002  0.16486979  0.61446224  1
  Si  Si184  1  0.63966756  0.33999197  0.88563663  1
  Si  Si185  1  0.35569677  0.83088341  0.61263092  1
  Si  Si186  1  0.01945625  0.67061181  0.61585725  1
  Si  Si187  1  0.52562137  0.91543821  0.11073574  1
  Si  Si188  1  0.81006966  0.08259059  0.88732319  1
  Si  Si189  1  0.14783230  0.58522595  0.38556491  1
  Si  Si190  1  0.97563963  0.16593291  0.88460381  1
  Si  Si191  1  0.47329356  0.08535927  0.38554108  1
  O  O192  1  0.26826311  0.11606499  0.08580794  1
  O  O193  1  0.28283295  0.10272855  0.58894665  1
  O  O194  1  0.28463861  0.60064883  0.08869408  1
  O  O195  1  0.26657313  0.61789030  0.58397325  1
  O  O196  1  0.62070122  0.10490423  0.08118989  1
  O  O197  1  0.60532820  0.11117589  0.58517158  1
  O  O198  1  0.59670093  0.60880632  0.07488533  1
  O  O199  1  0.59995689  0.61138501  0.58527943  1
  O  O200  1  0.94791444  0.10451842  0.09027552  1
  O  O201  1  0.95382743  0.12005626  0.57620393  1
  O  O202  1  0.96485312  0.61453446  0.07643175  1
  O  O203  1  0.93216005  0.62748920  0.58274138  1
  O  O204  1  0.12650882  0.36014165  0.07848869  1
  O  O205  1  0.10632705  0.37222832  0.58772292  1
  O  O206  1  0.10286302  0.87341223  0.08656635  1
  O  O207  1  0.11461170  0.86241256  0.58837513  1
  O  O208  1  0.43635422  0.34525134  0.07835424  1
  O  O209  1  0.44747458  0.36856961  0.57345506  1
  O  O210  1  0.45997525  0.85162884  0.07853821  1
  O  O211  1  0.43238865  0.85301674  0.57643906  1
  O  O212  1  0.79854959  0.35320953  0.07539325  1
  O  O213  1  0.78201672  0.37319180  0.57544214  1
  O  O214  1  0.77722405  0.86670018  0.08670089  1
  O  O215  1  0.80148835  0.85027454  0.58261142  1
  O  O216  1  0.28556939  0.39515814  0.08859703  1
  O  O217  1  0.26341262  0.39648471  0.57352769  1
  O  O218  1  0.26462392  0.89562929  0.07720933  1
  O  O219  1  0.27403063  0.88451767  0.58622131  1
  O  O220  1  0.61333689  0.39176833  0.06642087  1
  O  O221  1  0.60609588  0.40887077  0.57861490  1
  O  O222  1  0.61861990  0.90312523  0.08617391  1
  O  O223  1  0.61325427  0.88885423  0.56562013  1
  O  O224  1  0.95158977  0.40648653  0.07713335  1
  O  O225  1  0.94466997  0.37905448  0.58288508  1
  O  O226  1  0.94003800  0.87583658  0.08717234  1
  O  O227  1  0.95657180  0.89164588  0.58760435  1
  O  O228  1  0.10693606  0.13623250  0.08794048  1
  O  O229  1  0.11927359  0.13434853  0.58687705  1
  O  O230  1  0.12655769  0.64092106  0.08981696  1
  O  O231  1  0.10181518  0.63637428  0.58760564  1
  O  O232  1  0.42680416  0.14712722  0.07657609  1
  O  O233  1  0.44326829  0.14229343  0.58530441  1
  O  O234  1  0.44157804  0.64436629  0.08528212  1
  O  O235  1  0.43332134  0.63812899  0.58358183  1
  O  O236  1  0.78330568  0.12566757  0.08757758  1
  O  O237  1  0.76390732  0.14240808  0.57514851  1
  O  O238  1  0.78004344  0.65211924  0.06588092  1
  O  O239  1  0.76536248  0.61362696  0.58363979  1
  O  O240  1  0.04165616  0.10596629  0.42326799  1
  O  O241  1  0.06502997  0.12455927  0.91511617  1
  O  O242  1  0.06561172  0.61511375  0.41587350  1
  O  O243  1  0.07831540  0.61509015  0.92928919  1
  O  O244  1  0.39750026  0.12303735  0.41892935  1
  O  O245  1  0.38845699  0.11506503  0.91521802  1
  O  O246  1  0.39617138  0.61690138  0.41360738  1
  O  O247  1  0.40109113  0.63070886  0.91857372  1
  O  O248  1  0.72265718  0.12389251  0.41482463  1
  O  O249  1  0.74233820  0.12248551  0.92406939  1
  O  O250  1  0.73103041  0.63100142  0.41668746  1
  O  O251  1  0.72140362  0.61636445  0.91093029  1
  O  O252  1  0.23247259  0.37088303  0.41601041  1
  O  O253  1  0.23115259  0.36618108  0.91501111  1
  O  O254  1  0.22887911  0.85384543  0.41625338  1
  O  O255  1  0.23068919  0.87612463  0.91578112  1
  O  O256  1  0.55631701  0.36862661  0.41512052  1
  O  O257  1  0.56592582  0.38703906  0.91380567  1
  O  O258  1  0.55177801  0.86915559  0.41219128  1
  O  O259  1  0.56433654  0.87132184  0.91582096  1
  O  O260  1  0.88423190  0.37967060  0.42695390  1
  O  O261  1  0.89837460  0.37343265  0.91378261  1
  O  O262  1  0.90632261  0.86103227  0.42609409  1
  O  O263  1  0.89739356  0.87792514  0.91613247  1
  O  O264  1  0.07200042  0.39564396  0.42479523  1
  O  O265  1  0.06561800  0.37195707  0.91500617  1
  O  O266  1  0.06944969  0.86623004  0.41895522  1
  O  O267  1  0.06331884  0.89102559  0.91792886  1
  O  O268  1  0.39315149  0.38431712  0.41392002  1
  O  O269  1  0.39908782  0.37955286  0.91781711  1
  O  O270  1  0.39045743  0.88462198  0.41400777  1
  O  O271  1  0.39851965  0.86744990  0.91597437  1
  O  O272  1  0.71835583  0.38277052  0.41758828  1
  O  O273  1  0.73103068  0.38054373  0.91271676  1
  O  O274  1  0.71747127  0.87352682  0.42403190  1
  O  O275  1  0.73096040  0.87606918  0.91459287  1
  O  O276  1  0.23551171  0.13967180  0.42572659  1
  O  O277  1  0.22719576  0.13466220  0.91673358  1
  O  O278  1  0.23016641  0.63752396  0.41430559  1
  O  O279  1  0.23803708  0.61782719  0.91462155  1
  O  O280  1  0.56006257  0.12993917  0.41561960  1
  O  O281  1  0.55448435  0.11777364  0.92398363  1
  O  O282  1  0.56407075  0.62389721  0.41474763  1
  O  O283  1  0.56143044  0.63027387  0.91413494  1
  O  O284  1  0.88219498  0.14645780  0.41558215  1
  O  O285  1  0.90340549  0.12115524  0.91491061  1
  O  O286  1  0.89858197  0.62178223  0.41519982  1
  O  O287  1  0.88569055  0.62838585  0.92497332  1
  O  O288  1  0.16351043  0.00447549  0.08836729  1
  O  O289  1  0.17230483  -0.00218174  0.58815214  1
  O  O290  1  0.17073689  0.49953865  0.08786204  1
  O  O291  1  0.16112227  0.50608229  0.58068978  1
  O  O292  1  0.48707214  -0.00932226  0.07814196  1
  O  O293  1  0.48866433  0.00888605  0.57753428  1
  O  O294  1  0.47986057  0.50714812  0.08112533  1
  O  O295  1  0.48827660  0.50568895  0.58494982  1
  O  O296  1  0.84952408  -0.00526558  0.08866712  1
  O  O297  1  0.83693891  -0.00991590  0.57640418  1
  O  O298  1  0.82402873  0.49441693  0.08162906  1
  O  O299  1  0.86217790  0.49996157  0.58397507  1
  O  O300  1  -0.00611262  0.23994439  0.07831139  1
  O  O301  1  0.02317042  0.25059342  0.58533599  1
  O  O302  1  0.02141669  0.75077154  0.08739161  1
  O  O303  1  0.01013510  0.75341204  0.58564556  1
  O  O304  1  0.31399507  0.25178460  0.08968236  1
  O  O305  1  0.32400488  0.23914815  0.57803263  1
  O  O306  1  0.31719836  0.73935444  0.07897736  1
  O  O307  1  0.32514454  0.74850608  0.58646569  1
  O  O308  1  0.67772935  0.23590311  0.07546229  1
  O  O309  1  0.65224675  0.24626083  0.57935422  1
  O  O310  1  0.65657952  0.76661344  0.07614321  1
  O  O311  1  0.67534220  0.73339836  0.57176146  1
  O  O312  1  0.16809397  -0.01598752  0.42664991  1
  O  O313  1  0.15911083  0.00490537  0.91576259  1
  O  O314  1  0.17415561  0.50477945  0.41465607  1
  O  O315  1  0.16009604  0.49249055  0.92133374  1
  O  O316  1  0.48371020  0.00168327  0.41362987  1
  O  O317  1  0.47373240  -0.00650081  0.91524727  1
  O  O318  1  0.48750038  0.49926249  0.41403863  1
  O  O319  1  0.47612291  0.50487539  0.91537082  1
  O  O320  1  0.82580912  0.01230291  0.42447299  1
  O  O321  1  0.81871317  -0.00093776  0.91668343  1
  O  O322  1  0.80397850  0.50408825  0.41475735  1
  O  O323  1  0.81886521  0.49926356  0.91452171  1
  O  O324  1  0.33034796  0.25360149  0.41452687  1
  O  O325  1  0.32538547  0.24936531  0.91555052  1
  O  O326  1  0.33586160  0.74862564  0.41376890  1
  O  O327  1  0.30545887  0.74915067  0.91573893  1
  O  O328  1  0.64883147  0.25113311  0.41767373  1
  O  O329  1  0.64474295  0.26234145  0.92111142  1
  O  O330  1  0.63818526  0.74910084  0.41367266  1
  O  O331  1  0.65321687  0.74913208  0.91543034  1
  O  O332  1  1.00194890  0.24423351  0.42392653  1
  O  O333  1  0.98235511  0.24893617  0.91398257  1
  O  O334  1  0.99282183  0.74146181  0.41818541  1
  O  O335  1  0.99556353  0.76361249  0.92732143  1
  O  O336  1  0.20899778  0.08461685  0.19781528  1
  O  O337  1  0.21195954  0.07956322  0.69703224  1
  O  O338  1  0.21397065  0.58150903  0.19740315  1
  O  O339  1  0.20979194  0.58084445  0.69413562  1
  O  O340  1  0.54028159  0.08463518  0.19961732  1
  O  O341  1  0.53942001  0.08238736  0.69349274  1
  O  O342  1  0.53934648  0.58538744  0.19150619  1
  O  O343  1  0.53258408  0.58591207  0.69396042  1
  O  O344  1  0.88071256  0.07885570  0.19972328  1
  O  O345  1  0.87814012  0.08342152  0.70028495  1
  O  O346  1  0.88560249  0.59510702  0.19634219  1
  O  O347  1  0.87706988  0.58226250  0.69417419  1
  O  O348  1  0.04880361  0.33230596  0.20233287  1
  O  O349  1  0.03575273  0.33207731  0.69472568  1
  O  O350  1  0.04510828  0.83262361  0.19786677  1
  O  O351  1  0.04566920  0.83379954  0.69723690  1
  O  O352  1  0.37551708  0.33240927  0.19490355  1
  O  O353  1  0.37885880  0.33753202  0.69851461  1
  O  O354  1  0.37651544  0.83351718  0.19869557  1
  O  O355  1  0.37544908  0.83315004  0.69381537  1
  O  O356  1  0.71097579  0.33221376  0.19960778  1
  O  O357  1  0.71118275  0.33454308  0.70116348  1
  O  O358  1  0.70937254  0.83461031  0.19367639  1
  O  O359  1  0.70596226  0.83135187  0.69886118  1
  O  O360  1  0.21190652  0.41622571  0.19518766  1
  O  O361  1  0.21324913  0.42717881  0.69112918  1
  O  O362  1  0.20762022  0.91712397  0.19512240  1
  O  O363  1  0.21136996  0.91681556  0.69746414  1
  O  O364  1  0.54323790  0.41484122  0.19948953  1
  O  O365  1  0.53952233  0.41910908  0.69103416  1
  O  O366  1  0.54442494  0.91300314  0.19155786  1
  O  O367  1  0.54402501  0.91686174  0.70017049  1
  O  O368  1  0.88256452  0.40914932  0.18845306  1
  O  O369  1  0.87838523  0.41583136  0.69257936  1
  O  O370  1  0.88184871  0.91304750  0.19809256  1
  O  O371  1  0.88170438  0.91971164  0.69317229  1
  O  O372  1  0.04168439  0.16669418  0.19690967  1
  O  O373  1  0.04543979  0.16470713  0.69303241  1
  O  O374  1  0.04998677  0.66715415  0.19492545  1
  O  O375  1  0.03310983  0.66861150  0.69492636  1
  O  O376  1  0.37155449  0.16742770  0.19408442  1
  O  O377  1  0.37883583  0.16269458  0.69478331  1
  O  O378  1  0.37459173  0.66626724  0.19420023  1
  O  O379  1  0.37184871  0.66661540  0.69420120  1
  O  O380  1  0.71398208  0.16601423  0.19322678  1
  O  O381  1  0.70897614  0.16679720  0.69106336  1
  O  O382  1  0.70940929  0.66946372  0.19839554  1
  O  O383  1  0.71000822  0.66520705  0.69167371  1
  O  O384  1  0.12261875  0.08124867  0.30297899  1
  O  O385  1  0.12426361  0.08366993  0.80524581  1
  O  O386  1  0.12881045  0.58544709  0.30530158  1
  O  O387  1  0.12006321  0.57466308  0.81136672  1
  O  O388  1  0.45116279  0.08873536  0.30636179  1
  O  O389  1  0.45595964  0.08035360  0.80712274  1
  O  O390  1  0.45741247  0.58319813  0.30382504  1
  O  O391  1  0.45449926  0.58629200  0.80572019  1
  O  O392  1  0.79346671  0.08394612  0.30799294  1
  O  O393  1  0.78986851  0.08374806  0.80663759  1
  O  O394  1  0.78500362  0.59079208  0.30608813  1
  O  O395  1  0.79501248  0.58259362  0.80593365  1
  O  O396  1  0.29113577  0.33428389  0.30465117  1
  O  O397  1  0.29936055  0.33601811  0.80730898  1
  O  O398  1  0.29020560  0.83179996  0.30490676  1
  O  O399  1  0.28960470  0.83378969  0.80663654  1
  O  O400  1  0.62003252  0.33226405  0.30634105  1
  O  O401  1  0.62080255  0.33731790  0.80485268  1
  O  O402  1  0.62117243  0.83291899  0.30503079  1
  O  O403  1  0.62224431  0.83212466  0.80620758  1
  O  O404  1  0.95325265  0.33536885  0.30143210  1
  O  O405  1  0.95696807  0.33237295  0.80466276  1
  O  O406  1  0.96040882  0.82904914  0.30983877  1
  O  O407  1  0.96311631  0.83707799  0.80929974  1
  O  O408  1  0.13035528  0.41872335  0.30812287  1
  O  O409  1  0.12119466  0.41921993  0.80715330  1
  O  O410  1  0.12641005  0.91219811  0.30961604  1
  O  O411  1  0.12585120  0.91985391  0.80667216  1
  O  O412  1  0.45507359  0.41706449  0.30423748  1
  O  O413  1  0.45584492  0.42153958  0.80559412  1
  O  O414  1  0.45222886  0.91708507  0.30339148  1
  O  O415  1  0.45514752  0.91242678  0.80619863  1
  O  O416  1  0.78415613  0.41270617  0.30869770  1
  O  O417  1  0.79351690  0.41708797  0.80421099  1
  O  O418  1  0.78943834  0.91487831  0.30155815  1
  O  O419  1  0.78865952  0.92040837  0.80488305  1
  O  O420  1  0.29070774  0.16664333  0.30868882  1
  O  O421  1  0.28775109  0.16277898  0.80619299  1
  O  O422  1  0.29321225  0.66632355  0.30455251  1
  O  O423  1  0.29904146  0.66834241  0.80718100  1
  O  O424  1  0.61909412  0.17283554  0.30570524  1
  O  O425  1  0.62188340  0.16678986  0.79698696  1
  O  O426  1  0.62032698  0.66601671  0.30443543  1
  O  O427  1  0.61855083  0.67037993  0.80359300  1
  O  O428  1  0.95802545  0.16601821  0.30953139  1
  O  O429  1  0.95782661  0.16646846  0.80455273  1
  O  O430  1  0.96189637  0.66491125  0.30681945  1
  O  O431  1  0.95651999  0.66608527  0.80324869  1
  F  F432  1  0.04476683  -0.00482675  0.20593094  1
  F  F433  1  0.04792613  -0.00060945  0.70378916  1
  F  F434  1  0.05136136  0.50071851  0.20250240  1
  F  F435  1  0.04459441  0.50084543  0.70258560  1
  F  F436  1  0.36617670  0.00223553  0.19726129  1
  F  F437  1  0.37787292  -0.00139472  0.70479365  1
  F  F438  1  0.37837371  0.50004168  0.20274457  1
  F  F439  1  0.37775791  0.50341015  0.70337545  1
  F  F440  1  0.71665608  -0.00248358  0.20009086  1
  F  F441  1  0.71156896  0.00135806  0.70201951  1
  F  F442  1  0.69706301  0.49998578  0.19823985  1
  F  F443  1  0.71421382  0.49770141  0.69993787  1
  F  F444  1  0.21129774  0.24815524  0.20642403  1
  F  F445  1  0.21299157  0.23754164  0.69391722  1
  F  F446  1  0.21232042  0.75021721  0.20300397  1
  F  F447  1  0.21451224  0.75959983  0.70031186  1
  F  F448  1  0.54341178  0.24908162  0.20085500  1
  F  F449  1  0.54360509  0.25306326  0.69990890  1
  F  F450  1  0.54425933  0.75073874  0.20285150  1
  F  F451  1  0.54246075  0.74915405  0.70003255  1
  F  F452  1  0.87926531  0.24474244  0.20440043  1
  F  F453  1  0.87925409  0.24911097  0.70222584  1
  F  F454  1  0.88161285  0.75328503  0.20491501  1
  F  F455  1  0.87835017  0.74916645  0.70403562  1
  F  F456  1  0.28789451  -0.00150000  0.29918891  1
  F  F457  1  0.28935781  -0.00158194  0.80049007  1
  F  F458  1  0.29147892  0.49967780  0.29902463  1
  F  F459  1  0.28798870  0.50165114  0.79996339  1
  F  F460  1  0.62337976  -0.00460128  0.30240002  1
  F  F461  1  0.62257839  0.00127364  0.79878391  1
  F  F462  1  0.61920482  0.50416939  0.29933477  1
  F  F463  1  0.61840090  0.49832768  0.79651338  1
  F  F464  1  0.95584692  -0.00348722  0.30234030  1
  F  F465  1  0.95776353  0.00021805  0.80024056  1
  F  F466  1  0.97006648  0.50014861  0.30120018  1
  F  F467  1  0.95300666  0.49754005  0.79697517  1
  F  F468  1  0.12415615  0.24892265  0.30319341  1
  F  F469  1  0.11669428  0.23964707  0.80181925  1
  F  F470  1  0.12428253  0.74855739  0.29908513  1
  F  F471  1  0.11761459  0.76126638  0.80571973  1
  F  F472  1  0.45330172  0.25104062  0.29711852  1
  F  F473  1  0.46323584  0.24937339  0.80110952  1
  F  F474  1  0.45506800  0.74709016  0.29852103  1
  F  F475  1  0.45332313  0.75132591  0.79611020  1
  F  F476  1  0.78721516  0.24801428  0.29927078  1
  F  F477  1  0.79017372  0.24798450  0.79811501  1
  F  F478  1  0.78900770  0.75100853  0.29955024  1
  F  F479  1  0.78355068  0.74279188  0.80298966  1
