# generated using pymatgen
data_K24Na3Li5Mg64Fe17Si79(O5F)48
_symmetry_space_group_name_H-M   'P 1'
_cell_length_a   16.11862966
_cell_length_b   18.61114149
_cell_length_c   20.58016984
_cell_angle_alpha   89.97555367
_cell_angle_beta   99.99614146
_cell_angle_gamma   90.01493043
_symmetry_Int_Tables_number   1
_chemical_formula_structural   K24Na3Li5Mg64Fe17Si79(O5F)48
_chemical_formula_sum   'K24 Na3 Li5 Mg64 Fe17 Si79 O240 F48'
_cell_volume   6080.04299077
_cell_formula_units_Z   1
loop_
 _symmetry_equiv_pos_site_id
 _symmetry_equiv_pos_as_xyz
  1  'x, y, z'
loop_
 _atom_site_type_symbol
 _atom_site_label
 _atom_site_symmetry_multiplicity
 _atom_site_fract_x
 _atom_site_fract_y
 _atom_site_fract_z
 _atom_site_occupancy
  K  K0  1  -0.00315016  -0.00788386  -0.00892009  1
  K  K1  1  0.00451540  -0.00688758  0.51745028  1
  K  K2  1  -0.00184349  0.50870630  -0.00999550  1
  K  K3  1  -0.00347661  0.50942430  0.51309184  1
  K  K4  1  0.34626412  -0.01155443  -0.01167898  1
  K  K5  1  0.33150204  -0.00446578  0.50890047  1
  K  K6  1  0.34208712  0.50847986  -0.01098439  1
  K  K7  1  0.32878216  0.50973504  0.50526061  1
  K  K8  1  0.65869324  -0.01005834  -0.01798936  1
  K  K9  1  0.67515677  0.00006362  0.51167428  1
  K  K10  1  0.66284254  0.50774540  -0.01624161  1
  K  K11  1  0.67786162  0.50843007  0.51759194  1
  K  K12  1  0.16374061  0.25522349  -0.01874232  1
  K  K13  1  0.16347600  0.24908826  0.52034516  1
  K  K14  1  0.16517058  0.74617127  -0.00261524  1
  K  K15  1  0.16822951  0.74528272  0.49979002  1
  K  K16  1  0.49073084  0.25250762  -0.01901655  1
  K  K17  1  0.51037666  0.24543891  0.52035708  1
  K  K18  1  0.49619683  0.75091886  -0.00736762  1
  K  K19  1  0.49087206  0.74226510  0.50585595  1
  K  K20  1  0.82766089  0.25060435  -0.03272265  1
  K  K21  1  0.83384127  0.25980907  0.52248554  1
  K  K22  1  0.83018945  0.74818439  -0.00373568  1
  K  K23  1  0.84422478  0.74822796  0.51070570  1
  Na  Na24  1  0.83127550  0.49984455  0.74252596  1
  Na  Na25  1  0.82869785  0.32991371  0.74531088  1
  Na  Na26  1  0.50235555  0.67011842  0.75522888  1
  Li  Li27  1  0.50092801  -0.00039613  0.74590681  1
  Li  Li28  1  0.66418990  0.24860338  0.74380723  1
  Li  Li29  1  0.16902287  0.66561008  0.25918557  1
  Li  Li30  1  0.82594328  0.66368497  0.74666812  1
  Li  Li31  1  0.16782226  0.16840209  0.75230664  1
  Mg  Mg32  1  0.16583220  0.49797691  0.75358134  1
  Mg  Mg33  1  0.83390062  -0.00031289  0.74485294  1
  Mg  Mg34  1  -0.00332173  0.74924966  0.74496582  1
  Mg  Mg35  1  0.49949584  -0.00170354  0.24706363  1
  Mg  Mg36  1  0.33273385  0.24867503  0.25030722  1
  Mg  Mg37  1  0.67054376  0.75019221  0.74812614  1
  Mg  Mg38  1  0.66626412  0.74927028  0.24397580  1
  Mg  Mg39  1  0.49835668  0.50097789  0.24526554  1
  Mg  Mg40  1  0.83410333  0.50235076  0.25140201  1
  Mg  Mg41  1  0.33091001  0.24897480  0.75522649  1
  Mg  Mg42  1  0.00312004  0.25010644  0.74911718  1
  Mg  Mg43  1  0.33703002  0.75185767  0.75445309  1
  Mg  Mg44  1  0.66650654  0.25036074  0.24814792  1
  Mg  Mg45  1  -0.00105562  0.25012886  0.25152005  1
  Mg  Mg46  1  0.16914390  0.00337888  0.75127852  1
  Mg  Mg47  1  0.16707067  -0.00162870  0.25174515  1
  Mg  Mg48  1  0.83247984  -0.00267997  0.24724672  1
  Mg  Mg49  1  0.49994644  0.50011710  0.75553511  1
  Mg  Mg50  1  0.00342836  0.74735165  0.25536956  1
  Mg  Mg51  1  0.16709438  0.50309369  0.25300470  1
  Mg  Mg52  1  0.33089727  0.74902631  0.24914332  1
  Mg  Mg53  1  -0.00322503  0.41606826  0.74759337  1
  Mg  Mg54  1  0.16689674  0.66722605  0.75110660  1
  Mg  Mg55  1  0.32959799  0.58698179  0.24869370  1
  Mg  Mg56  1  0.16620095  0.16554693  0.25129594  1
  Mg  Mg57  1  0.66665575  0.41491151  0.74903984  1
  Mg  Mg58  1  0.00143237  0.08527096  0.74700922  1
  Mg  Mg59  1  0.83237037  0.83242119  0.24859847  1
  Mg  Mg60  1  0.50272001  0.33143605  0.75426331  1
  Mg  Mg61  1  0.66606529  0.08353765  0.24772956  1
  Mg  Mg62  1  0.50210907  0.16475498  0.75128919  1
  Mg  Mg63  1  0.83599827  0.66618792  0.25077032  1
  Mg  Mg64  1  0.33924011  0.91862808  0.75070953  1
  Mg  Mg65  1  0.16956208  0.83045201  0.25343945  1
  Mg  Mg66  1  0.16622440  0.33019446  0.75324638  1
  Mg  Mg67  1  0.33370963  0.91262962  0.24983569  1
  Mg  Mg68  1  -0.00192367  0.91674726  0.74650641  1
  Mg  Mg69  1  0.49859499  0.33379120  0.24799850  1
  Mg  Mg70  1  0.83151999  0.16796644  0.74886238  1
  Mg  Mg71  1  0.83170006  0.83277528  0.74470731  1
  Mg  Mg72  1  0.83321451  0.33500920  0.24958522  1
  Mg  Mg73  1  0.33614058  0.08514705  0.75479742  1
  Mg  Mg74  1  0.16818207  0.83608295  0.74936381  1
  Mg  Mg75  1  0.66461667  0.91328687  0.24393193  1
  Mg  Mg76  1  0.00215230  0.41715280  0.25440931  1
  Mg  Mg77  1  0.66405849  0.91779669  0.74636225  1
  Mg  Mg78  1  0.33319879  0.08243299  0.25013495  1
  Mg  Mg79  1  -0.00351703  0.58457667  0.74901095  1
  Mg  Mg80  1  0.33489766  0.58376798  0.75422648  1
  Mg  Mg81  1  0.50123020  0.83732785  0.75039688  1
  Mg  Mg82  1  0.66439448  0.08489215  0.74834934  1
  Mg  Mg83  1  0.33196519  0.41577821  0.24980331  1
  Mg  Mg84  1  0.00143167  0.91390292  0.25155264  1
  Mg  Mg85  1  0.49544111  0.66498133  0.24238063  1
  Mg  Mg86  1  0.66371920  0.58475556  0.24494050  1
  Mg  Mg87  1  0.00582928  0.58717876  0.25570160  1
  Mg  Mg88  1  0.49666910  0.83288861  0.24512933  1
  Mg  Mg89  1  0.49961762  0.16573700  0.24914814  1
  Mg  Mg90  1  0.66760202  0.58341350  0.74892169  1
  Mg  Mg91  1  0.33411833  0.41450788  0.75712053  1
  Mg  Mg92  1  0.66485958  0.41635030  0.24639889  1
  Mg  Mg93  1  -0.00047686  0.08323206  0.25086758  1
  Mg  Mg94  1  0.83272959  0.16488931  0.24934416  1
  Mg  Mg95  1  0.16677036  0.33370977  0.25273996  1
  Fe  Fe96  1  0.68324396  0.83202199  0.60674563  1
  Fe  Fe97  1  0.52905778  0.57831048  0.10540399  1
  Fe  Fe98  1  0.35357119  0.66693771  0.10481473  1
  Fe  Fe99  1  0.14381962  0.57777082  0.39547109  1
  Fe  Fe100  1  0.85627394  0.59341388  0.60814993  1
  Fe  Fe101  1  0.69330300  0.83243878  0.10615699  1
  Fe  Fe102  1  0.02116212  0.33283663  0.61019873  1
  Fe  Fe103  1  0.85656550  0.91069663  0.60685714  1
  Fe  Fe104  1  0.36072723  0.82746177  0.61167859  1
  Fe  Fe105  1  0.47944328  0.91372398  0.88998918  1
  Fe  Fe106  1  0.69282340  0.16954351  0.60850928  1
  Fe  Fe107  1  0.51924184  0.08293689  0.60952788  1
  Fe  Fe108  1  0.97199464  0.66856390  0.39488372  1
  Fe  Fe109  1  0.30583033  0.33354926  0.89509920  1
  Fe  Fe110  1  0.30973718  0.83585395  0.39234389  1
  Fe  Fe111  1  0.48000775  0.58806458  0.89335886  1
  Fe  Fe112  1  0.35479368  0.83899778  0.10607567  1
  Si  Si113  1  0.19445884  0.57892778  0.61995974  1
  Si  Si114  1  0.69365215  0.16612219  0.11302312  1
  Si  Si115  1  0.97608063  0.16777652  0.88450396  1
  Si  Si116  1  0.97268951  0.66881216  0.88344258  1
  Si  Si117  1  0.63345132  0.66537175  0.38019288  1
  Si  Si118  1  0.80641180  0.41702629  0.88496049  1
  Si  Si119  1  0.31359767  0.66504580  0.39007268  1
  Si  Si120  1  0.97298048  0.33400631  0.88445613  1
  Si  Si121  1  0.35495389  0.17286597  0.61664648  1
  Si  Si122  1  0.65592509  0.66989090  0.88813399  1
  Si  Si123  1  0.64191721  0.33378532  0.38310737  1
  Si  Si124  1  0.85907232  0.41913678  0.11554135  1
  Si  Si125  1  0.30103881  0.66830600  0.88845250  1
  Si  Si126  1  0.14583487  0.40644377  0.39028206  1
  Si  Si127  1  0.52010569  0.57748334  0.61810449  1
  Si  Si128  1  0.47211871  0.57933487  0.38320022  1
  Si  Si129  1  0.97204724  0.16550057  0.38553761  1
  Si  Si130  1  0.35236291  0.16526840  0.11496001  1
  Si  Si131  1  0.80999283  0.58150896  0.88457960  1
  Si  Si132  1  0.67642440  0.66512673  0.60883165  1
  Si  Si133  1  0.13848264  0.08100660  0.88575766  1
  Si  Si134  1  0.14222106  0.08740396  0.38628131  1
  Si  Si135  1  0.85683471  0.42034362  0.60532337  1
  Si  Si136  1  0.97192505  0.84071356  0.38719000  1
  Si  Si137  1  0.19496241  0.08611986  0.61991383  1
  Si  Si138  1  0.69391421  0.33224343  0.11305598  1
  Si  Si139  1  0.63746191  0.83074672  0.38108208  1
  Si  Si140  1  0.13617134  0.92157467  0.38809479  1
  Si  Si141  1  0.13503137  0.58574797  0.88572571  1
  Si  Si142  1  0.52224047  0.08983827  0.11332886  1
  Si  Si143  1  0.03342202  0.83181321  0.11705657  1
  Si  Si144  1  0.81066994  0.08445927  0.88355299  1
  Si  Si145  1  0.18993670  0.92363967  0.11374884  1
  Si  Si146  1  0.13587507  0.91705594  0.88504175  1
  Si  Si147  1  0.52037584  0.41617014  0.61708551  1
  Si  Si148  1  0.03238477  0.66616786  0.11810281  1
  Si  Si149  1  0.48230829  0.41441284  0.89380001  1
  Si  Si150  1  0.35355908  0.66148725  0.61680390  1
  Si  Si151  1  0.02226258  0.16918366  0.11574503  1
  Si  Si152  1  0.31274160  0.16332140  0.38557397  1
  Si  Si153  1  0.18557383  0.08535683  0.11571682  1
  Si  Si154  1  0.97260217  0.83252503  0.88364355  1
  Si  Si155  1  0.35812420  0.33654491  0.62039017  1
  Si  Si156  1  0.86791663  0.58453020  0.11626516  1
  Si  Si157  1  0.35290096  0.32932725  0.11529633  1
  Si  Si158  1  0.80571559  0.08205805  0.38381602  1
  Si  Si159  1  0.79799297  0.58406597  0.38460669  1
  Si  Si160  1  0.02697689  0.16313682  0.61484752  1
  Si  Si161  1  0.68480327  0.34029996  0.61090976  1
  Si  Si162  1  0.47962491  0.08367980  0.38356467  1
  Si  Si163  1  0.69900789  0.66008507  0.11014814  1
  Si  Si164  1  0.19190291  0.57562089  0.11300253  1
  Si  Si165  1  0.03461346  0.66984523  0.61328896  1
  Si  Si166  1  0.85948425  0.08140240  0.11384552  1
  Si  Si167  1  0.03590156  0.83574677  0.61275530  1
  Si  Si168  1  0.47775127  0.08676039  0.89062055  1
  Si  Si169  1  0.81200932  0.92071331  0.88356795  1
  Si  Si170  1  0.97221685  0.33159353  0.38587200  1
  Si  Si171  1  0.86767571  0.91489312  0.11197126  1
  Si  Si172  1  0.64238981  0.16908117  0.38314156  1
  Si  Si173  1  0.80690361  0.41766583  0.38360801  1
  Si  Si174  1  0.52301587  0.91662725  0.61055912  1
  Si  Si175  1  0.02273355  0.33303883  0.11670590  1
  Si  Si176  1  0.86226636  0.08337845  0.61080993  1
  Si  Si177  1  0.47544241  0.41472770  0.38389650  1
  Si  Si178  1  0.64379012  0.16664722  0.88534183  1
  Si  Si179  1  0.65198022  0.83350819  0.88745555  1
  Si  Si180  1  0.30090561  0.83424319  0.88772429  1
  Si  Si181  1  0.80157277  0.91669846  0.38245706  1
  Si  Si182  1  0.64570481  0.33232548  0.88617161  1
  Si  Si183  1  0.13533201  0.42031385  0.89041997  1
  Si  Si184  1  0.52888544  0.92388517  0.10883478  1
  Si  Si185  1  0.31210980  0.32760868  0.38602653  1
  Si  Si186  1  0.52021450  0.40666422  0.11072691  1
  Si  Si187  1  0.19934913  0.92230299  0.61595815  1
  Si  Si188  1  0.47907105  0.92078014  0.38551503  1
  Si  Si189  1  0.19344402  0.41612822  0.61732809  1
  Si  Si190  1  0.30782184  0.16178495  0.89159505  1
  Si  Si191  1  0.18798760  0.41343374  0.11617170  1
  O  O192  1  0.26970003  0.11440810  0.08765333  1
  O  O193  1  0.27002588  0.12462538  0.58735139  1
  O  O194  1  0.26749998  0.59663362  0.07522715  1
  O  O195  1  0.27815253  0.60206414  0.59021372  1
  O  O196  1  0.60198408  0.12853895  0.08554033  1
  O  O197  1  0.60441495  0.11361692  0.56478202  1
  O  O198  1  0.63589050  0.59520011  0.08272920  1
  O  O199  1  0.59758667  0.60624845  0.58297657  1
  O  O200  1  0.93765608  0.12228520  0.08633776  1
  O  O201  1  0.95269329  0.10468298  0.58671414  1
  O  O202  1  0.94911004  0.61649074  0.08679671  1
  O  O203  1  0.95004801  0.63292561  0.57484609  1
  O  O204  1  0.10585664  0.36126748  0.08829240  1
  O  O205  1  0.11922147  0.36552405  0.57932669  1
  O  O206  1  0.11236906  0.86664578  0.08669350  1
  O  O207  1  0.11534670  0.87482316  0.58599861  1
  O  O208  1  0.43871658  0.35137933  0.08794157  1
  O  O209  1  0.44002200  0.36254774  0.58801105  1
  O  O210  1  0.45202657  0.87381675  0.07521678  1
  O  O211  1  0.45860839  0.85142534  0.58087126  1
  O  O212  1  0.77100602  0.37548951  0.08665039  1
  O  O213  1  0.76288368  0.38052301  0.58239144  1
  O  O214  1  0.79087327  0.86716768  0.07565637  1
  O  O215  1  0.77262263  0.85305269  0.56350142  1
  O  O216  1  0.27043537  0.37995862  0.08841672  1
  O  O217  1  0.28184415  0.39271942  0.59127690  1
  O  O218  1  0.26980018  0.91055980  0.07902498  1
  O  O219  1  0.27530160  0.89468362  0.58116259  1
  O  O220  1  0.60218165  0.36769526  0.08491876  1
  O  O221  1  0.59883006  0.38967863  0.58177318  1
  O  O222  1  0.61520231  0.90680959  0.08155174  1
  O  O223  1  0.60788427  0.90662191  0.57769973  1
  O  O224  1  0.93840358  0.38053314  0.08758570  1
  O  O225  1  0.92374541  0.37896063  0.56574737  1
  O  O226  1  0.95339738  0.88425071  0.08703121  1
  O  O227  1  0.95310037  0.87612818  0.57515464  1
  O  O228  1  0.10558745  0.13947361  0.08804235  1
  O  O229  1  0.11062220  0.13125333  0.58736049  1
  O  O230  1  0.10934580  0.62896984  0.08733784  1
  O  O231  1  0.11691774  0.63184205  0.58898929  1
  O  O232  1  0.43649624  0.13797579  0.08698888  1
  O  O233  1  0.42807200  0.14766451  0.57761985  1
  O  O234  1  0.45106058  0.64578263  0.07131839  1
  O  O235  1  0.43727915  0.62797857  0.59064436  1
  O  O236  1  0.76973832  0.12257779  0.08562886  1
  O  O237  1  0.79270108  0.14171057  0.57782536  1
  O  O238  1  0.79036914  0.63752020  0.08680883  1
  O  O239  1  0.75376978  0.63908050  0.57252256  1
  O  O240  1  0.06362150  0.12771093  0.41363240  1
  O  O241  1  0.06617503  0.12775285  0.91715124  1
  O  O242  1  0.05405647  0.60648261  0.43453414  1
  O  O243  1  0.06333281  0.63143046  0.91715235  1
  O  O244  1  0.39536501  0.11278165  0.41164714  1
  O  O245  1  0.40008763  0.12485724  0.92326197  1
  O  O246  1  0.39369648  0.60758220  0.41608619  1
  O  O247  1  0.38831172  0.63327922  0.92395867  1
  O  O248  1  0.72823526  0.12335161  0.41105776  1
  O  O249  1  0.73339790  0.12273656  0.91509859  1
  O  O250  1  0.70993880  0.60961669  0.40850706  1
  O  O251  1  0.74031882  0.62160250  0.92235174  1
  O  O252  1  0.22745895  0.35108891  0.41414492  1
  O  O253  1  0.22113918  0.38460933  0.92983668  1
  O  O254  1  0.21187369  0.87151661  0.42297537  1
  O  O255  1  0.22531689  0.87961237  0.91625957  1
  O  O256  1  0.56107996  0.36746980  0.41141354  1
  O  O257  1  0.56999659  0.36660893  0.92034679  1
  O  O258  1  0.56040412  0.86786613  0.41138844  1
  O  O259  1  0.57944307  0.86311013  0.92589184  1
  O  O260  1  0.89430140  0.37328199  0.41146739  1
  O  O261  1  0.89420355  0.37127330  0.91449152  1
  O  O262  1  0.88799701  0.87474364  0.41261308  1
  O  O263  1  0.90095912  0.87826367  0.91468073  1
  O  O264  1  0.06352493  0.36711275  0.41485384  1
  O  O265  1  0.05743131  0.37880470  0.91963932  1
  O  O266  1  0.04621812  0.90126705  0.41126694  1
  O  O267  1  0.06259438  0.87186388  0.91518911  1
  O  O268  1  0.39547023  0.37778046  0.41275245  1
  O  O269  1  0.41062140  0.37504294  0.92855400  1
  O  O270  1  0.39941040  0.90137364  0.41930707  1
  O  O271  1  0.38871145  0.86883283  0.92295234  1
  O  O272  1  0.72798374  0.37868967  0.41146245  1
  O  O273  1  0.73312441  0.37581946  0.91993186  1
  O  O274  1  0.72284604  0.87787629  0.40862857  1
  O  O275  1  0.73764340  0.88268867  0.91590956  1
  O  O276  1  0.22964493  0.13271409  0.41349656  1
  O  O277  1  0.23218932  0.11259777  0.91725360  1
  O  O278  1  0.23813498  0.63605660  0.42615179  1
  O  O279  1  0.22502160  0.62326086  0.91614277  1
  O  O280  1  0.55906838  0.13816850  0.40945873  1
  O  O281  1  0.56645998  0.13332749  0.91968647  1
  O  O282  1  0.55291124  0.63197496  0.40962331  1
  O  O283  1  0.57875665  0.64215261  0.92268450  1
  O  O284  1  0.89617779  0.12182763  0.41232876  1
  O  O285  1  0.89963310  0.12727923  0.91563774  1
  O  O286  1  0.87045185  0.63628815  0.42026097  1
  O  O287  1  0.90108806  0.62262366  0.91388757  1
  O  O288  1  0.15415410  0.00593334  0.08856800  1
  O  O289  1  0.17863187  0.00518553  0.58795756  1
  O  O290  1  0.16110069  0.49247371  0.08601719  1
  O  O291  1  0.17103658  0.49855075  0.59005106  1
  O  O292  1  0.50463308  0.00937360  0.08506777  1
  O  O293  1  0.47853122  -0.00795192  0.58145351  1
  O  O294  1  0.49714410  0.48241079  0.07664073  1
  O  O295  1  0.49383489  0.49654772  0.58655212  1
  O  O296  1  0.85698930  -0.00013057  0.08506497  1
  O  O297  1  0.83759729  0.00592517  0.57607065  1
  O  O298  1  0.85122281  0.50140283  0.08674078  1
  O  O299  1  0.84332169  0.50007787  0.57209939  1
  O  O300  1  0.00375119  0.25106848  0.08793381  1
  O  O301  1  0.00562768  0.23835128  0.57579598  1
  O  O302  1  0.01833741  0.74929062  0.08759723  1
  O  O303  1  0.03724062  0.75275506  0.58614700  1
  O  O304  1  0.32799642  0.24711143  0.08855422  1
  O  O305  1  0.32938360  0.25659120  0.59067880  1
  O  O306  1  0.31140456  0.75406038  0.06965277  1
  O  O307  1  0.32742899  0.73539547  0.57749438  1
  O  O308  1  0.69359110  0.24895338  0.08533920  1
  O  O309  1  0.67138407  0.26403234  0.57204732  1
  O  O310  1  0.67103615  0.73736810  0.07662272  1
  O  O311  1  0.64087882  0.74142038  0.57725010  1
  O  O312  1  0.15396822  0.00622285  0.41511652  1
  O  O313  1  0.13392747  -0.00131129  0.91651654  1
  O  O314  1  0.16995459  0.48087945  0.42662086  1
  O  O315  1  0.13178959  0.50462111  0.91666115  1
  O  O316  1  0.50841707  0.00405028  0.41039648  1
  O  O317  1  0.49183524  0.00868884  0.92568485  1
  O  O318  1  0.49186537  0.49630604  0.41251708  1
  O  O319  1  0.49989867  0.49356136  0.92633161  1
  O  O320  1  0.80908769  -0.00014123  0.41134205  1
  O  O321  1  0.82374919  0.00273125  0.91607924  1
  O  O322  1  0.81483672  0.49962446  0.41089986  1
  O  O323  1  0.82149708  0.49886182  0.91762318  1
  O  O324  1  0.33482675  0.24513816  0.41321716  1
  O  O325  1  0.30641781  0.23852068  0.92934972  1
  O  O326  1  0.34428895  0.74346029  0.42033355  1
  O  O327  1  0.29108653  0.75136055  0.91381454  1
  O  O328  1  0.65702053  0.25135084  0.41071412  1
  O  O329  1  0.65977425  0.24910251  0.91593119  1
  O  O330  1  0.65083430  0.74771812  0.40880871  1
  O  O331  1  0.68089257  0.75240165  0.91486856  1
  O  O332  1  0.97383990  0.24809250  0.41280800  1
  O  O333  1  0.98252547  0.25043529  0.91569320  1
  O  O334  1  0.99563127  0.76544406  0.42342743  1
  O  O335  1  0.97397455  0.75099323  0.91548345  1
  O  O336  1  0.20703432  0.08618423  0.19638721  1
  O  O337  1  0.21351610  0.08363408  0.69922388  1
  O  O338  1  0.21311696  0.57334919  0.19284268  1
  O  O339  1  0.21015313  0.58109313  0.70029301  1
  O  O340  1  0.54319548  0.08831958  0.19408895  1
  O  O341  1  0.54459874  0.08610503  0.69974932  1
  O  O342  1  0.54454762  0.58011136  0.19840225  1
  O  O343  1  0.54361422  0.57493414  0.69685064  1
  O  O344  1  0.87670806  0.08414606  0.19453545  1
  O  O345  1  0.87857155  0.08208574  0.69234451  1
  O  O346  1  0.88125518  0.58037285  0.19643993  1
  O  O347  1  0.88376159  0.59484873  0.69587082  1
  O  O348  1  0.04139490  0.33211761  0.19737233  1
  O  O349  1  0.04736706  0.33373180  0.70136963  1
  O  O350  1  0.04641776  0.83381278  0.19730773  1
  O  O351  1  0.04758196  0.83622884  0.69365038  1
  O  O352  1  0.37346223  0.33023581  0.19610097  1
  O  O353  1  0.37824468  0.33493264  0.70030025  1
  O  O354  1  0.37799543  0.83535640  0.19856563  1
  O  O355  1  0.37618599  0.83221844  0.70252154  1
  O  O356  1  0.71145122  0.33160057  0.19397071  1
  O  O357  1  0.69622034  0.33575770  0.68955733  1
  O  O358  1  0.71356098  0.83321642  0.19849430  1
  O  O359  1  0.71202279  0.83555166  0.69863801  1
  O  O360  1  0.20780694  0.41177371  0.19684399  1
  O  O361  1  0.20934614  0.41631607  0.69790710  1
  O  O362  1  0.20716742  0.92170036  0.19460710  1
  O  O363  1  0.21241170  0.91975763  0.69674102  1
  O  O364  1  0.54208096  0.41030745  0.19215437  1
  O  O365  1  0.53800998  0.41504191  0.69712532  1
  O  O366  1  0.54344473  0.92115383  0.19093206  1
  O  O367  1  0.54538208  0.91542813  0.69150130  1
  O  O368  1  0.87703564  0.41581007  0.19601160  1
  O  O369  1  0.88761467  0.41682098  0.68366839  1
  O  O370  1  0.88016548  0.91753906  0.19311700  1
  O  O371  1  0.87984720  0.91665665  0.69878040  1
  O  O372  1  0.04083743  0.16723303  0.19643674  1
  O  O373  1  0.04319855  0.16644941  0.69471783  1
  O  O374  1  0.04273581  0.66765175  0.19701322  1
  O  O375  1  0.04771504  0.66799544  0.69401386  1
  O  O376  1  0.37368899  0.16567092  0.19569855  1
  O  O377  1  0.37481499  0.16924178  0.69709317  1
  O  O378  1  0.37454765  0.66571632  0.19834596  1
  O  O379  1  0.36450310  0.66692800  0.69621351  1
  O  O380  1  0.71114395  0.16678089  0.19384051  1
  O  O381  1  0.71302332  0.16521453  0.69919523  1
  O  O382  1  0.71453738  0.66438566  0.19219683  1
  O  O383  1  0.69898429  0.66503149  0.68910422  1
  O  O384  1  0.12254028  0.08663291  0.30545616  1
  O  O385  1  0.12011783  0.07972392  0.80670361  1
  O  O386  1  0.12171103  0.57745623  0.30365513  1
  O  O387  1  0.12118624  0.58548751  0.80580852  1
  O  O388  1  0.45768456  0.08540233  0.30272068  1
  O  O389  1  0.45513702  0.09054196  0.81131154  1
  O  O390  1  0.45406842  0.57726047  0.30320484  1
  O  O391  1  0.45034163  0.57678378  0.80475630  1
  O  O392  1  0.78954517  0.08423825  0.30295627  1
  O  O393  1  0.79501622  0.08125375  0.80446191  1
  O  O394  1  0.78602242  0.58228368  0.30328973  1
  O  O395  1  0.78550825  0.58435168  0.80679652  1
  O  O396  1  0.29181350  0.32950389  0.30522168  1
  O  O397  1  0.28762423  0.33300947  0.80414769  1
  O  O398  1  0.28787855  0.83584214  0.30072381  1
  O  O399  1  0.28488201  0.83627160  0.80743003  1
  O  O400  1  0.62324455  0.33266080  0.30224850  1
  O  O401  1  0.62335436  0.33525409  0.80726576  1
  O  O402  1  0.62015772  0.83328980  0.30056012  1
  O  O403  1  0.62842830  0.83617911  0.80774879  1
  O  O404  1  0.95504043  0.33143447  0.30479232  1
  O  O405  1  0.96347491  0.33316497  0.80626366  1
  O  O406  1  0.95427637  0.83671600  0.30573675  1
  O  O407  1  0.95871769  0.83278633  0.80423326  1
  O  O408  1  0.12471594  0.40999934  0.30882089  1
  O  O409  1  0.12466920  0.41782591  0.81047472  1
  O  O410  1  0.12198219  0.92123640  0.30671993  1
  O  O411  1  0.12049568  0.91763209  0.80503429  1
  O  O412  1  0.45630261  0.41282856  0.30331373  1
  O  O413  1  0.45973964  0.41344610  0.81263862  1
  O  O414  1  0.45981244  0.92028930  0.30424501  1
  O  O415  1  0.45796042  0.91942005  0.80080877  1
  O  O416  1  0.78883429  0.41464130  0.30284467  1
  O  O417  1  0.78136351  0.41649513  0.80747088  1
  O  O418  1  0.78807478  0.91931515  0.30186756  1
  O  O419  1  0.79507436  0.91956301  0.80446980  1
  O  O420  1  0.29069137  0.16536420  0.30480995  1
  O  O421  1  0.29438849  0.16569953  0.81202752  1
  O  O422  1  0.29473864  0.66426546  0.30939697  1
  O  O423  1  0.28656644  0.66693907  0.80783774  1
  O  O424  1  0.62484274  0.16772411  0.30223053  1
  O  O425  1  0.62250720  0.16419876  0.80689125  1
  O  O426  1  0.62038195  0.66691683  0.29988762  1
  O  O427  1  0.63926751  0.66714589  0.80882537  1
  O  O428  1  0.95527707  0.16574758  0.30452005  1
  O  O429  1  0.96066981  0.16466039  0.80532438  1
  O  O430  1  0.95415526  0.66637486  0.30186000  1
  O  O431  1  0.96357211  0.67024762  0.80503031  1
  F  F432  1  0.04456578  0.00241678  0.20343880  1
  F  F433  1  0.04835459  0.00006383  0.70135292  1
  F  F434  1  0.04420993  0.49425420  0.20337391  1
  F  F435  1  0.04930616  0.50133260  0.70248059  1
  F  F436  1  0.37778731  0.00330297  0.20199704  1
  F  F437  1  0.36982279  0.00515313  0.70281437  1
  F  F438  1  0.37720470  0.49398606  0.20121688  1
  F  F439  1  0.37564101  0.49547753  0.70648477  1
  F  F440  1  0.71341852  0.00405011  0.19900349  1
  F  F441  1  0.71374918  0.00154985  0.70037587  1
  F  F442  1  0.71451135  0.49643067  0.20111921  1
  F  F443  1  0.69545277  0.49853373  0.69651525  1
  F  F444  1  0.20978084  0.24875678  0.20349623  1
  F  F445  1  0.21372734  0.25067609  0.70354070  1
  F  F446  1  0.20898600  0.75025710  0.20361787  1
  F  F447  1  0.21231626  0.75110289  0.70519036  1
  F  F448  1  0.54486937  0.24901760  0.20071996  1
  F  F449  1  0.53674985  0.25022766  0.70283472  1
  F  F450  1  0.54571262  0.75080967  0.19801810  1
  F  F451  1  0.55065178  0.75896368  0.70457251  1
  F  F452  1  0.87814260  0.24922309  0.20146985  1
  F  F453  1  0.88629198  0.24002804  0.69879650  1
  F  F454  1  0.88134984  0.75183584  0.20219132  1
  F  F455  1  0.88458253  0.75896121  0.69391921  1
  F  F456  1  0.28739107  0.00347968  0.29810799  1
  F  F457  1  0.28739653  0.00034167  0.80315350  1
  F  F458  1  0.28922933  0.49486510  0.29876957  1
  F  F459  1  0.28581992  0.49909973  0.80301712  1
  F  F460  1  0.62240652  0.00170192  0.29381582  1
  F  F461  1  0.63496814  -0.00010707  0.80142961  1
  F  F462  1  0.62080330  0.49419511  0.29606116  1
  F  F463  1  0.62102265  0.49822553  0.80155649  1
  F  F464  1  0.95257308  0.00205566  0.29710512  1
  F  F465  1  0.95755407  0.00163179  0.79761227  1
  F  F466  1  0.95255623  0.49588653  0.30038406  1
  F  F467  1  0.96771097  0.49964218  0.80167482  1
  F  F468  1  0.12025462  0.24801649  0.29923756  1
  F  F469  1  0.12094079  0.25043476  0.80475052  1
  F  F470  1  0.11838323  0.75714157  0.30441170  1
  F  F471  1  0.11930608  0.75232565  0.79696784  1
  F  F472  1  0.45529153  0.24905660  0.29706643  1
  F  F473  1  0.45443953  0.24988621  0.80259712  1
  F  F474  1  0.45946711  0.74892451  0.29617436  1
  F  F475  1  0.45161861  0.76034638  0.80832156  1
  F  F476  1  0.78804350  0.24927900  0.29681891  1
  F  F477  1  0.80273150  0.23681331  0.81486887  1
  F  F478  1  0.78718836  0.74868870  0.29703087  1
  F  F479  1  0.79325038  0.75175798  0.79557448  1
