# generated using pymatgen
data_K24Na3Li5Mg64Fe17Si79(O5F)48
_symmetry_space_group_name_H-M   'P 1'
_cell_length_a   16.09451531
_cell_length_b   18.59183240
_cell_length_c   20.55210043
_cell_angle_alpha   89.96720658
_cell_angle_beta   100.00340238
_cell_angle_gamma   90.03980500
_symmetry_Int_Tables_number   1
_chemical_formula_structural   K24Na3Li5Mg64Fe17Si79(O5F)48
_chemical_formula_sum   'K24 Na3 Li5 Mg64 Fe17 Si79 O240 F48'
_cell_volume   6056.23992551
_cell_formula_units_Z   1
loop_
 _symmetry_equiv_pos_site_id
 _symmetry_equiv_pos_as_xyz
  1  'x, y, z'
loop_
 _atom_site_type_symbol
 _atom_site_label
 _atom_site_symmetry_multiplicity
 _atom_site_fract_x
 _atom_site_fract_y
 _atom_site_fract_z
 _atom_site_occupancy
  K  K0  1  0.00870576  -0.00807948  0.00146655  1
  K  K1  1  -0.00166136  -0.00104314  0.50082466  1
  K  K2  1  0.00696915  0.49438133  0.00681178  1
  K  K3  1  -0.00470116  0.50808155  0.49219571  1
  K  K4  1  0.32099142  0.00608793  -0.00358024  1
  K  K5  1  0.34073241  -0.00945221  0.50168324  1
  K  K6  1  0.32968746  0.50048464  -0.00082811  1
  K  K7  1  0.32611342  0.49419472  0.49792827  1
  K  K8  1  0.67229787  -0.00287036  0.01045501  1
  K  K9  1  0.65836352  -0.00448091  0.48840633  1
  K  K10  1  0.66918392  0.50169398  0.00930078  1
  K  K11  1  0.67793253  0.49630600  0.49318976  1
  K  K12  1  0.16343217  0.24870207  -0.00421634  1
  K  K13  1  0.17237456  0.25641437  0.50141809  1
  K  K14  1  0.15996419  0.74685456  0.00226055  1
  K  K15  1  0.16240567  0.74441240  0.49570995  1
  K  K16  1  0.49814867  0.24883076  0.00189175  1
  K  K17  1  0.49534278  0.25409098  0.49683569  1
  K  K18  1  0.50174291  0.74463007  0.00380004  1
  K  K19  1  0.48806618  0.75196358  0.49478232  1
  K  K20  1  0.84179970  0.25382638  0.00388399  1
  K  K21  1  0.83665685  0.25937602  0.49554020  1
  K  K22  1  0.83956446  0.75836143  0.02521118  1
  K  K23  1  0.84301982  0.75312752  0.48715926  1
  Na  Na24  1  0.83504330  0.00064769  0.75154048  1
  Na  Na25  1  0.83347483  0.83330207  0.24434211  1
  Na  Na26  1  0.33539730  0.41846729  0.24727673  1
  Li  Li27  1  0.16690259  0.00374413  0.75614079  1
  Li  Li28  1  -0.00949178  0.75209597  0.24401789  1
  Li  Li29  1  0.50096759  0.16774213  0.25260435  1
  Li  Li30  1  -0.00164347  0.42176667  0.24798513  1
  Li  Li31  1  0.67127933  0.91451103  0.24844315  1
  Mg  Mg32  1  0.50132912  0.49983853  0.24660117  1
  Mg  Mg33  1  0.33405093  0.75115380  0.25324294  1
  Mg  Mg34  1  0.66420786  0.25119664  0.25175975  1
  Mg  Mg35  1  0.49861473  0.49887309  0.74858748  1
  Mg  Mg36  1  0.33720916  0.25037811  0.25077995  1
  Mg  Mg37  1  0.16476284  0.49894708  0.25043685  1
  Mg  Mg38  1  0.50258514  0.00077796  0.25590143  1
  Mg  Mg39  1  0.00124763  0.75161076  0.75003121  1
  Mg  Mg40  1  0.16636087  0.49953761  0.75048134  1
  Mg  Mg41  1  0.33136742  0.24999903  0.75245413  1
  Mg  Mg42  1  0.66452683  0.24891887  0.74832948  1
  Mg  Mg43  1  0.83670573  0.49876831  0.24963737  1
  Mg  Mg44  1  0.49854287  -0.00084351  0.74870874  1
  Mg  Mg45  1  0.33330977  0.74985837  0.74784807  1
  Mg  Mg46  1  0.67013033  0.75317261  0.24890493  1
  Mg  Mg47  1  0.16773281  -0.00197889  0.25064946  1
  Mg  Mg48  1  -0.00027167  0.24887960  0.75262955  1
  Mg  Mg49  1  0.66682187  0.75174051  0.74878892  1
  Mg  Mg50  1  0.83014495  -0.00047328  0.24794296  1
  Mg  Mg51  1  0.83321370  0.49927849  0.74682655  1
  Mg  Mg52  1  0.00038283  0.25371540  0.24846351  1
  Mg  Mg53  1  0.00415907  0.91977378  0.75350519  1
  Mg  Mg54  1  0.66540358  0.08233145  0.74798979  1
  Mg  Mg55  1  0.49590893  0.16453996  0.74823135  1
  Mg  Mg56  1  0.66717352  0.91696225  0.74796092  1
  Mg  Mg57  1  0.83118038  0.16715788  0.25016911  1
  Mg  Mg58  1  0.00288622  0.08208776  0.75364254  1
  Mg  Mg59  1  0.83317764  0.66617769  0.74862786  1
  Mg  Mg60  1  0.33325702  0.58334838  0.25037821  1
  Mg  Mg61  1  -0.00212274  0.08351047  0.24745324  1
  Mg  Mg62  1  0.16236066  0.83085123  0.25215727  1
  Mg  Mg63  1  0.16903175  0.83734440  0.75179046  1
  Mg  Mg64  1  0.33077003  0.91592303  0.74802639  1
  Mg  Mg65  1  0.16974121  0.66593717  0.75155245  1
  Mg  Mg66  1  -0.00219527  0.91381622  0.24921790  1
  Mg  Mg67  1  -0.00247825  0.58451981  0.24679775  1
  Mg  Mg68  1  0.83291300  0.16544719  0.75168083  1
  Mg  Mg69  1  0.50105110  0.66692618  0.24928428  1
  Mg  Mg70  1  0.66723368  0.41677540  0.24869949  1
  Mg  Mg71  1  0.16605508  0.33514107  0.24814496  1
  Mg  Mg72  1  0.33118700  0.58429860  0.74901048  1
  Mg  Mg73  1  0.66621057  0.58410905  0.74709548  1
  Mg  Mg74  1  0.83527300  0.83502460  0.75065673  1
  Mg  Mg75  1  0.16277242  0.66618009  0.25057716  1
  Mg  Mg76  1  0.49825573  0.66506220  0.74679944  1
  Mg  Mg77  1  0.49724101  0.83368435  0.74674114  1
  Mg  Mg78  1  0.50579955  0.83703075  0.25419943  1
  Mg  Mg79  1  0.00108588  0.58529882  0.75036659  1
  Mg  Mg80  1  0.66931989  0.58596759  0.24853559  1
  Mg  Mg81  1  0.66287117  0.08319549  0.25310312  1
  Mg  Mg82  1  0.33628066  0.91543104  0.25418198  1
  Mg  Mg83  1  0.32879188  0.08287675  0.75122267  1
  Mg  Mg84  1  0.33752155  0.08406993  0.25458316  1
  Mg  Mg85  1  -0.00027880  0.41579687  0.75017310  1
  Mg  Mg86  1  0.50024168  0.33301805  0.25085126  1
  Mg  Mg87  1  0.83559337  0.33622594  0.25038591  1
  Mg  Mg88  1  0.16835345  0.16355177  0.75374518  1
  Mg  Mg89  1  0.83462630  0.66908630  0.24558025  1
  Mg  Mg90  1  0.83320347  0.33481800  0.74836816  1
  Mg  Mg91  1  0.49634656  0.33353153  0.74814151  1
  Mg  Mg92  1  0.16687776  0.33486777  0.75176751  1
  Mg  Mg93  1  0.66422351  0.41433753  0.74599146  1
  Mg  Mg94  1  0.33415690  0.41430475  0.75006003  1
  Mg  Mg95  1  0.16805139  0.16661383  0.25079421  1
  Fe  Fe96  1  0.86032884  0.41035028  0.11007703  1
  Fe  Fe97  1  0.86300423  0.41787329  0.60922095  1
  Fe  Fe98  1  0.69003158  0.66953251  0.10789947  1
  Fe  Fe99  1  0.97745630  0.67661211  0.38543979  1
  Fe  Fe100  1  0.13703037  0.08335166  0.89435009  1
  Fe  Fe101  1  0.85861285  0.92490488  0.10534155  1
  Fe  Fe102  1  0.81261272  0.41504855  0.39030776  1
  Fe  Fe103  1  0.52135619  0.41549962  0.10943843  1
  Fe  Fe104  1  0.47771668  0.41812746  0.88883187  1
  Fe  Fe105  1  0.31299365  0.66934334  0.89059283  1
  Fe  Fe106  1  0.35860734  0.33200993  0.60782934  1
  Fe  Fe107  1  0.31426373  0.16763307  0.89334564  1
  Fe  Fe108  1  0.13850850  0.41597917  0.89056414  1
  Fe  Fe109  1  0.02763026  0.82848083  0.10931279  1
  Fe  Fe110  1  0.35534465  0.83055002  0.60732912  1
  Fe  Fe111  1  0.47643108  0.91447688  0.39487853  1
  Fe  Fe112  1  0.18628250  0.57924809  0.60955064  1
  Si  Si113  1  0.63852519  0.33375048  0.39042839  1
  Si  Si114  1  0.96438737  0.16682993  0.89002840  1
  Si  Si115  1  0.02323265  0.67297148  0.61416122  1
  Si  Si116  1  0.19758347  0.41548372  0.11490920  1
  Si  Si117  1  0.35935653  0.32476855  0.11265621  1
  Si  Si118  1  0.69416174  0.32902399  0.61149190  1
  Si  Si119  1  0.53202572  0.58383283  0.61189866  1
  Si  Si120  1  0.80762561  0.92178678  0.38567291  1
  Si  Si121  1  0.02883914  0.32837416  0.61372892  1
  Si  Si122  1  0.69386861  0.67238311  0.61313485  1
  Si  Si123  1  0.68377948  0.16747144  0.11744976  1
  Si  Si124  1  0.48012996  0.91805217  0.88382645  1
  Si  Si125  1  0.52275767  0.91990627  0.11706114  1
  Si  Si126  1  0.02299338  0.16491551  0.61509462  1
  Si  Si127  1  0.96718181  0.66524941  0.88499420  1
  Si  Si128  1  0.97252011  0.83070443  0.88619777  1
  Si  Si129  1  0.30948256  0.17052730  0.38786829  1
  Si  Si130  1  0.98069829  0.32534493  0.38801328  1
  Si  Si131  1  0.35727824  0.67183241  0.11691516  1
  Si  Si132  1  0.02355482  0.83748447  0.61609352  1
  Si  Si133  1  0.30983726  0.33633614  0.88986449  1
  Si  Si134  1  0.68971119  0.16438970  0.61350816  1
  Si  Si135  1  0.47561872  0.58421290  0.38583692  1
  Si  Si136  1  0.47521978  0.08551722  0.39126788  1
  Si  Si137  1  0.68188580  0.83799543  0.10912228  1
  Si  Si138  1  0.97810839  0.84510910  0.39017120  1
  Si  Si139  1  0.80942643  0.58630825  0.38712331  1
  Si  Si140  1  0.02858372  0.16753046  0.11490191  1
  Si  Si141  1  0.30762812  0.33416845  0.38417740  1
  Si  Si142  1  0.64152756  0.67012499  0.88187409  1
  Si  Si143  1  0.97807327  0.16119983  0.38560438  1
  Si  Si144  1  0.36054615  0.65852430  0.60786005  1
  Si  Si145  1  0.19184450  0.07918901  0.11812886  1
  Si  Si146  1  0.85713569  0.58925213  0.61199719  1
  Si  Si147  1  0.02888232  0.65696601  0.11087843  1
  Si  Si148  1  0.47936604  0.08013104  0.88643865  1
  Si  Si149  1  0.79810571  0.41638084  0.88245099  1
  Si  Si150  1  0.03474555  0.33146020  0.11047351  1
  Si  Si151  1  0.31521696  0.83817078  0.88824850  1
  Si  Si152  1  0.14182286  0.57942492  0.38639890  1
  Si  Si153  1  0.69669014  0.83656207  0.61380953  1
  Si  Si154  1  0.18758996  0.41279203  0.61170092  1
  Si  Si155  1  0.96490535  0.33351829  0.88784610  1
  Si  Si156  1  0.85414165  0.09441728  0.11154077  1
  Si  Si157  1  0.51803432  0.58521666  0.11104116  1
  Si  Si158  1  0.48272328  0.58394280  0.88617336  1
  Si  Si159  1  0.86192233  0.91805197  0.61641897  1
  Si  Si160  1  0.14224522  0.91040572  0.88964684  1
  Si  Si161  1  0.19878163  0.91407312  0.11649529  1
  Si  Si162  1  0.63915102  0.32721051  0.88410095  1
  Si  Si163  1  0.30670299  0.66206962  0.38491742  1
  Si  Si164  1  0.64096484  0.16409278  0.88335439  1
  Si  Si165  1  0.64140077  0.66504169  0.38531488  1
  Si  Si166  1  0.35490957  0.16348192  0.11805200  1
  Si  Si167  1  0.69046399  0.32930926  0.11230160  1
  Si  Si168  1  0.14277381  0.92010336  0.38703051  1
  Si  Si169  1  0.35473844  0.15984160  0.61043219  1
  Si  Si170  1  0.53185625  0.41721236  0.60894184  1
  Si  Si171  1  0.80052907  0.08252543  0.88456119  1
  Si  Si172  1  0.36251419  0.83552498  0.11824986  1
  Si  Si173  1  0.53034028  0.91559273  0.61227722  1
  Si  Si174  1  0.64801349  0.82984075  0.38933735  1
  Si  Si175  1  0.14227839  0.41336058  0.38410581  1
  Si  Si176  1  0.18793766  0.08182638  0.61528654  1
  Si  Si177  1  0.18849290  0.91778237  0.61273463  1
  Si  Si178  1  0.85858559  0.58055141  0.10842487  1
  Si  Si179  1  0.80214485  0.58172644  0.88256845  1
  Si  Si180  1  0.14637119  0.08342834  0.38604889  1
  Si  Si181  1  0.30186446  0.82852950  0.38894066  1
  Si  Si182  1  0.52429211  0.08092623  0.61356937  1
  Si  Si183  1  0.47503539  0.41842789  0.38545937  1
  Si  Si184  1  0.64275804  0.83396871  0.88377255  1
  Si  Si185  1  0.52100928  0.08237445  0.11880613  1
  Si  Si186  1  0.80682165  0.08573305  0.38751276  1
  Si  Si187  1  0.64166066  0.16867738  0.38758320  1
  Si  Si188  1  0.85872897  0.08519119  0.61592061  1
  Si  Si189  1  0.80658359  0.91568892  0.88448941  1
  Si  Si190  1  0.19692035  0.58083825  0.11457978  1
  Si  Si191  1  0.13803508  0.58908748  0.89039392  1
  O  O192  1  0.27218701  0.11261366  0.08887578  1
  O  O193  1  0.26993210  0.10969234  0.58307054  1
  O  O194  1  0.27465051  0.62238337  0.08677183  1
  O  O195  1  0.28793728  0.60057635  0.57921297  1
  O  O196  1  0.60351710  0.11351037  0.08870333  1
  O  O197  1  0.60443354  0.11722760  0.58485115  1
  O  O198  1  0.59557864  0.61063444  0.07550708  1
  O  O199  1  0.61185529  0.62237384  0.58412416  1
  O  O200  1  0.93424222  0.13616149  0.08555520  1
  O  O201  1  0.93804962  0.11708050  0.58308466  1
  O  O202  1  0.94858143  0.60352984  0.08393916  1
  O  O203  1  0.93855040  0.62468279  0.58548642  1
  O  O204  1  0.11409795  0.36957706  0.08124245  1
  O  O205  1  0.11907358  0.34606437  0.59033594  1
  O  O206  1  0.12727812  0.86146128  0.07926589  1
  O  O207  1  0.10296023  0.86873385  0.58470935  1
  O  O208  1  0.43515599  0.34955111  0.07577342  1
  O  O209  1  0.45048775  0.37295846  0.57305807  1
  O  O210  1  0.44394502  0.86459897  0.08784891  1
  O  O211  1  0.45307322  0.86678948  0.57730034  1
  O  O212  1  0.77507812  0.34159241  0.08082720  1
  O  O213  1  0.77481168  0.35221103  0.57995270  1
  O  O214  1  0.75838229  0.87302832  0.07686679  1
  O  O215  1  0.77845879  0.86893775  0.58520013  1
  O  O216  1  0.27732571  0.37802159  0.08828494  1
  O  O217  1  0.26738378  0.39243840  0.57591888  1
  O  O218  1  0.28717495  0.89234085  0.09026790  1
  O  O219  1  0.26317502  0.89126026  0.57457583  1
  O  O220  1  0.61959469  0.38677568  0.07888834  1
  O  O221  1  0.61473120  0.38246490  0.58258577  1
  O  O222  1  0.60062235  0.89361082  0.08187661  1
  O  O223  1  0.61718876  0.88895404  0.58599677  1
  O  O224  1  0.95131278  0.37176525  0.07338283  1
  O  O225  1  0.95787352  0.38345022  0.57748195  1
  O  O226  1  0.94192142  0.88538658  0.06409539  1
  O  O227  1  0.94211042  0.88852835  0.58425133  1
  O  O228  1  0.10292605  0.12051458  0.08838224  1
  O  O229  1  0.10387511  0.13153786  0.58525666  1
  O  O230  1  0.10934164  0.61987219  0.08062185  1
  O  O231  1  0.10096855  0.64821318  0.57985327  1
  O  O232  1  0.43761280  0.13210609  0.08933059  1
  O  O233  1  0.43599199  0.12153527  0.58270216  1
  O  O234  1  0.43919309  0.64408536  0.08751469  1
  O  O235  1  0.44848661  0.63023142  0.58169892  1
  O  O236  1  0.76828158  0.14425541  0.08717321  1
  O  O237  1  0.77078907  0.12946057  0.58495194  1
  O  O238  1  0.78590201  0.63712838  0.07501314  1
  O  O239  1  0.77683326  0.64422054  0.58515752  1
  O  O240  1  0.06276212  0.11234089  0.41482443  1
  O  O241  1  0.04175066  0.12031160  0.92781577  1
  O  O242  1  0.07395205  0.62029288  0.42202031  1
  O  O243  1  0.05066483  0.61952797  0.91579267  1
  O  O244  1  0.39826372  0.13055593  0.41913237  1
  O  O245  1  0.40286028  0.10022820  0.92341849  1
  O  O246  1  0.39864962  0.62463407  0.41509116  1
  O  O247  1  0.40255579  0.60540185  0.92036832  1
  O  O248  1  0.73302135  0.12918426  0.41883038  1
  O  O249  1  0.71701494  0.10833221  0.91478176  1
  O  O250  1  0.72166240  0.61391785  0.41387340  1
  O  O251  1  0.72172036  0.61735449  0.91017918  1
  O  O252  1  0.23234166  0.37323032  0.41600975  1
  O  O253  1  0.22357629  0.34948451  0.92050416  1
  O  O254  1  0.22044420  0.86530698  0.41591674  1
  O  O255  1  0.23113880  0.86605838  0.91714922  1
  O  O256  1  0.55742350  0.37063238  0.41921235  1
  O  O257  1  0.55920837  0.34586545  0.91775816  1
  O  O258  1  0.57777434  0.86534396  0.42789668  1
  O  O259  1  0.55909704  0.86266896  0.91223439  1
  O  O260  1  0.90788798  0.35791192  0.42420059  1
  O  O261  1  0.87914497  0.36648723  0.91167586  1
  O  O262  1  0.89967855  0.88713736  0.41869981  1
  O  O263  1  0.89423084  0.87195912  0.91321040  1
  O  O264  1  0.07047662  0.36836213  0.41520361  1
  O  O265  1  0.04282088  0.38130502  0.92345196  1
  O  O266  1  0.06100832  0.89814905  0.41987843  1
  O  O267  1  0.06374011  0.86624500  0.91693597  1
  O  O268  1  0.39357724  0.38109790  0.41192378  1
  O  O269  1  0.37460158  0.40235663  0.91599578  1
  O  O270  1  0.38591897  0.86835761  0.42628518  1
  O  O271  1  0.39466866  0.89607581  0.91263023  1
  O  O272  1  0.72150696  0.37568585  0.42649725  1
  O  O273  1  0.71788560  0.38290878  0.91143991  1
  O  O274  1  0.73751124  0.87377032  0.41724239  1
  O  O275  1  0.72526831  0.88348599  0.91487939  1
  O  O276  1  0.22878090  0.13384706  0.41634877  1
  O  O277  1  0.22714782  0.13865258  0.93540949  1
  O  O278  1  0.23652384  0.61477077  0.41465134  1
  O  O279  1  0.21214564  0.64538266  0.92057337  1
  O  O280  1  0.56532564  0.12868592  0.41808887  1
  O  O281  1  0.55846862  0.13641402  0.91295045  1
  O  O282  1  0.56120199  0.62993838  0.41627527  1
  O  O283  1  0.55743717  0.64631554  0.90978010  1
  O  O284  1  0.89885892  0.12510071  0.41624766  1
  O  O285  1  0.87820614  0.13564056  0.91536426  1
  O  O286  1  0.88376198  0.64109806  0.41962155  1
  O  O287  1  0.88683637  0.62788477  0.91189272  1
  O  O288  1  0.17871946  -0.00262830  0.08955577  1
  O  O289  1  0.16299113  0.00083043  0.58615616  1
  O  O290  1  0.19252464  0.49827727  0.08502703  1
  O  O291  1  0.14537591  0.48756978  0.58068415  1
  O  O292  1  0.49872713  0.00171752  0.08691587  1
  O  O293  1  0.51617870  -0.00108981  0.58484523  1
  O  O294  1  0.48291341  0.50784493  0.08155881  1
  O  O295  1  0.52573461  0.50184326  0.58241107  1
  O  O296  1  0.83773327  0.02047529  0.07112062  1
  O  O297  1  0.84307461  0.00128089  0.58972731  1
  O  O298  1  0.83371032  0.50229984  0.07424765  1
  O  O299  1  0.83333482  0.51197292  0.57857545  1
  O  O300  1  0.03342464  0.24715867  0.08233068  1
  O  O301  1  0.00418747  0.24595259  0.58468192  1
  O  O302  1  0.01212858  0.73382036  0.07412380  1
  O  O303  1  -0.00206748  0.75628308  0.58901954  1
  O  O304  1  0.33055567  0.24260005  0.08523547  1
  O  O305  1  0.33967660  0.23691918  0.57386276  1
  O  O306  1  0.33708867  0.75444830  0.08864808  1
  O  O307  1  0.33838925  0.73671276  0.57350825  1
  O  O308  1  0.65459614  0.24693505  0.08832702  1
  O  O309  1  0.66923484  0.24584784  0.58467476  1
  O  O310  1  0.65816963  0.76088395  0.07195571  1
  O  O311  1  0.67540015  0.75485165  0.58485894  1
  O  O312  1  0.16924306  0.00224814  0.41546966  1
  O  O313  1  0.15050270  -0.01308117  0.92688936  1
  O  O314  1  0.14918028  0.49522805  0.41438245  1
  O  O315  1  0.15811693  0.51040737  0.92366725  1
  O  O316  1  0.48361466  0.00916398  0.42996314  1
  O  O317  1  0.51307981  -0.00198584  0.91097081  1
  O  O318  1  0.48459956  0.50149484  0.41622693  1
  O  O319  1  0.52468657  0.50856265  0.91475431  1
  O  O320  1  0.80957416  0.00434201  0.41961892  1
  O  O321  1  0.82105723  -0.00071060  0.90999535  1
  O  O322  1  0.82984757  0.50848194  0.42311870  1
  O  O323  1  0.81332800  0.49913464  0.91058869  1
  O  O324  1  0.31932595  0.25285682  0.41772909  1
  O  O325  1  0.35300996  0.26050346  0.91815233  1
  O  O326  1  0.30678631  0.74393929  0.41508010  1
  O  O327  1  0.34622801  0.76264291  0.92287183  1
  O  O328  1  0.64501180  0.24998828  0.41943082  1
  O  O329  1  0.67093404  0.24495354  0.90942337  1
  O  O330  1  0.66168263  0.74559865  0.41747655  1
  O  O331  1  0.66536498  0.75176285  0.90985530  1
  O  O332  1  0.99821941  0.24128944  0.41742874  1
  O  O333  1  0.97195433  0.25070311  0.91706165  1
  O  O334  1  0.99365188  0.76861532  0.42812985  1
  O  O335  1  0.97446552  0.74773341  0.91400721  1
  O  O336  1  0.21068490  0.08244657  0.19861166  1
  O  O337  1  0.20979401  0.08537094  0.69436871  1
  O  O338  1  0.21224734  0.58293378  0.19471911  1
  O  O339  1  0.20784347  0.58264784  0.70118631  1
  O  O340  1  0.54159047  0.08147730  0.19829428  1
  O  O341  1  0.54177405  0.08272287  0.69407868  1
  O  O342  1  0.54151290  0.58628860  0.19271466  1
  O  O343  1  0.54672634  0.58376951  0.69261960  1
  O  O344  1  0.87480275  0.08958077  0.19254817  1
  O  O345  1  0.87968708  0.09174982  0.69489297  1
  O  O346  1  0.87374625  0.57992233  0.18960852  1
  O  O347  1  0.87453656  0.58647375  0.69334422  1
  O  O348  1  0.04861138  0.32773839  0.19053986  1
  O  O349  1  0.03953317  0.32961621  0.69454690  1
  O  O350  1  0.04727541  0.83573016  0.20017262  1
  O  O351  1  0.04292739  0.83653836  0.69651926  1
  O  O352  1  0.38196932  0.32383532  0.19245775  1
  O  O353  1  0.37630284  0.32956792  0.69914842  1
  O  O354  1  0.37842744  0.83298144  0.19857374  1
  O  O355  1  0.37759563  0.83318958  0.69922323  1
  O  O356  1  0.70797940  0.33051238  0.19383181  1
  O  O357  1  0.70895871  0.33065671  0.69267458  1
  O  O358  1  0.69563801  0.83330483  0.18858709  1
  O  O359  1  0.71262371  0.83385258  0.69427476  1
  O  O360  1  0.20284730  0.41716443  0.19365156  1
  O  O361  1  0.21065223  0.41523002  0.69314887  1
  O  O362  1  0.21368835  0.91503848  0.19763326  1
  O  O363  1  0.21097564  0.91316632  0.69265454  1
  O  O364  1  0.54541392  0.41520430  0.20120596  1
  O  O365  1  0.54574528  0.41610622  0.68988078  1
  O  O366  1  0.53884342  0.91984585  0.19667442  1
  O  O367  1  0.54467287  0.91547191  0.69324944  1
  O  O368  1  0.88009267  0.41456919  0.20026408  1
  O  O369  1  0.87812037  0.41692967  0.70113098  1
  O  O370  1  0.88440631  0.93023171  0.19548094  1
  O  O371  1  0.88165397  0.91024294  0.69535776  1
  O  O372  1  0.04496527  0.16679168  0.19560654  1
  O  O373  1  0.04011771  0.16617117  0.69516609  1
  O  O374  1  0.05075014  0.65971419  0.19058213  1
  O  O375  1  0.04137319  0.66935782  0.69542794  1
  O  O376  1  0.37151425  0.16435147  0.19781960  1
  O  O377  1  0.37609499  0.16227327  0.69113444  1
  O  O378  1  0.37555916  0.67001795  0.19739617  1
  O  O379  1  0.37984439  0.66411399  0.68943245  1
  O  O380  1  0.70650277  0.16653218  0.19774424  1
  O  O381  1  0.70836728  0.16511343  0.69389312  1
  O  O382  1  0.70919758  0.66766770  0.19935926  1
  O  O383  1  0.71024998  0.66960767  0.69379386  1
  O  O384  1  0.12630244  0.08454139  0.30584130  1
  O  O385  1  0.12018751  0.08642497  0.80324578  1
  O  O386  1  0.12441107  0.58228060  0.30596683  1
  O  O387  1  0.11967828  0.58698732  0.80870358  1
  O  O388  1  0.45438805  0.08131149  0.31157618  1
  O  O389  1  0.45881528  0.08170038  0.80512169  1
  O  O390  1  0.45775362  0.58444552  0.30569676  1
  O  O391  1  0.46051567  0.58463075  0.80400888  1
  O  O392  1  0.79031974  0.08697847  0.30747395  1
  O  O393  1  0.78141013  0.08946518  0.80517417  1
  O  O394  1  0.79105448  0.58241020  0.30621976  1
  O  O395  1  0.78724979  0.58330859  0.80173628  1
  O  O396  1  0.28567811  0.32682379  0.30546417  1
  O  O397  1  0.28863713  0.33442166  0.80742838  1
  O  O398  1  0.28945170  0.83261073  0.30827654  1
  O  O399  1  0.29284394  0.83525523  0.80731492  1
  O  O400  1  0.62442327  0.33301627  0.31003754  1
  O  O401  1  0.62253738  0.33062645  0.80258273  1
  O  O402  1  0.62408285  0.82992858  0.30966136  1
  O  O403  1  0.62359659  0.83444676  0.80295122  1
  O  O404  1  0.95792812  0.32471581  0.30837121  1
  O  O405  1  0.95343127  0.33203399  0.80692413  1
  O  O406  1  0.96505787  0.84106676  0.31161571  1
  O  O407  1  0.95605752  0.83225045  0.80566020  1
  O  O408  1  0.12738935  0.41401203  0.30474636  1
  O  O409  1  0.11908334  0.41724472  0.79821786  1
  O  O410  1  0.12604654  0.92009609  0.30694338  1
  O  O411  1  0.12289719  0.91139981  0.80927270  1
  O  O412  1  0.46546094  0.41959226  0.30682775  1
  O  O413  1  0.45830819  0.41696376  0.79668111  1
  O  O414  1  0.45600628  0.91642248  0.30374432  1
  O  O415  1  0.46112514  0.91655106  0.80336055  1
  O  O416  1  0.78685266  0.41541135  0.29939570  1
  O  O417  1  0.78340898  0.41702647  0.80190809  1
  O  O418  1  0.78819296  0.92703894  0.30746077  1
  O  O419  1  0.78449580  0.90891544  0.80522852  1
  O  O420  1  0.29038461  0.16683072  0.30776584  1
  O  O421  1  0.29078899  0.16568694  0.80056750  1
  O  O422  1  0.29133799  0.66539919  0.30485293  1
  O  O423  1  0.29240758  0.66917724  0.79861262  1
  O  O424  1  0.62822081  0.16799169  0.30841503  1
  O  O425  1  0.62145036  0.16405453  0.80253816  1
  O  O426  1  0.61967638  0.66629513  0.30538150  1
  O  O427  1  0.62501170  0.66806739  0.80101824  1
  O  O428  1  0.95820710  0.16389765  0.30538373  1
  O  O429  1  0.95254834  0.16643598  0.80887253  1
  O  O430  1  0.95542571  0.66722023  0.29580281  1
  O  O431  1  0.95300461  0.66739052  0.80421416  1
  F  F432  1  0.04927679  0.00350488  0.20268257  1
  F  F433  1  0.03597799  -0.00028450  0.69946086  1
  F  F434  1  0.04824261  0.50272670  0.20132972  1
  F  F435  1  0.04117744  0.50335446  0.70239338  1
  F  F436  1  0.37721518  0.00134209  0.20537366  1
  F  F437  1  0.37971586  0.00016685  0.70053837  1
  F  F438  1  0.38282428  0.51147474  0.19857160  1
  F  F439  1  0.37880880  0.50223747  0.70012581  1
  F  F440  1  0.71137319  0.00896989  0.20147474  1
  F  F441  1  0.70038851  -0.00007141  0.69672741  1
  F  F442  1  0.71090206  0.50165228  0.20104698  1
  F  F443  1  0.71117775  0.50091536  0.69840256  1
  F  F444  1  0.21306351  0.24760256  0.20238419  1
  F  F445  1  0.20926564  0.25007456  0.70381865  1
  F  F446  1  0.21477845  0.74971552  0.20355992  1
  F  F447  1  0.20990221  0.75339279  0.70214349  1
  F  F448  1  0.54668659  0.25082559  0.20556504  1
  F  F449  1  0.54442550  0.24747840  0.69970416  1
  F  F450  1  0.54232438  0.75192241  0.20455821  1
  F  F451  1  0.54745031  0.75040512  0.69944232  1
  F  F452  1  0.87954659  0.24809411  0.20312166  1
  F  F453  1  0.87755125  0.24910756  0.70350674  1
  F  F454  1  0.87602269  0.74253899  0.18865214  1
  F  F455  1  0.87813985  0.75058053  0.70218061  1
  F  F456  1  0.28799331  0.00012894  0.30125978  1
  F  F457  1  0.29351192  -0.00235860  0.79778528  1
  F  F458  1  0.28429519  0.50835806  0.30192981  1
  F  F459  1  0.28928993  0.49876805  0.79681347  1
  F  F460  1  0.61909839  0.00772327  0.30667135  1
  F  F461  1  0.62056714  -0.00103854  0.79685124  1
  F  F462  1  0.62217924  0.50399506  0.29758301  1
  F  F463  1  0.62291807  0.49981507  0.79324377  1
  F  F464  1  0.95602614  0.00675374  0.29958492  1
  F  F465  1  0.96511173  -0.00077532  0.80540408  1
  F  F466  1  0.95508746  0.50567425  0.29991278  1
  F  F467  1  0.95190972  0.50430865  0.79889587  1
  F  F468  1  0.12170645  0.24865100  0.29813024  1
  F  F469  1  0.11883049  0.24999948  0.79841791  1
  F  F470  1  0.13399675  0.74711195  0.30411305  1
  F  F471  1  0.12056580  0.75140206  0.79740764  1
  F  F472  1  0.45241204  0.25519059  0.30425410  1
  F  F473  1  0.45699279  0.24600462  0.79632419  1
  F  F474  1  0.45493048  0.74949182  0.30134274  1
  F  F475  1  0.45864018  0.74838628  0.79546567  1
  F  F476  1  0.78834829  0.24986388  0.29843911  1
  F  F477  1  0.78524294  0.25073851  0.79606865  1
  F  F478  1  0.78556479  0.74420987  0.30155575  1
  F  F479  1  0.78791310  0.74921155  0.79722363  1
