# generated using pymatgen
data_K24Na3Li5Mg64Fe17Si79(O5F)48
_symmetry_space_group_name_H-M   'P 1'
_cell_length_a   16.10490674
_cell_length_b   18.60294252
_cell_length_c   20.55669611
_cell_angle_alpha   90.01271673
_cell_angle_beta   100.01701733
_cell_angle_gamma   89.97546417
_symmetry_Int_Tables_number   1
_chemical_formula_structural   K24Na3Li5Mg64Fe17Si79(O5F)48
_chemical_formula_sum   'K24 Na3 Li5 Mg64 Fe17 Si79 O240 F48'
_cell_volume   6064.87458499
_cell_formula_units_Z   1
loop_
 _symmetry_equiv_pos_site_id
 _symmetry_equiv_pos_as_xyz
  1  'x, y, z'
loop_
 _atom_site_type_symbol
 _atom_site_label
 _atom_site_symmetry_multiplicity
 _atom_site_fract_x
 _atom_site_fract_y
 _atom_site_fract_z
 _atom_site_occupancy
  K  K0  1  0.00303847  -0.00165361  0.00108805  1
  K  K1  1  -0.01244950  0.00308009  0.49506686  1
  K  K2  1  -0.01268772  0.49939052  0.00656371  1
  K  K3  1  0.00086993  0.50217325  0.49522731  1
  K  K4  1  0.33061637  0.00025228  0.01095986  1
  K  K5  1  0.34084527  -0.00414551  0.49194472  1
  K  K6  1  0.33398285  0.50399900  0.00736359  1
  K  K7  1  0.32078748  0.49274130  0.48935777  1
  K  K8  1  0.66654373  -0.00351911  0.00133776  1
  K  K9  1  0.66448772  0.00196618  0.49630383  1
  K  K10  1  0.67571643  0.50861797  0.01507340  1
  K  K11  1  0.66663749  0.50297473  0.48922414  1
  K  K12  1  0.17438101  0.24533364  0.02828719  1
  K  K13  1  0.17682057  0.25164137  0.48690987  1
  K  K14  1  0.17041741  0.75178741  -0.00037207  1
  K  K15  1  0.17707181  0.74848522  0.50267437  1
  K  K16  1  0.49678262  0.24934037  0.02819034  1
  K  K17  1  0.49005798  0.24732860  0.47928060  1
  K  K18  1  0.50670584  0.74721261  0.00359165  1
  K  K19  1  0.50805368  0.75142440  0.49753940  1
  K  K20  1  0.83369959  0.25428847  0.01197308  1
  K  K21  1  0.82517030  0.24482571  0.48918720  1
  K  K22  1  0.81247851  0.74726101  -0.00747682  1
  K  K23  1  0.82001963  0.74015529  0.50083759  1
  Na  Na24  1  0.66606026  0.75050939  0.75185144  1
  Na  Na25  1  0.49614496  0.17223725  0.24932291  1
  Na  Na26  1  0.17636854  0.17383584  0.24682428  1
  Li  Li27  1  0.34098472  0.24610420  0.26421970  1
  Li  Li28  1  0.65975803  0.25346130  0.24941692  1
  Li  Li29  1  0.33401548  0.91379101  0.75461675  1
  Li  Li30  1  0.33753333  0.91978259  0.25209185  1
  Li  Li31  1  0.66742531  0.58488462  0.24894933  1
  Mg  Mg32  1  0.83352344  0.00394595  0.25076206  1
  Mg  Mg33  1  0.50208601  0.50086876  0.25004418  1
  Mg  Mg34  1  0.16733439  0.50162347  0.74852188  1
  Mg  Mg35  1  0.33517241  0.24974506  0.74999564  1
  Mg  Mg36  1  0.33234895  0.75172173  0.75313420  1
  Mg  Mg37  1  -0.00212907  0.25079075  0.24961446  1
  Mg  Mg38  1  0.17155715  -0.00266060  0.75557155  1
  Mg  Mg39  1  0.83348980  -0.00289185  0.75029953  1
  Mg  Mg40  1  0.49981444  0.50108760  0.75069303  1
  Mg  Mg41  1  0.00076492  0.75093470  0.75296087  1
  Mg  Mg42  1  0.17045208  -0.00002886  0.25061215  1
  Mg  Mg43  1  0.83297874  0.50205302  0.75162843  1
  Mg  Mg44  1  0.49826574  -0.00191498  0.74815756  1
  Mg  Mg45  1  0.49602270  0.00087935  0.24870993  1
  Mg  Mg46  1  -0.00053900  0.75165321  0.24849856  1
  Mg  Mg47  1  0.66847350  0.24876758  0.74664476  1
  Mg  Mg48  1  0.82867221  0.49976291  0.24804658  1
  Mg  Mg49  1  0.66585528  0.74718037  0.24934915  1
  Mg  Mg50  1  0.16469579  0.50115151  0.25150429  1
  Mg  Mg51  1  0.33473028  0.75025677  0.25119428  1
  Mg  Mg52  1  0.00163135  0.24856276  0.75015499  1
  Mg  Mg53  1  0.50157965  0.16469617  0.74868877  1
  Mg  Mg54  1  0.83245490  0.16455135  0.74885862  1
  Mg  Mg55  1  0.16976241  0.16459522  0.75261640  1
  Mg  Mg56  1  0.49857907  0.33264622  0.24736948  1
  Mg  Mg57  1  0.66756256  0.58526216  0.75170570  1
  Mg  Mg58  1  0.00342867  0.91540884  0.75434252  1
  Mg  Mg59  1  0.33283933  0.41294967  0.24938078  1
  Mg  Mg60  1  0.49935354  0.83388108  0.25111784  1
  Mg  Mg61  1  0.83240754  0.83394743  0.75242719  1
  Mg  Mg62  1  0.66815373  0.08412479  0.74801962  1
  Mg  Mg63  1  0.33304401  0.41626345  0.74743217  1
  Mg  Mg64  1  0.33049335  0.58570738  0.74916302  1
  Mg  Mg65  1  0.50152698  0.33359512  0.74893593  1
  Mg  Mg66  1  0.00230763  0.91800966  0.25045780  1
  Mg  Mg67  1  0.33542919  0.08153405  0.75169575  1
  Mg  Mg68  1  0.66720854  0.41784914  0.24754083  1
  Mg  Mg69  1  0.33489227  0.58394782  0.25260094  1
  Mg  Mg70  1  0.83188790  0.83550224  0.24715953  1
  Mg  Mg71  1  0.00249189  0.08265316  0.75238060  1
  Mg  Mg72  1  -0.00423876  0.41536429  0.25044953  1
  Mg  Mg73  1  0.00389856  0.08694860  0.25279909  1
  Mg  Mg74  1  0.00095967  0.58532492  0.75034284  1
  Mg  Mg75  1  0.00061198  0.41598049  0.74897086  1
  Mg  Mg76  1  0.16890738  0.66587501  0.74915214  1
  Mg  Mg77  1  0.66757174  0.91431917  0.75019772  1
  Mg  Mg78  1  0.16735875  0.33402955  0.74866841  1
  Mg  Mg79  1  0.17227606  0.83420731  0.25133004  1
  Mg  Mg80  1  0.49835323  0.66715566  0.75047735  1
  Mg  Mg81  1  0.17122471  0.83574998  0.75575954  1
  Mg  Mg82  1  0.16487458  0.33362360  0.24450594  1
  Mg  Mg83  1  0.82929874  0.66506099  0.24881310  1
  Mg  Mg84  1  0.83237958  0.16985731  0.25184944  1
  Mg  Mg85  1  0.33245338  0.08188782  0.25268155  1
  Mg  Mg86  1  0.50298322  0.66372763  0.24898822  1
  Mg  Mg87  1  0.16885688  0.66761856  0.25070036  1
  Mg  Mg88  1  0.66530041  0.91690587  0.24894625  1
  Mg  Mg89  1  0.66764256  0.41569123  0.74937441  1
  Mg  Mg90  1  0.83181187  0.66627197  0.75117349  1
  Mg  Mg91  1  -0.00295031  0.58532750  0.24731908  1
  Mg  Mg92  1  0.66358983  0.08719753  0.25068948  1
  Mg  Mg93  1  0.82987395  0.33461817  0.24900933  1
  Mg  Mg94  1  0.49731974  0.83489848  0.75089194  1
  Mg  Mg95  1  0.83330671  0.33434139  0.74801221  1
  Fe  Fe96  1  0.35187108  0.16851214  0.11174575  1
  Fe  Fe97  1  0.69126647  0.16793598  0.60736710  1
  Fe  Fe98  1  0.85442953  0.41189452  0.10723110  1
  Fe  Fe99  1  0.80409675  0.58629874  0.89204409  1
  Fe  Fe100  1  0.47629413  0.08283044  0.39166094  1
  Fe  Fe101  1  0.69286324  0.83201443  0.60777459  1
  Fe  Fe102  1  0.31017824  0.66404493  0.39012538  1
  Fe  Fe103  1  0.69111827  0.67052919  0.10875935  1
  Fe  Fe104  1  0.80953744  0.41611278  0.39076049  1
  Fe  Fe105  1  0.30911593  0.66603317  0.89150723  1
  Fe  Fe106  1  0.98195255  0.16229181  0.39262703  1
  Fe  Fe107  1  0.97703790  0.33055448  0.39169414  1
  Fe  Fe108  1  0.14386035  0.91761056  0.89507831  1
  Fe  Fe109  1  0.30304437  0.33244262  0.38611563  1
  Fe  Fe110  1  0.80659303  0.91266772  0.89304680  1
  Fe  Fe111  1  0.19114299  0.58271556  0.60691506  1
  Fe  Fe112  1  0.64088064  0.66256404  0.38793087  1
  Si  Si113  1  0.02281221  0.67232743  0.61282426  1
  Si  Si114  1  0.97529668  0.82903358  0.89004689  1
  Si  Si115  1  0.02493286  0.32726178  0.61499816  1
  Si  Si116  1  0.47984653  0.91519571  0.38616978  1
  Si  Si117  1  0.52241077  0.91683376  0.11384303  1
  Si  Si118  1  0.63911813  0.33569706  0.38313345  1
  Si  Si119  1  0.64449667  0.83206211  0.38515222  1
  Si  Si120  1  0.69182843  0.84066507  0.11109240  1
  Si  Si121  1  0.47911817  0.41455719  0.88389920  1
  Si  Si122  1  0.68952808  0.34048688  0.61105752  1
  Si  Si123  1  0.31274517  0.83258966  0.89204928  1
  Si  Si124  1  0.31114399  0.33632019  0.88435874  1
  Si  Si125  1  0.68484003  0.32911199  0.11073203  1
  Si  Si126  1  0.47583429  0.08584872  0.88596495  1
  Si  Si127  1  0.02739122  0.66943621  0.11394366  1
  Si  Si128  1  0.86488582  0.08250143  0.61472996  1
  Si  Si129  1  0.35801560  0.66530658  0.11376169  1
  Si  Si130  1  0.97677035  0.16860339  0.88564903  1
  Si  Si131  1  0.14282135  0.07222435  0.38912992  1
  Si  Si132  1  0.85927557  0.08692836  0.11377454  1
  Si  Si133  1  0.19578445  0.91611641  0.61852398  1
  Si  Si134  1  0.35945558  0.33127178  0.61445230  1
  Si  Si135  1  0.35868738  0.83238634  0.61796666  1
  Si  Si136  1  0.81228414  0.08491825  0.88829368  1
  Si  Si137  1  0.31427163  0.83101373  0.38710991  1
  Si  Si138  1  0.69107594  0.16164126  0.11433465  1
  Si  Si139  1  0.52079553  0.91683802  0.61304482  1
  Si  Si140  1  0.35938472  0.83058990  0.11612820  1
  Si  Si141  1  0.52069806  0.58227475  0.11006861  1
  Si  Si142  1  0.46877055  0.92148345  0.88531282  1
  Si  Si143  1  0.86215494  0.58591326  0.10922007  1
  Si  Si144  1  0.18779881  0.07570513  0.11128859  1
  Si  Si145  1  0.62889268  0.83649962  0.88863557  1
  Si  Si146  1  0.97571986  0.83616099  0.38438455  1
  Si  Si147  1  0.13663139  0.58171004  0.88755474  1
  Si  Si148  1  0.80767354  0.91803327  0.38381223  1
  Si  Si149  1  0.47452442  0.57678548  0.38879891  1
  Si  Si150  1  0.69258398  0.65707586  0.61226337  1
  Si  Si151  1  0.31130033  0.17140155  0.88588096  1
  Si  Si152  1  0.52216491  0.08059018  0.61335507  1
  Si  Si153  1  0.14677921  0.91077471  0.38601478  1
  Si  Si154  1  0.02411235  0.83385977  0.11412831  1
  Si  Si155  1  0.13451189  0.59077004  0.38436817  1
  Si  Si156  1  0.86106458  0.92168680  0.11433599  1
  Si  Si157  1  0.52556222  0.58245142  0.61550259  1
  Si  Si158  1  0.97590558  0.66645986  0.88673873  1
  Si  Si159  1  0.96983677  0.67151704  0.38273637  1
  Si  Si160  1  0.18928422  0.41066709  0.61122880  1
  Si  Si161  1  0.47058164  0.57717254  0.88631829  1
  Si  Si162  1  0.18904029  0.42147066  0.11285670  1
  Si  Si163  1  0.35521587  0.34095447  0.11028044  1
  Si  Si164  1  0.97715427  0.33279261  0.88406736  1
  Si  Si165  1  0.03095501  0.16255874  0.61731248  1
  Si  Si166  1  0.02509866  0.16488571  0.11470955  1
  Si  Si167  1  0.64375805  0.17038726  0.38445934  1
  Si  Si168  1  0.81496007  0.58318413  0.38736621  1
  Si  Si169  1  0.86228381  0.58216371  0.61437207  1
  Si  Si170  1  0.62834091  0.66622368  0.88736433  1
  Si  Si171  1  0.80982227  0.41309178  0.88602664  1
  Si  Si172  1  0.19613790  0.08162752  0.61722482  1
  Si  Si173  1  0.64269416  0.16557599  0.88502463  1
  Si  Si174  1  0.13617471  0.42517139  0.38608660  1
  Si  Si175  1  0.52582763  0.07979224  0.11183458  1
  Si  Si176  1  0.14647271  0.08896232  0.88985460  1
  Si  Si177  1  0.19110417  0.91212591  0.11527229  1
  Si  Si178  1  0.02819959  0.33113003  0.11002569  1
  Si  Si179  1  0.36385746  0.66736544  0.61291009  1
  Si  Si180  1  0.52197882  0.41715870  0.11199095  1
  Si  Si181  1  0.86227262  0.41679296  0.61472135  1
  Si  Si182  1  0.52199807  0.41910619  0.61465657  1
  Si  Si183  1  0.86519428  0.91676714  0.61377205  1
  Si  Si184  1  0.19031088  0.58588468  0.11421490  1
  Si  Si185  1  0.02956042  0.83698657  0.61742073  1
  Si  Si186  1  0.47553907  0.41394290  0.38415187  1
  Si  Si187  1  0.64268643  0.32981699  0.88377121  1
  Si  Si188  1  0.30704192  0.15990899  0.39452439  1
  Si  Si189  1  0.80606115  0.08428602  0.38810624  1
  Si  Si190  1  0.14291827  0.41614600  0.88429122  1
  Si  Si191  1  0.35998475  0.16582479  0.61596035  1
  O  O192  1  0.25384418  0.11511431  0.07198599  1
  O  O193  1  0.27529388  0.11827359  0.58831874  1
  O  O194  1  0.26919560  0.62247469  0.08496510  1
  O  O195  1  0.28722891  0.61771356  0.57644101  1
  O  O196  1  0.60924823  0.11156574  0.08227143  1
  O  O197  1  0.60008850  0.10558503  0.57913195  1
  O  O198  1  0.59005562  0.62199871  0.07454626  1
  O  O199  1  0.61048864  0.60352780  0.58647977  1
  O  O200  1  0.93199272  0.12986972  0.08179941  1
  O  O201  1  0.95307373  0.10879710  0.59017848  1
  O  O202  1  0.94789792  0.61923469  0.08384322  1
  O  O203  1  0.93450197  0.62786040  0.58491197  1
  O  O204  1  0.10574569  0.37384435  0.08108842  1
  O  O205  1  0.10752007  0.35697091  0.58689267  1
  O  O206  1  0.10413987  0.86673151  0.08400533  1
  O  O207  1  0.11189440  0.86773679  0.58801897  1
  O  O208  1  0.43117725  0.38122313  0.07779805  1
  O  O209  1  0.43992311  0.36739480  0.58694779  1
  O  O210  1  0.43676199  0.86922990  0.08498198  1
  O  O211  1  0.43567773  0.86809570  0.58640179  1
  O  O212  1  0.75354025  0.36294947  0.06988208  1
  O  O213  1  0.77093092  0.38001906  0.58622796  1
  O  O214  1  0.76959049  0.88549842  0.08496087  1
  O  O215  1  0.78989595  0.86702507  0.57624592  1
  O  O216  1  0.26910797  0.39031461  0.08166208  1
  O  O217  1  0.27238299  0.37444443  0.58573514  1
  O  O218  1  0.27050526  0.87340388  0.08695913  1
  O  O219  1  0.27324176  0.87946432  0.58759176  1
  O  O220  1  0.59365478  0.37055961  0.08153543  1
  O  O221  1  0.60617915  0.39285874  0.58667727  1
  O  O222  1  0.60391983  0.88594603  0.08403407  1
  O  O223  1  0.59587133  0.88951213  0.57647598  1
  O  O224  1  0.94153143  0.36561915  0.07026071  1
  O  O225  1  0.93922227  0.37365212  0.58818375  1
  O  O226  1  0.93795990  0.88026414  0.08533251  1
  O  O227  1  0.95304914  0.89197446  0.58758300  1
  O  O228  1  0.09408077  0.11470624  0.08498100  1
  O  O229  1  0.11309771  0.13122139  0.58906481  1
  O  O230  1  0.10875596  0.63695255  0.08467653  1
  O  O231  1  0.09653245  0.64164148  0.57633761  1
  O  O232  1  0.44551629  0.12722834  0.07879318  1
  O  O233  1  0.43985255  0.13310314  0.58751643  1
  O  O234  1  0.42865849  0.62254878  0.08008749  1
  O  O235  1  0.45098461  0.63982110  0.58728428  1
  O  O236  1  0.77018113  0.12695149  0.08144860  1
  O  O237  1  0.78982625  0.13390219  0.57973249  1
  O  O238  1  0.78421599  0.63554750  0.07477677  1
  O  O239  1  0.77131186  0.61740421  0.58291806  1
  O  O240  1  0.06337663  0.09107840  0.42459015  1
  O  O241  1  0.06253130  0.12374887  0.91551141  1
  O  O242  1  0.04736445  0.61664104  0.41086052  1
  O  O243  1  0.04949943  0.60570058  0.91337453  1
  O  O244  1  0.38657377  0.11273441  0.43326327  1
  O  O245  1  0.39651532  0.12425043  0.91428561  1
  O  O246  1  0.38822635  0.59100213  0.41868241  1
  O  O247  1  0.38853462  0.59227150  0.91919693  1
  O  O248  1  0.72384728  0.11604483  0.41622429  1
  O  O249  1  0.72951593  0.12205105  0.91433546  1
  O  O250  1  0.73481518  0.60572798  0.42146824  1
  O  O251  1  0.70989485  0.62239785  0.92451383  1
  O  O252  1  0.21538899  0.37729764  0.42194228  1
  O  O253  1  0.22987486  0.37043653  0.91231449  1
  O  O254  1  0.22770775  0.85922920  0.41505463  1
  O  O255  1  0.23306490  0.85529724  0.92703939  1
  O  O256  1  0.55192492  0.35688674  0.41204783  1
  O  O257  1  0.56091652  0.36336069  0.91135941  1
  O  O258  1  0.55967307  0.85934480  0.41296097  1
  O  O259  1  0.54742700  0.86989944  0.91902000  1
  O  O260  1  0.88681555  0.35069361  0.43302508  1
  O  O261  1  0.89491181  0.36324842  0.91180501  1
  O  O262  1  0.89536171  0.87229640  0.41308683  1
  O  O263  1  0.89058028  0.84338406  0.92112821  1
  O  O264  1  0.05293938  0.40675745  0.41707006  1
  O  O265  1  0.06273197  0.37960295  0.91226160  1
  O  O266  1  0.06211477  0.88131613  0.41452281  1
  O  O267  1  0.04634402  0.88597731  0.92464575  1
  O  O268  1  0.39731375  0.39107964  0.41984661  1
  O  O269  1  0.39582792  0.38413057  0.91233632  1
  O  O270  1  0.39323023  0.88668608  0.41242616  1
  O  O271  1  0.38562783  0.89596811  0.91459269  1
  O  O272  1  0.70937318  0.39088184  0.42127543  1
  O  O273  1  0.72959213  0.37310725  0.91203932  1
  O  O274  1  0.72605904  0.88628112  0.41178524  1
  O  O275  1  0.71082976  0.87965484  0.92646914  1
  O  O276  1  0.22193300  0.12466784  0.41957756  1
  O  O277  1  0.22780576  0.14384430  0.91379196  1
  O  O278  1  0.20642164  0.64619888  0.41792774  1
  O  O279  1  0.21170996  0.63282269  0.92315613  1
  O  O280  1  0.56707132  0.14532362  0.42103729  1
  O  O281  1  0.56327112  0.13017636  0.91471177  1
  O  O282  1  0.54663856  0.63225348  0.42408624  1
  O  O283  1  0.54512064  0.63435855  0.91545951  1
  O  O284  1  0.88638600  0.12793473  0.42610638  1
  O  O285  1  0.89468428  0.13844897  0.91436467  1
  O  O286  1  0.88806892  0.64695451  0.41356379  1
  O  O287  1  0.89649812  0.64695326  0.92174184  1
  O  O288  1  0.17637263  -0.00818734  0.08120957  1
  O  O289  1  0.18217550  -0.00076269  0.58864445  1
  O  O290  1  0.17329431  0.50473275  0.08243303  1
  O  O291  1  0.16949884  0.48708179  0.57594224  1
  O  O292  1  0.50759162  -0.00301683  0.08075790  1
  O  O293  1  0.49195625  -0.00061713  0.58872519  1
  O  O294  1  0.51537422  0.49899138  0.08014158  1
  O  O295  1  0.49731533  0.50075666  0.58797331  1
  O  O296  1  0.85711524  0.00382667  0.08437519  1
  O  O297  1  0.84912907  0.00020812  0.58650522  1
  O  O298  1  0.85006479  0.50691286  0.07546632  1
  O  O299  1  0.86340775  0.49903603  0.58650734  1
  O  O300  1  0.02870297  0.24618534  0.08298576  1
  O  O301  1  0.00886685  0.24417365  0.58951480  1
  O  O302  1  0.01045280  0.75168542  0.08491121  1
  O  O303  1  0.00509032  0.75644334  0.58735664  1
  O  O304  1  0.34111356  0.26336419  0.07418453  1
  O  O305  1  0.34577441  0.24848116  0.58756752  1
  O  O306  1  0.34848020  0.74830534  0.08442109  1
  O  O307  1  0.34499046  0.75087322  0.58671897  1
  O  O308  1  0.67186577  0.24345658  0.08451302  1
  O  O309  1  0.67091970  0.26343267  0.57642920  1
  O  O310  1  0.68151302  0.76514476  0.07300457  1
  O  O311  1  0.67498238  0.73481726  0.57792597  1
  O  O312  1  0.17219429  -0.01030095  0.41725219  1
  O  O313  1  0.16839429  0.01324056  0.92587179  1
  O  O314  1  0.15956109  0.50973376  0.41127367  1
  O  O315  1  0.15602631  0.49734629  0.91393539  1
  O  O316  1  0.50564643  -0.01062242  0.42529342  1
  O  O317  1  0.48902599  0.00424501  0.91521984  1
  O  O318  1  0.50835092  0.49475960  0.41181523  1
  O  O319  1  0.50386840  0.49507046  0.91150045  1
  O  O320  1  0.82097980  -0.00084824  0.41435212  1
  O  O321  1  0.83190625  0.00870898  0.92481811  1
  O  O322  1  0.85170673  0.50801049  0.42063521  1
  O  O323  1  0.82638766  0.48999343  0.92086415  1
  O  O324  1  0.31626259  0.24102146  0.42659101  1
  O  O325  1  0.32923032  0.25440356  0.91273310  1
  O  O326  1  0.34187396  0.75589982  0.42473241  1
  O  O327  1  0.35025103  0.75618621  0.92405354  1
  O  O328  1  0.66735003  0.25365708  0.41056623  1
  O  O329  1  0.65521229  0.24804854  0.91354459  1
  O  O330  1  0.67117805  0.75624305  0.42002013  1
  O  O331  1  0.63554111  0.75107016  0.91159766  1
  O  O332  1  1.02167563  0.24688257  0.43279694  1
  O  O333  1  0.99413572  0.25119021  0.91299545  1
  O  O334  1  0.99232925  0.75371588  0.41221469  1
  O  O335  1  1.01232782  0.74667011  0.91114952  1
  O  O336  1  0.21029534  0.07308807  0.19051996  1
  O  O337  1  0.21266649  0.08372092  0.69777635  1
  O  O338  1  0.20733459  0.58442324  0.19413128  1
  O  O339  1  0.20943701  0.58115448  0.69887074  1
  O  O340  1  0.54811046  0.07459767  0.19096797  1
  O  O341  1  0.54278680  0.08430650  0.69468612  1
  O  O342  1  0.53290514  0.58297905  0.18954226  1
  O  O343  1  0.54287502  0.58141248  0.69622959  1
  O  O344  1  0.87602182  0.08322421  0.19365115  1
  O  O345  1  0.87999186  0.08372949  0.69612429  1
  O  O346  1  0.87802496  0.58746781  0.19049137  1
  O  O347  1  0.88036517  0.58175670  0.69485930  1
  O  O348  1  0.03957865  0.33682211  0.18984221  1
  O  O349  1  0.04423249  0.33116051  0.69599840  1
  O  O350  1  0.04211678  0.83464172  0.19447498  1
  O  O351  1  0.04583615  0.83407328  0.69769605  1
  O  O352  1  0.37857620  0.34383488  0.18911117  1
  O  O353  1  0.37758757  0.33240197  0.69534880  1
  O  O354  1  0.37897072  0.82896138  0.19537860  1
  O  O355  1  0.37576270  0.83180286  0.69763021  1
  O  O356  1  0.70920522  0.33582323  0.18968949  1
  O  O357  1  0.70937203  0.33556216  0.69271474  1
  O  O358  1  0.71054372  0.83759722  0.19196606  1
  O  O359  1  0.71603157  0.83978053  0.69732551  1
  O  O360  1  0.20591682  0.42361937  0.19251031  1
  O  O361  1  0.20928168  0.41336211  0.69273251  1
  O  O362  1  0.20423680  0.91341467  0.19444863  1
  O  O363  1  0.21096873  0.91771457  0.69801363  1
  O  O364  1  0.54072994  0.41962809  0.19166830  1
  O  O365  1  0.54158054  0.41610964  0.69549492  1
  O  O366  1  0.54247345  0.91514332  0.19392160  1
  O  O367  1  0.54185124  0.91644251  0.69413752  1
  O  O368  1  0.87698470  0.41798933  0.19738965  1
  O  O369  1  0.87841431  0.41610900  0.69564341  1
  O  O370  1  0.87866877  0.91918013  0.19466832  1
  O  O371  1  0.88251577  0.91673806  0.69490464  1
  O  O372  1  0.03579501  0.16570828  0.19341518  1
  O  O373  1  0.04820498  0.16552348  0.69824068  1
  O  O374  1  0.04461338  0.67007925  0.19435301  1
  O  O375  1  0.04293343  0.66741970  0.69393038  1
  O  O376  1  0.35838277  0.16762453  0.19832352  1
  O  O377  1  0.37718992  0.16749760  0.69675211  1
  O  O378  1  0.37705464  0.66589871  0.19372909  1
  O  O379  1  0.37744595  0.66466390  0.69373159  1
  O  O380  1  0.71385418  0.15889867  0.19327581  1
  O  O381  1  0.71260255  0.16734960  0.70017417  1
  O  O382  1  0.71423411  0.67174847  0.19866286  1
  O  O383  1  0.71367830  0.65733520  0.69209631  1
  O  O384  1  0.12073358  0.07206911  0.30913282  1
  O  O385  1  0.12641320  0.08640503  0.80863057  1
  O  O386  1  0.11917458  0.58910313  0.30317382  1
  O  O387  1  0.12179408  0.58132407  0.80626432  1
  O  O388  1  0.45223122  0.07468821  0.30253044  1
  O  O389  1  0.45809902  0.08664226  0.80554112  1
  O  O390  1  0.45703660  0.58298588  0.30707328  1
  O  O391  1  0.45320230  0.57923331  0.80497564  1
  O  O392  1  0.79152779  0.08306567  0.30713301  1
  O  O393  1  0.79362768  0.08406815  0.80732433  1
  O  O394  1  0.79957495  0.58415549  0.30683599  1
  O  O395  1  0.78824938  0.58205949  0.80015217  1
  O  O396  1  0.28245108  0.33395212  0.29543495  1
  O  O397  1  0.29157929  0.33438212  0.80357131  1
  O  O398  1  0.29038406  0.82767168  0.30711501  1
  O  O399  1  0.28956530  0.82992415  0.81122540  1
  O  O400  1  0.62074189  0.33976441  0.30324466  1
  O  O401  1  0.62417798  0.33115850  0.80286057  1
  O  O402  1  0.62641484  0.83366618  0.30390905  1
  O  O403  1  0.61391373  0.84367620  0.80901004  1
  O  O404  1  0.95354053  0.33231965  0.29918988  1
  O  O405  1  0.95925685  0.33305595  0.80333405  1
  O  O406  1  0.95713441  0.83644065  0.30387078  1
  O  O407  1  0.95903156  0.83361615  0.80809599  1
  O  O408  1  0.12043931  0.42154398  0.30458001  1
  O  O409  1  0.12465510  0.41506880  0.80348018  1
  O  O410  1  0.12416748  0.91203356  0.30564216  1
  O  O411  1  0.12384689  0.91767965  0.80302212  1
  O  O412  1  0.45507092  0.41863179  0.30344156  1
  O  O413  1  0.45736443  0.41374176  0.80319635  1
  O  O414  1  0.46435509  0.91511288  0.30599069  1
  O  O415  1  0.45707075  0.92103291  0.80556570  1
  O  O416  1  0.78694951  0.41756865  0.29903137  1
  O  O417  1  0.79123746  0.41414092  0.80469397  1
  O  O418  1  0.79192825  0.91716456  0.30333437  1
  O  O419  1  0.78955866  0.91889103  0.80166691  1
  O  O420  1  0.29826910  0.15870983  0.31552424  1
  O  O421  1  0.29317539  0.16927627  0.80518159  1
  O  O422  1  0.28869762  0.66706238  0.29818002  1
  O  O423  1  0.28874154  0.66667240  0.79968562  1
  O  O424  1  0.63055617  0.16564796  0.30561503  1
  O  O425  1  0.62278135  0.16681171  0.80455455  1
  O  O426  1  0.61911586  0.66847911  0.29799570  1
  O  O427  1  0.61455921  0.65771264  0.80762052  1
  O  O428  1  0.95491977  0.16604224  0.30035863  1
  O  O429  1  0.95855544  0.16735709  0.80478766  1
  O  O430  1  0.95499244  0.67165136  0.30208538  1
  O  O431  1  0.95805878  0.66452757  0.80524969  1
  F  F432  1  0.04451544  -0.00107422  0.20218668  1
  F  F433  1  0.04898970  0.00290830  0.70455068  1
  F  F434  1  0.04527031  0.50367211  0.20021263  1
  F  F435  1  0.04517162  0.49863653  0.70184133  1
  F  F436  1  0.37854417  -0.00191404  0.19713316  1
  F  F437  1  0.38032711  0.00715532  0.70045873  1
  F  F438  1  0.37638859  0.50275061  0.20234215  1
  F  F439  1  0.37853435  0.49784556  0.70139870  1
  F  F440  1  0.71446950  -0.00094306  0.20214841  1
  F  F441  1  0.71295460  0.00356912  0.70131935  1
  F  F442  1  0.71168801  0.50044447  0.19578575  1
  F  F443  1  0.71171833  0.49602121  0.70148587  1
  F  F444  1  0.19005120  0.26550108  0.17716679  1
  F  F445  1  0.21334174  0.24917473  0.70284707  1
  F  F446  1  0.21034092  0.75144109  0.19912937  1
  F  F447  1  0.21058518  0.75350514  0.70161538  1
  F  F448  1  0.54241842  0.26132239  0.19057820  1
  F  F449  1  0.54480138  0.25009525  0.70110049  1
  F  F450  1  0.54336754  0.75333262  0.19886111  1
  F  F451  1  0.53206607  0.75031842  0.70077496  1
  F  F452  1  0.87485303  0.24893932  0.19622317  1
  F  F453  1  0.88077301  0.25024964  0.70235606  1
  F  F454  1  0.88013859  0.75454552  0.19987773  1
  F  F455  1  0.88171789  0.74922139  0.70298489  1
  F  F456  1  0.28607484  -0.00259021  0.29878719  1
  F  F457  1  0.28897411  0.00802856  0.80339697  1
  F  F458  1  0.28549742  0.50108702  0.29672583  1
  F  F459  1  0.28783666  0.49444355  0.79756257  1
  F  F460  1  0.62333002  -0.00144216  0.29655869  1
  F  F461  1  0.62037243  0.00344612  0.79597649  1
  F  F462  1  0.62002155  0.50002492  0.29426409  1
  F  F463  1  0.62119346  0.49592088  0.79758577  1
  F  F464  1  0.95386649  -0.00106428  0.29780166  1
  F  F465  1  0.95602951  0.00158159  0.79912825  1
  F  F466  1  0.95479933  0.50482025  0.29461821  1
  F  F467  1  0.95632479  0.49779543  0.79743559  1
  F  F468  1  0.11551148  0.26058858  0.29703783  1
  F  F469  1  0.12408185  0.25107918  0.79893965  1
  F  F470  1  0.11992706  0.75218202  0.29628373  1
  F  F471  1  0.12198262  0.74806579  0.79744022  1
  F  F472  1  0.45409201  0.26436812  0.30450183  1
  F  F473  1  0.45670902  0.25026002  0.79790391  1
  F  F474  1  0.45624611  0.74838751  0.29688173  1
  F  F475  1  0.45345289  0.74937474  0.79999387  1
  F  F476  1  0.79077392  0.25112400  0.29655076  1
  F  F477  1  0.79023327  0.25255733  0.79788016  1
  F  F478  1  0.79133961  0.75565125  0.29731177  1
  F  F479  1  0.80045633  0.74818704  0.80214822  1
