# generated using pymatgen
data_K24Na3Li5Mg64Fe17Si79(O5F)48
_symmetry_space_group_name_H-M   'P 1'
_cell_length_a   16.09687761
_cell_length_b   18.58029230
_cell_length_c   20.54932428
_cell_angle_alpha   89.99867637
_cell_angle_beta   100.01973865
_cell_angle_gamma   89.99120832
_symmetry_Int_Tables_number   1
_chemical_formula_structural   K24Na3Li5Mg64Fe17Si79(O5F)48
_chemical_formula_sum   'K24 Na3 Li5 Mg64 Fe17 Si79 O240 F48'
_cell_volume   6052.24882645
_cell_formula_units_Z   1
loop_
 _symmetry_equiv_pos_site_id
 _symmetry_equiv_pos_as_xyz
  1  'x, y, z'
loop_
 _atom_site_type_symbol
 _atom_site_label
 _atom_site_symmetry_multiplicity
 _atom_site_fract_x
 _atom_site_fract_y
 _atom_site_fract_z
 _atom_site_occupancy
  K  K0  1  0.00281109  -0.01516510  -0.00480121  1
  K  K1  1  -0.01079756  -0.00106479  0.49586072  1
  K  K2  1  0.01348489  0.51101932  0.01115919  1
  K  K3  1  0.00156636  0.51707335  0.49039461  1
  K  K4  1  0.32574283  -0.00623591  -0.00139169  1
  K  K5  1  0.33109298  -0.00129832  0.49895708  1
  K  K6  1  0.32288631  0.50263420  0.00238293  1
  K  K7  1  0.32835884  0.49713076  0.49760308  1
  K  K8  1  0.67078678  -0.01614563  0.00990601  1
  K  K9  1  0.67394127  -0.01247702  0.49410732  1
  K  K10  1  0.67243424  0.50217865  0.01333921  1
  K  K11  1  0.67540325  0.50642417  0.49219874  1
  K  K12  1  0.18116761  0.25254791  -0.00429846  1
  K  K13  1  0.16785495  0.24842469  0.50095354  1
  K  K14  1  0.16338676  0.75247603  0.00906879  1
  K  K15  1  0.16539258  0.74935717  0.49182092  1
  K  K16  1  0.49784050  0.24545679  -0.00198257  1
  K  K17  1  0.48721626  0.24922343  0.50428956  1
  K  K18  1  0.50425954  0.75776876  0.01216597  1
  K  K19  1  0.50265690  0.75635023  0.49207531  1
  K  K20  1  0.83665169  0.24844770  0.00356018  1
  K  K21  1  0.83841744  0.24961649  0.49924897  1
  K  K22  1  0.83959491  0.75846948  0.01337884  1
  K  K23  1  0.82896229  0.75337952  0.49056075  1
  Na  Na24  1  0.83193561  0.50298863  0.25182838  1
  Na  Na25  1  -0.00302358  0.91638780  0.75187154  1
  Na  Na26  1  0.66877442  0.58076001  0.24929185  1
  Li  Li27  1  0.00605130  0.74821598  0.24919885  1
  Li  Li28  1  0.50251515  -0.00853761  0.24998363  1
  Li  Li29  1  0.83956866  0.83302868  0.74707354  1
  Li  Li30  1  0.16188643  0.66887796  0.24614128  1
  Li  Li31  1  0.49989186  0.83749649  0.25136017  1
  Mg  Mg32  1  0.50035512  -0.00185782  0.74902888  1
  Mg  Mg33  1  0.16772727  0.50184161  0.74899975  1
  Mg  Mg34  1  0.16537121  0.50452963  0.24920914  1
  Mg  Mg35  1  0.83401455  0.49768864  0.74812982  1
  Mg  Mg36  1  0.66479638  0.25018427  0.74778446  1
  Mg  Mg37  1  0.33397667  0.75226527  0.24801031  1
  Mg  Mg38  1  0.49866134  0.49987866  0.25021795  1
  Mg  Mg39  1  0.50036018  0.49911066  0.74927096  1
  Mg  Mg40  1  0.66591023  0.74934338  0.24942495  1
  Mg  Mg41  1  -0.00229825  0.75180658  0.74774054  1
  Mg  Mg42  1  0.16659312  -0.00290079  0.25186597  1
  Mg  Mg43  1  0.83306416  -0.00104475  0.74983540  1
  Mg  Mg44  1  0.00083036  0.25006776  0.75235818  1
  Mg  Mg45  1  0.33314899  0.24921820  0.75102492  1
  Mg  Mg46  1  0.83120040  -0.00119369  0.24851962  1
  Mg  Mg47  1  0.33235832  0.24825928  0.25025157  1
  Mg  Mg48  1  -0.00111800  0.25155852  0.25273066  1
  Mg  Mg49  1  0.66598702  0.24999968  0.25024541  1
  Mg  Mg50  1  0.16537022  -0.00092596  0.75496779  1
  Mg  Mg51  1  0.67147842  0.74911283  0.74823814  1
  Mg  Mg52  1  0.33468745  0.74871648  0.75205611  1
  Mg  Mg53  1  0.33017724  0.41626045  0.24908769  1
  Mg  Mg54  1  0.66437989  0.08304905  0.74774526  1
  Mg  Mg55  1  0.66817902  0.58249822  0.74984373  1
  Mg  Mg56  1  -0.00185361  0.91363971  0.24917676  1
  Mg  Mg57  1  0.50125864  0.66562944  0.74933849  1
  Mg  Mg58  1  0.83475721  0.66613620  0.74935325  1
  Mg  Mg59  1  0.66504792  0.08153010  0.25015465  1
  Mg  Mg60  1  0.50241105  0.83260329  0.74956774  1
  Mg  Mg61  1  0.16719538  0.82873864  0.24902136  1
  Mg  Mg62  1  0.49646890  0.33382322  0.74844156  1
  Mg  Mg63  1  0.66434316  0.41402029  0.74618994  1
  Mg  Mg64  1  0.00126460  0.41550967  0.75156949  1
  Mg  Mg65  1  0.00228706  0.41985517  0.25244615  1
  Mg  Mg66  1  0.83479837  0.33630373  0.25384418  1
  Mg  Mg67  1  0.83440019  0.16638279  0.25146004  1
  Mg  Mg68  1  0.49879848  0.33312506  0.24992694  1
  Mg  Mg69  1  0.16598157  0.16458557  0.25081396  1
  Mg  Mg70  1  0.49638205  0.16446614  0.74900500  1
  Mg  Mg71  1  0.49982315  0.16314108  0.24881444  1
  Mg  Mg72  1  0.66229305  0.91357512  0.24856125  1
  Mg  Mg73  1  0.16919124  0.16464526  0.75528338  1
  Mg  Mg74  1  0.17018502  0.33419214  0.75340950  1
  Mg  Mg75  1  0.16595495  0.33541770  0.24972701  1
  Mg  Mg76  1  -0.00063353  0.08353329  0.75415126  1
  Mg  Mg77  1  0.33262927  0.08524698  0.75096072  1
  Mg  Mg78  1  0.83071553  0.16593675  0.74902192  1
  Mg  Mg79  1  0.50102095  0.66892198  0.24839736  1
  Mg  Mg80  1  0.83019532  0.33280948  0.74820390  1
  Mg  Mg81  1  0.83297961  0.83563814  0.24779281  1
  Mg  Mg82  1  0.33092798  0.58721966  0.24807946  1
  Mg  Mg83  1  0.33154138  0.58348010  0.74862358  1
  Mg  Mg84  1  0.33191039  0.41321102  0.74969907  1
  Mg  Mg85  1  0.33572707  0.07992070  0.24927013  1
  Mg  Mg86  1  0.67228054  0.91338908  0.74561663  1
  Mg  Mg87  1  0.33223124  0.91452633  0.75361064  1
  Mg  Mg88  1  0.66648481  0.41730260  0.25075376  1
  Mg  Mg89  1  0.16318706  0.66618880  0.74688650  1
  Mg  Mg90  1  -0.00031582  0.58528444  0.74816592  1
  Mg  Mg91  1  0.33816657  0.91569217  0.25027981  1
  Mg  Mg92  1  0.16344741  0.83329963  0.75155123  1
  Mg  Mg93  1  0.83756330  0.67157186  0.24855885  1
  Mg  Mg94  1  -0.00171439  0.08483789  0.25016168  1
  Mg  Mg95  1  0.00306607  0.58923840  0.25070641  1
  Fe  Fe96  1  0.81276025  0.59053293  0.39302875  1
  Fe  Fe97  1  0.97618020  0.16901860  0.39058923  1
  Fe  Fe98  1  0.68617961  0.82636172  0.10586713  1
  Fe  Fe99  1  0.85755706  0.91995258  0.10601199  1
  Fe  Fe100  1  0.85549264  0.92016550  0.61029634  1
  Fe  Fe101  1  0.31405828  0.33976252  0.89487846  1
  Fe  Fe102  1  0.14210734  0.91044183  0.89444017  1
  Fe  Fe103  1  0.80674352  0.91414228  0.38826165  1
  Fe  Fe104  1  0.68883338  0.33450522  0.60788422  1
  Fe  Fe105  1  0.31295565  0.16439188  0.89483177  1
  Fe  Fe106  1  0.31251870  0.83432083  0.38984868  1
  Fe  Fe107  1  0.01938516  0.67370652  0.60780628  1
  Fe  Fe108  1  0.19299785  0.58737913  0.10839850  1
  Fe  Fe109  1  0.14152552  0.42194220  0.38913771  1
  Fe  Fe110  1  0.19117204  0.58666765  0.60818513  1
  Fe  Fe111  1  0.35634361  0.33601112  0.60788774  1
  Fe  Fe112  1  0.35596900  0.16116366  0.60733886  1
  Si  Si113  1  0.19473979  0.91567925  0.11512458  1
  Si  Si114  1  0.63633464  0.16821993  0.38460543  1
  Si  Si115  1  0.52268863  0.58045522  0.11485188  1
  Si  Si116  1  0.68780401  0.16643386  0.61344055  1
  Si  Si117  1  0.47473390  0.08565436  0.38367173  1
  Si  Si118  1  0.35862503  0.16380056  0.11431360  1
  Si  Si119  1  0.64626788  0.66815237  0.88464853  1
  Si  Si120  1  0.03054247  0.33133386  0.61844470  1
  Si  Si121  1  0.19165215  0.08149681  0.11467971  1
  Si  Si122  1  0.64702279  0.83178719  0.88337248  1
  Si  Si123  1  0.69153538  0.65970047  0.11059295  1
  Si  Si124  1  0.63242742  0.66827637  0.38774007  1
  Si  Si125  1  0.31551128  0.82824258  0.89092319  1
  Si  Si126  1  0.63892139  0.16451056  0.88483026  1
  Si  Si127  1  0.63856444  0.33083333  0.88517332  1
  Si  Si128  1  0.30813328  0.32931069  0.38563105  1
  Si  Si129  1  0.52792267  0.08716042  0.11326032  1
  Si  Si130  1  0.02478756  0.16566589  0.61926457  1
  Si  Si131  1  0.47395437  0.92413857  0.38639281  1
  Si  Si132  1  0.48145240  0.91003532  0.88553841  1
  Si  Si133  1  0.52634507  0.42421203  0.61020791  1
  Si  Si134  1  0.52604645  0.91057377  0.61394837  1
  Si  Si135  1  0.14162339  0.91626349  0.38629285  1
  Si  Si136  1  0.69075231  0.17338954  0.11393438  1
  Si  Si137  1  0.85764970  0.57650442  0.61335189  1
  Si  Si138  1  0.86153397  0.58366904  0.11350432  1
  Si  Si139  1  0.63901784  0.33238380  0.38511975  1
  Si  Si140  1  0.13646250  0.42055151  0.88980187  1
  Si  Si141  1  0.52184992  0.41583385  0.11435192  1
  Si  Si142  1  0.63303604  0.83263343  0.38600992  1
  Si  Si143  1  0.48261738  0.42383524  0.88910099  1
  Si  Si144  1  0.97743822  0.83690474  0.38576015  1
  Si  Si145  1  0.80394322  0.41346478  0.88563154  1
  Si  Si146  1  0.97326103  0.33840746  0.39016014  1
  Si  Si147  1  0.69008315  0.82613508  0.61114398  1
  Si  Si148  1  0.31525724  0.66753071  0.38495106  1
  Si  Si149  1  0.80700447  0.57773705  0.88596760  1
  Si  Si150  1  0.02570678  0.33155794  0.11361314  1
  Si  Si151  1  0.14435825  0.08128106  0.38720187  1
  Si  Si152  1  0.80416652  0.41327788  0.38830663  1
  Si  Si153  1  0.52458802  0.92182765  0.11124915  1
  Si  Si154  1  0.80263361  0.08721980  0.38787641  1
  Si  Si155  1  0.31325548  0.66240621  0.88686336  1
  Si  Si156  1  0.85395927  0.08983302  0.61418794  1
  Si  Si157  1  0.18585983  0.41975483  0.61364270  1
  Si  Si158  1  0.47051939  0.57862588  0.38400589  1
  Si  Si159  1  0.02489137  0.83696262  0.61201348  1
  Si  Si160  1  0.47969324  0.07438285  0.88846115  1
  Si  Si161  1  0.19066738  0.91204584  0.61694478  1
  Si  Si162  1  0.47275239  0.41335433  0.38405240  1
  Si  Si163  1  0.35708243  0.83395374  0.61653542  1
  Si  Si164  1  0.80521753  0.08457571  0.88502723  1
  Si  Si165  1  0.13656379  0.08550024  0.89421258  1
  Si  Si166  1  0.98293886  0.67327434  0.38545911  1
  Si  Si167  1  0.96980997  0.66320082  0.88723596  1
  Si  Si168  1  0.96629829  0.82547382  0.88831890  1
  Si  Si169  1  0.02898274  0.83590196  0.11217809  1
  Si  Si170  1  0.97109623  0.33504947  0.88671359  1
  Si  Si171  1  0.02722512  0.16698681  0.11371657  1
  Si  Si172  1  0.96940426  0.16912100  0.88674950  1
  Si  Si173  1  0.14014291  0.58699054  0.88620429  1
  Si  Si174  1  0.14769005  0.58975499  0.38471075  1
  Si  Si175  1  0.69300964  0.66064852  0.61424146  1
  Si  Si176  1  0.53084409  0.07667857  0.61174883  1
  Si  Si177  1  0.86274689  0.41518343  0.11593507  1
  Si  Si178  1  0.69146422  0.33849703  0.11562243  1
  Si  Si179  1  0.18590323  0.07611559  0.61585069  1
  Si  Si180  1  0.35835408  0.32950608  0.11418183  1
  Si  Si181  1  0.48192937  0.58650928  0.88552644  1
  Si  Si182  1  0.30950265  0.16362786  0.38366381  1
  Si  Si183  1  0.86393330  0.41103382  0.61418602  1
  Si  Si184  1  0.85554050  0.09020341  0.11068980  1
  Si  Si185  1  0.36460495  0.67197643  0.10942553  1
  Si  Si186  1  0.52564127  0.58698419  0.61569250  1
  Si  Si187  1  0.02156769  0.66828841  0.11046017  1
  Si  Si188  1  0.19248119  0.41391268  0.11061580  1
  Si  Si189  1  0.36243636  0.83870995  0.11474400  1
  Si  Si190  1  0.36381837  0.66844653  0.61387713  1
  Si  Si191  1  0.80614213  0.91953847  0.88430188  1
  O  O192  1  0.27038468  0.12056116  0.08574879  1
  O  O193  1  0.26233312  0.09948394  0.57904101  1
  O  O194  1  0.27964869  0.63362084  0.07123250  1
  O  O195  1  0.29539204  0.61118972  0.57996357  1
  O  O196  1  0.60305186  0.13057085  0.08207882  1
  O  O197  1  0.62036902  0.10084319  0.58875602  1
  O  O198  1  0.60797875  0.60572929  0.08777688  1
  O  O199  1  0.61084126  0.60947675  0.58678264  1
  O  O200  1  0.93584132  0.13072720  0.08373536  1
  O  O201  1  0.93845307  0.12229280  0.58840677  1
  O  O202  1  0.92967670  0.62799330  0.07730011  1
  O  O203  1  0.93416560  0.60377438  0.57973644  1
  O  O204  1  0.10271003  0.36992599  0.08347905  1
  O  O205  1  0.11463449  0.35503898  0.59017935  1
  O  O206  1  0.11245568  0.86824227  0.08302870  1
  O  O207  1  0.11705579  0.85514912  0.58693892  1
  O  O208  1  0.43763063  0.36669700  0.08516672  1
  O  O209  1  0.45346179  0.37004488  0.57612023  1
  O  O210  1  0.42969670  0.88762027  0.08237449  1
  O  O211  1  0.43800784  0.86663214  0.58724803  1
  O  O212  1  0.76969598  0.37702399  0.08552194  1
  O  O213  1  0.79279666  0.35448966  0.58111785  1
  O  O214  1  0.76631831  0.86858493  0.06288262  1
  O  O215  1  0.76349112  0.85792678  0.57580830  1
  O  O216  1  0.26933991  0.36877977  0.08322027  1
  O  O217  1  0.26869776  0.40260200  0.58173570  1
  O  O218  1  0.27167335  0.87822626  0.08430997  1
  O  O219  1  0.27653363  0.88609420  0.58842129  1
  O  O220  1  0.60323920  0.38173509  0.08510845  1
  O  O221  1  0.61338758  0.41073462  0.58166968  1
  O  O222  1  0.58741996  0.88004877  0.07037863  1
  O  O223  1  0.59975890  0.86940755  0.58275991  1
  O  O224  1  0.93503648  0.37105130  0.08219492  1
  O  O225  1  0.95269933  0.38635708  0.59001884  1
  O  O226  1  0.95167735  0.88342529  0.07337562  1
  O  O227  1  0.96303447  0.90467371  0.58830223  1
  O  O228  1  0.10389333  0.12543619  0.08454429  1
  O  O229  1  0.10240976  0.12804052  0.58966708  1
  O  O230  1  0.08993864  0.63089216  0.07082938  1
  O  O231  1  0.11566500  0.65578360  0.57281137  1
  O  O232  1  0.43747599  0.12881033  0.08425008  1
  O  O233  1  0.45313350  0.12425844  0.57528183  1
  O  O234  1  0.44455583  0.63276638  0.08050324  1
  O  O235  1  0.45511483  0.64908512  0.59031673  1
  O  O236  1  0.77207722  0.14284775  0.08406386  1
  O  O237  1  0.77816496  0.14949785  0.58926671  1
  O  O238  1  0.76688032  0.61379315  0.08134362  1
  O  O239  1  0.77154140  0.62426879  0.58568985  1
  O  O240  1  0.06869595  0.10835582  0.42324736  1
  O  O241  1  0.05186723  0.12309312  0.91851253  1
  O  O242  1  0.06780828  0.62453097  0.41416957  1
  O  O243  1  0.06512576  0.63052550  0.91546535  1
  O  O244  1  0.39112487  0.11338344  0.41366356  1
  O  O245  1  0.40367755  0.09883000  0.92462193  1
  O  O246  1  0.38812370  0.60541611  0.41415889  1
  O  O247  1  0.39812127  0.61316098  0.91525214  1
  O  O248  1  0.71452934  0.11549359  0.41354425  1
  O  O249  1  0.72744503  0.12283949  0.91523475  1
  O  O250  1  0.71653504  0.62774531  0.42510356  1
  O  O251  1  0.72891355  0.61808295  0.91415246  1
  O  O252  1  0.23143893  0.35613591  0.41992043  1
  O  O253  1  0.21871258  0.37929006  0.92716701  1
  O  O254  1  0.21528077  0.86363899  0.42267761  1
  O  O255  1  0.24499471  0.86133716  0.92879742  1
  O  O256  1  0.55652014  0.36467000  0.41288055  1
  O  O257  1  0.56579869  0.37195648  0.91767951  1
  O  O258  1  0.55544031  0.87295895  0.41541837  1
  O  O259  1  0.56374027  0.85902207  0.91237263  1
  O  O260  1  0.88186011  0.35635310  0.41421623  1
  O  O261  1  0.89111631  0.37030393  0.91618514  1
  O  O262  1  0.90126374  0.85872110  0.42430375  1
  O  O263  1  0.88847005  0.87109726  0.91444239  1
  O  O264  1  0.04065262  0.40015019  0.41930200  1
  O  O265  1  0.05328999  0.38401629  0.91620525  1
  O  O266  1  0.05455811  0.89501373  0.41342981  1
  O  O267  1  0.05336443  0.86145362  0.92574491  1
  O  O268  1  0.39399519  0.37734064  0.41339677  1
  O  O269  1  0.40571016  0.40371379  0.92586489  1
  O  O270  1  0.39788877  0.90082400  0.42489664  1
  O  O271  1  0.40441692  0.87393946  0.91684994  1
  O  O272  1  0.72068555  0.38020307  0.41718910  1
  O  O273  1  0.72907151  0.37049675  0.91495030  1
  O  O274  1  0.71787804  0.87234911  0.42310772  1
  O  O275  1  0.72504577  0.88500637  0.91337202  1
  O  O276  1  0.22870118  0.13249496  0.41330182  1
  O  O277  1  0.21567095  0.13479975  0.92769507  1
  O  O278  1  0.22823178  0.64373243  0.41072222  1
  O  O279  1  0.23232763  0.62571177  0.91444563  1
  O  O280  1  0.55184859  0.14189718  0.41281881  1
  O  O281  1  0.56409141  0.12492934  0.91593682  1
  O  O282  1  0.55218958  0.62735710  0.41547612  1
  O  O283  1  0.56240689  0.64009731  0.91363748  1
  O  O284  1  0.87568854  0.14399800  0.41950585  1
  O  O285  1  0.88792064  0.13454915  0.91468880  1
  O  O286  1  0.91010245  0.64624858  0.42591212  1
  O  O287  1  0.89936858  0.61229208  0.91637871  1
  O  O288  1  0.18271364  -0.00072511  0.08504284  1
  O  O289  1  0.16124415  -0.00715161  0.58980782  1
  O  O290  1  0.18509691  0.49060867  0.07393051  1
  O  O291  1  0.14426722  0.49504133  0.58458047  1
  O  O292  1  0.51944797  0.00660603  0.08163607  1
  O  O293  1  0.51538764  -0.00748446  0.58519187  1
  O  O294  1  0.50399864  0.49726109  0.08409807  1
  O  O295  1  0.49401422  0.50792658  0.58758184  1
  O  O296  1  0.83851798  0.01572011  0.07169349  1
  O  O297  1  0.82541180  0.01504421  0.57839270  1
  O  O298  1  0.86028924  0.49786803  0.08671512  1
  O  O299  1  0.83564417  0.49271406  0.58838334  1
  O  O300  1  0.02008077  0.24921608  0.08291648  1
  O  O301  1  0.00908618  0.24878859  0.59109835  1
  O  O302  1  0.01357822  0.75282650  0.08369461  1
  O  O303  1  -0.01685421  0.76491545  0.57517955  1
  O  O304  1  0.34851860  0.24661505  0.08591508  1
  O  O305  1  0.32877125  0.24841909  0.56635201  1
  O  O306  1  0.36386922  0.75689484  0.08308063  1
  O  O307  1  0.34017178  0.75187034  0.58809123  1
  O  O308  1  0.67878624  0.25652975  0.08412107  1
  O  O309  1  0.64984068  0.24117984  0.58035468  1
  O  O310  1  0.67146991  0.73226061  0.06708841  1
  O  O311  1  0.67162293  0.74155290  0.58509992  1
  O  O312  1  0.16997625  -0.00098335  0.41242820  1
  O  O313  1  0.14504478  0.00590844  0.92735914  1
  O  O314  1  0.17340532  0.51356802  0.42243639  1
  O  O315  1  0.14074940  0.50518320  0.91684921  1
  O  O316  1  0.50240240  0.00691016  0.41476333  1
  O  O317  1  0.50576350  -0.00897868  0.91403093  1
  O  O318  1  0.48933232  0.49535960  0.41260087  1
  O  O319  1  0.51306748  0.50676866  0.91388692  1
  O  O320  1  0.82356065  0.00910663  0.42100985  1
  O  O321  1  0.81949945  0.00259157  0.91477782  1
  O  O322  1  0.82430363  0.49124566  0.42150042  1
  O  O323  1  0.80820726  0.49528928  0.91627178  1
  O  O324  1  0.33256234  0.24561588  0.41002423  1
  O  O325  1  0.34268156  0.25233787  0.93563507  1
  O  O326  1  0.34699473  0.74197208  0.42269582  1
  O  O327  1  0.33364530  0.74354708  0.91699655  1
  O  O328  1  0.65609375  0.25010041  0.41384620  1
  O  O329  1  0.64703346  0.24774270  0.91405674  1
  O  O330  1  0.63223822  0.75068367  0.41798870  1
  O  O331  1  0.66825318  0.74992108  0.91180797  1
  O  O332  1  1.00586775  0.26151276  0.42321135  1
  O  O333  1  0.98088164  0.25242673  0.91637803  1
  O  O334  1  1.01104109  0.75600608  0.41035724  1
  O  O335  1  0.96175386  0.74241496  0.91976564  1
  O  O336  1  0.20898205  0.08366703  0.19488517  1
  O  O337  1  0.20796138  0.08003888  0.69689069  1
  O  O338  1  0.21453057  0.58089555  0.19812615  1
  O  O339  1  0.21255676  0.58475328  0.70160599  1
  O  O340  1  0.54700904  0.09070806  0.19248815  1
  O  O341  1  0.54282947  0.07983944  0.69328151  1
  O  O342  1  0.53136581  0.57969070  0.19368828  1
  O  O343  1  0.54550008  0.58423308  0.69674828  1
  O  O344  1  0.87389675  0.08689572  0.19133684  1
  O  O345  1  0.87416935  0.08683603  0.69554383  1
  O  O346  1  0.88293233  0.59006616  0.19200002  1
  O  O347  1  0.87462181  0.57970019  0.69488590  1
  O  O348  1  0.04263257  0.33059226  0.19361773  1
  O  O349  1  0.04466462  0.33253033  0.69950232  1
  O  O350  1  0.04727876  0.84047931  0.19176010  1
  O  O351  1  0.04820478  0.82567484  0.69207695  1
  O  O352  1  0.37567312  0.33092804  0.19458091  1
  O  O353  1  0.37896739  0.33292497  0.70101661  1
  O  O354  1  0.37772794  0.83635833  0.19368228  1
  O  O355  1  0.37780289  0.83284800  0.69737706  1
  O  O356  1  0.70851564  0.33272544  0.19537571  1
  O  O357  1  0.71032870  0.33239568  0.70060149  1
  O  O358  1  0.70794940  0.83277128  0.19682546  1
  O  O359  1  0.70413544  0.82887629  0.69144455  1
  O  O360  1  0.21175428  0.41296610  0.19111537  1
  O  O361  1  0.20643766  0.41791790  0.69576432  1
  O  O362  1  0.21055326  0.91935269  0.19476238  1
  O  O363  1  0.21346168  0.91335198  0.69745640  1
  O  O364  1  0.53895490  0.41330701  0.19436945  1
  O  O365  1  0.54275710  0.41912470  0.69263688  1
  O  O366  1  0.54650005  0.92010355  0.19022983  1
  O  O367  1  0.54458239  0.91287776  0.69474700  1
  O  O368  1  0.88272006  0.40878873  0.19475626  1
  O  O369  1  0.87844119  0.41317274  0.69590678  1
  O  O370  1  0.87908999  0.92077754  0.19727765  1
  O  O371  1  0.86427929  0.91857652  0.69835832  1
  O  O372  1  0.04574021  0.16727792  0.19385686  1
  O  O373  1  0.04307384  0.16728091  0.70000758  1
  O  O374  1  0.04165271  0.66276053  0.18914735  1
  O  O375  1  0.04221957  0.66633362  0.70092779  1
  O  O376  1  0.37579532  0.16535980  0.19449851  1
  O  O377  1  0.37903452  0.16445368  0.70021421  1
  O  O378  1  0.37788909  0.66720836  0.18968805  1
  O  O379  1  0.37956348  0.66763909  0.69550494  1
  O  O380  1  0.70837038  0.17018586  0.19410933  1
  O  O381  1  0.70672825  0.16714855  0.69520338  1
  O  O382  1  0.71494302  0.67205132  0.18897243  1
  O  O383  1  0.71054983  0.66217558  0.69503935  1
  O  O384  1  0.12414991  0.08427616  0.30591530  1
  O  O385  1  0.12205723  0.08560641  0.81259707  1
  O  O386  1  0.12480335  0.58215806  0.30514887  1
  O  O387  1  0.12266299  0.58369460  0.80642340  1
  O  O388  1  0.45409224  0.08840345  0.30405675  1
  O  O389  1  0.46134861  0.07819935  0.80751565  1
  O  O390  1  0.45451723  0.58017053  0.30368073  1
  O  O391  1  0.46027436  0.58537597  0.80502758  1
  O  O392  1  0.78710628  0.08711887  0.30590087  1
  O  O393  1  0.78558206  0.08587743  0.80473560  1
  O  O394  1  0.79591409  0.59602622  0.30597993  1
  O  O395  1  0.78965326  0.57871895  0.80565456  1
  O  O396  1  0.29051617  0.33118890  0.30421749  1
  O  O397  1  0.28895412  0.33409031  0.80268791  1
  O  O398  1  0.28996591  0.83518125  0.29875390  1
  O  O399  1  0.29633568  0.83018740  0.80994238  1
  O  O400  1  0.62050912  0.33099844  0.30437056  1
  O  O401  1  0.62092779  0.33301445  0.80505295  1
  O  O402  1  0.62190086  0.83278069  0.30625070  1
  O  O403  1  0.62647173  0.83171454  0.80301424  1
  O  O404  1  0.95737287  0.33484635  0.30797397  1
  O  O405  1  0.95386679  0.33394423  0.80636171  1
  O  O406  1  0.95364760  0.84058838  0.30610473  1
  O  O407  1  0.95380281  0.82090567  0.80952121  1
  O  O408  1  0.12487669  0.41667061  0.29721326  1
  O  O409  1  0.12172048  0.41799037  0.80891384  1
  O  O410  1  0.12411428  0.91664306  0.30522832  1
  O  O411  1  0.13377778  0.91506215  0.80482216  1
  O  O412  1  0.45354613  0.41292434  0.30348775  1
  O  O413  1  0.46298671  0.41946853  0.80832844  1
  O  O414  1  0.45231427  0.92266097  0.30718083  1
  O  O415  1  0.45962544  0.91254285  0.80494578  1
  O  O416  1  0.78271753  0.40924153  0.30811414  1
  O  O417  1  0.78908084  0.41569746  0.80557740  1
  O  O418  1  0.78464796  0.91961072  0.29742680  1
  O  O419  1  0.78468685  0.92191947  0.80528957  1
  O  O420  1  0.29006794  0.16421352  0.30287997  1
  O  O421  1  0.28942483  0.16555815  0.80245256  1
  O  O422  1  0.30252865  0.66890114  0.30522490  1
  O  O423  1  0.29564001  0.66522746  0.80680704  1
  O  O424  1  0.62069935  0.16848484  0.30390556  1
  O  O425  1  0.62201631  0.16497516  0.80440363  1
  O  O426  1  0.61695779  0.67080234  0.30802479  1
  O  O427  1  0.62546243  0.66496093  0.80428667  1
  O  O428  1  0.95580443  0.16782682  0.29827196  1
  O  O429  1  0.95302440  0.17027355  0.80644352  1
  O  O430  1  0.95866123  0.66753924  0.30580785  1
  O  O431  1  0.95245853  0.66078374  0.80729091  1
  F  F432  1  0.04680237  0.00357336  0.20262523  1
  F  F433  1  0.04981677  0.01201454  0.70436253  1
  F  F434  1  0.04514647  0.49906955  0.19662678  1
  F  F435  1  0.04417304  0.49861205  0.70575780  1
  F  F436  1  0.37048888  0.00131422  0.19728323  1
  F  F437  1  0.37961815  -0.00342071  0.70436269  1
  F  F438  1  0.37775452  0.49625190  0.20059657  1
  F  F439  1  0.38049343  0.50011922  0.70519886  1
  F  F440  1  0.71165282  0.00768902  0.19655011  1
  F  F441  1  0.70914402  0.00167438  0.70087140  1
  F  F442  1  0.69984745  0.48435477  0.18848030  1
  F  F443  1  0.71269064  0.49898314  0.70269258  1
  F  F444  1  0.21189353  0.24856404  0.20120618  1
  F  F445  1  0.20682515  0.24866460  0.70351104  1
  F  F446  1  0.21668969  0.75450935  0.19406041  1
  F  F447  1  0.21664539  0.75052716  0.70622341  1
  F  F448  1  0.54334928  0.25055366  0.20028004  1
  F  F449  1  0.54425584  0.24890277  0.70323924  1
  F  F450  1  0.54959807  0.74153839  0.19535922  1
  F  F451  1  0.54690288  0.74853746  0.70263020  1
  F  F452  1  0.87650022  0.25282712  0.20147315  1
  F  F453  1  0.87903962  0.25003972  0.70408196  1
  F  F454  1  0.87633878  0.75428347  0.19928808  1
  F  F455  1  0.87783306  0.74293540  0.70046557  1
  F  F456  1  0.28686733  0.00211879  0.29824740  1
  F  F457  1  0.29127314  -0.00063316  0.79987822  1
  F  F458  1  0.29056775  0.49712175  0.29782885  1
  F  F459  1  0.29030604  0.49909696  0.80007377  1
  F  F460  1  0.62397160  0.00096621  0.29657281  1
  F  F461  1  0.62125544  -0.00229941  0.79599874  1
  F  F462  1  0.61301854  0.48782643  0.30235357  1
  F  F463  1  0.62330420  0.49875280  0.79778804  1
  F  F464  1  0.95414430  0.00478616  0.29721043  1
  F  F465  1  0.94635610  0.01332382  0.80602247  1
  F  F466  1  0.96822442  0.50245263  0.29934441  1
  F  F467  1  0.95295327  0.49820817  0.79918283  1
  F  F468  1  0.12276734  0.24961914  0.29672227  1
  F  F469  1  0.11992989  0.25101928  0.80233946  1
  F  F470  1  0.12410444  0.75091450  0.29490028  1
  F  F471  1  0.12394658  0.74831392  0.80064815  1
  F  F472  1  0.45398921  0.24889886  0.29636934  1
  F  F473  1  0.46086402  0.24894797  0.80206034  1
  F  F474  1  0.45361600  0.74789469  0.29471341  1
  F  F475  1  0.45863270  0.74906842  0.79882286  1
  F  F476  1  0.78610759  0.25004697  0.29709698  1
  F  F477  1  0.78732682  0.24854003  0.80040612  1
  F  F478  1  0.78790709  0.75245554  0.29776278  1
  F  F479  1  0.78390983  0.73981058  0.80092566  1
