# generated using pymatgen
data_K24Na3Li5Mg64Fe17Si79(O5F)48
_symmetry_space_group_name_H-M   'P 1'
_cell_length_a   16.09645338
_cell_length_b   18.58954105
_cell_length_c   20.55082998
_cell_angle_alpha   90.00637577
_cell_angle_beta   100.00683611
_cell_angle_gamma   90.00091922
_symmetry_Int_Tables_number   1
_chemical_formula_structural   K24Na3Li5Mg64Fe17Si79(O5F)48
_chemical_formula_sum   'K24 Na3 Li5 Mg64 Fe17 Si79 O240 F48'
_cell_volume   6055.78637216
_cell_formula_units_Z   1
loop_
 _symmetry_equiv_pos_site_id
 _symmetry_equiv_pos_as_xyz
  1  'x, y, z'
loop_
 _atom_site_type_symbol
 _atom_site_label
 _atom_site_symmetry_multiplicity
 _atom_site_fract_x
 _atom_site_fract_y
 _atom_site_fract_z
 _atom_site_occupancy
  K  K0  1  0.00036980  0.00147536  0.00373910  1
  K  K1  1  -0.00003647  -0.00159911  0.49837750  1
  K  K2  1  0.00282831  0.49776370  0.00555528  1
  K  K3  1  0.00137374  0.50207638  0.49817643  1
  K  K4  1  0.32293632  0.00773645  0.00492018  1
  K  K5  1  0.33186562  0.00480522  0.49712673  1
  K  K6  1  0.33387098  0.50318513  0.01301420  1
  K  K7  1  0.33820766  0.50097000  0.49283847  1
  K  K8  1  0.66478832  0.00095075  -0.00076202  1
  K  K9  1  0.67330557  -0.00227121  0.50144098  1
  K  K10  1  0.66868333  0.49890867  0.00459957  1
  K  K11  1  0.65088824  0.49491703  0.49163999  1
  K  K12  1  0.16488984  0.24909522  0.00836437  1
  K  K13  1  0.15987064  0.24663670  0.48908174  1
  K  K14  1  0.17886118  0.74030680  0.00437563  1
  K  K15  1  0.17610962  0.75022187  0.50324803  1
  K  K16  1  0.49561155  0.25699675  0.00895122  1
  K  K17  1  0.49046055  0.26134285  0.49113766  1
  K  K18  1  0.48970348  0.74349003  0.00066341  1
  K  K19  1  0.48900170  0.74681596  0.50247902  1
  K  K20  1  0.83190839  0.25804076  0.00775995  1
  K  K21  1  0.83603922  0.25913818  0.49556918  1
  K  K22  1  0.82939598  0.74398139  -0.00277146  1
  K  K23  1  0.83992254  0.75313507  0.49962573  1
  Na  Na24  1  0.16620090  0.00022657  0.74211507  1
  Na  Na25  1  0.16723374  0.66821533  0.74359538  1
  Na  Na26  1  -0.00004412  0.08210670  0.25564945  1
  Li  Li27  1  0.83534906  0.49888969  0.25096653  1
  Li  Li28  1  0.48919130  0.49765975  0.24793664  1
  Li  Li29  1  0.66866458  0.91420565  0.74708384  1
  Li  Li30  1  0.33026173  0.41581884  0.25232092  1
  Li  Li31  1  0.16884414  0.33940764  0.24934371  1
  Mg  Mg32  1  -0.00153468  0.25109075  0.75157083  1
  Mg  Mg33  1  0.83274168  -0.00493578  0.74880489  1
  Mg  Mg34  1  0.00352929  0.25185626  0.25549918  1
  Mg  Mg35  1  0.50367241  -0.00190529  0.74827810  1
  Mg  Mg36  1  0.33423538  0.74903994  0.24293343  1
  Mg  Mg37  1  0.49965556  0.50023207  0.75276163  1
  Mg  Mg38  1  0.66773674  0.75177489  0.75285859  1
  Mg  Mg39  1  0.16484709  0.49998621  0.74786164  1
  Mg  Mg40  1  0.16455414  -0.00055965  0.24487130  1
  Mg  Mg41  1  0.17288990  0.49706286  0.24630140  1
  Mg  Mg42  1  0.00008484  0.74742555  0.24909023  1
  Mg  Mg43  1  0.83352544  -0.00009979  0.25711442  1
  Mg  Mg44  1  0.33620547  0.75155622  0.74286069  1
  Mg  Mg45  1  0.00262097  0.75014786  0.74870534  1
  Mg  Mg46  1  0.66734387  0.24991327  0.75600795  1
  Mg  Mg47  1  0.83157013  0.50053328  0.75615550  1
  Mg  Mg48  1  0.33077437  0.25469481  0.24890404  1
  Mg  Mg49  1  0.66626687  0.25331917  0.25217964  1
  Mg  Mg50  1  0.33203179  0.24953375  0.75001224  1
  Mg  Mg51  1  0.66695260  0.74892495  0.25251864  1
  Mg  Mg52  1  0.49927220  0.00239962  0.24557476  1
  Mg  Mg53  1  0.16861599  0.83411675  0.74239672  1
  Mg  Mg54  1  -0.00173636  0.41424789  0.75228280  1
  Mg  Mg55  1  0.33030022  0.91697887  0.24107779  1
  Mg  Mg56  1  0.49907170  0.83414315  0.24596238  1
  Mg  Mg57  1  0.00162619  0.58075253  0.25120945  1
  Mg  Mg58  1  0.66820593  0.91637713  0.25284056  1
  Mg  Mg59  1  0.83442111  0.66351177  0.25281154  1
  Mg  Mg60  1  0.00052853  0.91456611  0.74522958  1
  Mg  Mg61  1  0.66800107  0.41474476  0.75964903  1
  Mg  Mg62  1  0.49593607  0.33816440  0.24897264  1
  Mg  Mg63  1  0.33602519  0.58048544  0.24544814  1
  Mg  Mg64  1  0.66688524  0.58055313  0.25128436  1
  Mg  Mg65  1  0.16561772  0.83406287  0.24436463  1
  Mg  Mg66  1  0.83566444  0.16844953  0.25449612  1
  Mg  Mg67  1  0.83433616  0.83411356  0.25472880  1
  Mg  Mg68  1  0.66576689  0.42046767  0.25342478  1
  Mg  Mg69  1  0.50160009  0.33335100  0.75550576  1
  Mg  Mg70  1  0.50172966  0.16507728  0.75234692  1
  Mg  Mg71  1  0.66838456  0.08032422  0.75281058  1
  Mg  Mg72  1  0.66835252  0.08571112  0.25206027  1
  Mg  Mg73  1  -0.00115821  0.08178818  0.74896493  1
  Mg  Mg74  1  0.16311208  0.16767319  0.24978906  1
  Mg  Mg75  1  0.49756169  0.66657565  0.74848735  1
  Mg  Mg76  1  0.83296682  0.83381861  0.75025277  1
  Mg  Mg77  1  0.83441430  0.16365928  0.75395485  1
  Mg  Mg78  1  0.83623187  0.33826192  0.25365758  1
  Mg  Mg79  1  0.83475709  0.33446034  0.75637069  1
  Mg  Mg80  1  0.33084856  0.58574784  0.74502449  1
  Mg  Mg81  1  -0.00037151  0.91427023  0.25044501  1
  Mg  Mg82  1  0.16224269  0.33440191  0.74963616  1
  Mg  Mg83  1  0.66786764  0.58449837  0.75505359  1
  Mg  Mg84  1  0.33174017  0.08233792  0.74670552  1
  Mg  Mg85  1  0.00234869  0.41792523  0.25261006  1
  Mg  Mg86  1  0.33440221  0.91537994  0.74470678  1
  Mg  Mg87  1  -0.00000895  0.58386389  0.75204895  1
  Mg  Mg88  1  0.16370263  0.16623337  0.74680365  1
  Mg  Mg89  1  0.32879343  0.08658895  0.24318525  1
  Mg  Mg90  1  0.16859518  0.66416496  0.24659036  1
  Mg  Mg91  1  0.49688120  0.16903316  0.24692426  1
  Mg  Mg92  1  0.33130616  0.41599534  0.75030539  1
  Mg  Mg93  1  0.83453002  0.66570539  0.75544780  1
  Mg  Mg94  1  0.49859782  0.66213558  0.24767218  1
  Mg  Mg95  1  0.50268974  0.83532767  0.74590548  1
  Fe  Fe96  1  0.81318400  0.58648513  0.89520655  1
  Fe  Fe97  1  0.18431077  0.91381259  0.10467151  1
  Fe  Fe98  1  0.46687248  0.41597100  0.38714657  1
  Fe  Fe99  1  0.01916046  0.33543826  0.60968947  1
  Fe  Fe100  1  0.97437094  0.32903005  0.89393337  1
  Fe  Fe101  1  0.35599121  0.17016528  0.10691868  1
  Fe  Fe102  1  0.97725406  0.17377437  0.39404530  1
  Fe  Fe103  1  0.19214382  0.92067041  0.60317772  1
  Fe  Fe104  1  0.36356688  0.83890429  0.60330101  1
  Fe  Fe105  1  0.14664090  0.42110706  0.38961570  1
  Fe  Fe106  1  0.63800508  0.33171288  0.89610345  1
  Fe  Fe107  1  0.36327814  0.66461143  0.10526735  1
  Fe  Fe108  1  0.02203972  0.33197504  0.11340945  1
  Fe  Fe109  1  0.18627180  0.58252131  0.10572152  1
  Fe  Fe110  1  0.35432929  0.66242799  0.60396432  1
  Fe  Fe111  1  0.85912197  0.91138694  0.60927344  1
  Fe  Fe112  1  0.80824854  0.91693021  0.39281066  1
  Si  Si113  1  0.69497403  0.16952642  0.61853222  1
  Si  Si114  1  0.85241300  0.42435001  0.61565228  1
  Si  Si115  1  0.53098420  0.57960999  0.61498196  1
  Si  Si116  1  0.14450020  0.58294068  0.88352626  1
  Si  Si117  1  0.69379221  0.82811225  0.61523354  1
  Si  Si118  1  0.14163383  0.91200783  0.38324519  1
  Si  Si119  1  0.81078662  0.91026693  0.88626305  1
  Si  Si120  1  0.64445615  0.15960814  0.89056135  1
  Si  Si121  1  0.47571180  0.08222898  0.38207492  1
  Si  Si122  1  0.97783158  0.66229286  0.38654499  1
  Si  Si123  1  0.01755702  0.66703855  0.11269263  1
  Si  Si124  1  0.14598709  0.07714492  0.38639684  1
  Si  Si125  1  0.18826229  0.09448166  0.60991981  1
  Si  Si126  1  0.98360352  0.67086449  0.88963222  1
  Si  Si127  1  0.85866127  0.58383018  0.11843697  1
  Si  Si128  1  0.14046121  0.42036881  0.88801028  1
  Si  Si129  1  0.47332806  0.58678773  0.38691422  1
  Si  Si130  1  0.30865389  0.15941640  0.38472793  1
  Si  Si131  1  0.85576155  0.08185708  0.61532013  1
  Si  Si132  1  0.14382266  0.91504529  0.88058567  1
  Si  Si133  1  0.47425829  0.91731500  0.88400033  1
  Si  Si134  1  0.63421242  0.83344183  0.38685554  1
  Si  Si135  1  0.47124785  0.91823583  0.37991689  1
  Si  Si136  1  0.30888874  0.66848339  0.88157832  1
  Si  Si137  1  0.30732496  0.16720289  0.88383535  1
  Si  Si138  1  0.85678895  0.91578902  0.11603255  1
  Si  Si139  1  0.52980599  0.41478890  0.62007228  1
  Si  Si140  1  0.80621732  0.58519050  0.38658944  1
  Si  Si141  1  0.01745406  0.16746248  0.61406616  1
  Si  Si142  1  0.46568082  0.41707227  0.88973391  1
  Si  Si143  1  0.80749789  0.41632469  0.89438400  1
  Si  Si144  1  0.30951819  0.83240135  0.88264357  1
  Si  Si145  1  0.36409006  0.83921116  0.10551914  1
  Si  Si146  1  0.69520150  0.33394557  0.62002790  1
  Si  Si147  1  0.53696347  0.58215787  0.11282724  1
  Si  Si148  1  0.53620020  0.91988329  0.61191215  1
  Si  Si149  1  0.18093751  0.08540873  0.10736153  1
  Si  Si150  1  0.18601890  0.57365055  0.60943673  1
  Si  Si151  1  0.64062527  0.66771399  0.38642917  1
  Si  Si152  1  0.85559455  0.07923377  0.11901346  1
  Si  Si153  1  0.85225439  0.58666907  0.61708480  1
  Si  Si154  1  0.31002147  0.67413173  0.38203960  1
  Si  Si155  1  0.63827717  0.16677428  0.38493249  1
  Si  Si156  1  0.53144685  0.08495414  0.11131909  1
  Si  Si157  1  0.69773801  0.16800921  0.11700236  1
  Si  Si158  1  0.01858685  0.65997697  0.61364109  1
  Si  Si159  1  0.69448699  0.83091256  0.11605997  1
  Si  Si160  1  0.52888488  0.08625011  0.61516008  1
  Si  Si161  1  0.53178607  0.41647169  0.11657505  1
  Si  Si162  1  0.14879821  0.58912700  0.38648121  1
  Si  Si163  1  0.19256122  0.41296375  0.11139803  1
  Si  Si164  1  0.97813990  0.82749186  0.38754931  1
  Si  Si165  1  0.30875383  0.83653461  0.37916902  1
  Si  Si166  1  0.30082311  0.33353030  0.88507412  1
  Si  Si167  1  0.98169058  0.83505694  0.88548206  1
  Si  Si168  1  0.47259753  0.08216938  0.88468168  1
  Si  Si169  1  0.36358069  0.33442397  0.61716450  1
  Si  Si170  1  0.14290802  0.08091669  0.88212534  1
  Si  Si171  1  0.36149662  0.33859426  0.11044245  1
  Si  Si172  1  0.30571886  0.32421267  0.39083861  1
  Si  Si173  1  0.02836240  0.82601965  0.60642546  1
  Si  Si174  1  0.97834177  0.15773578  0.88937849  1
  Si  Si175  1  0.80620219  0.08870346  0.39231462  1
  Si  Si176  1  0.53394180  0.91897683  0.11356528  1
  Si  Si177  1  0.80309896  0.41898659  0.38673288  1
  Si  Si178  1  0.85661400  0.42084646  0.11647049  1
  Si  Si179  1  0.36022964  0.16838801  0.61388575  1
  Si  Si180  1  0.01580464  0.82872074  0.11157375  1
  Si  Si181  1  0.63962855  0.83452952  0.88518910  1
  Si  Si182  1  0.68981848  0.66764824  0.61838512  1
  Si  Si183  1  0.64062044  0.33274033  0.38847061  1
  Si  Si184  1  0.63562761  0.66836126  0.88991756  1
  Si  Si185  1  0.81005737  0.07548517  0.88778401  1
  Si  Si186  1  0.19345999  0.40992784  0.61277476  1
  Si  Si187  1  0.97384721  0.34465175  0.39260400  1
  Si  Si188  1  0.01700702  0.16653678  0.11495448  1
  Si  Si189  1  0.69461325  0.33350982  0.11773608  1
  Si  Si190  1  0.47024529  0.58337063  0.88599651  1
  Si  Si191  1  0.69778547  0.66749903  0.11657798  1
  O  O192  1  0.25765159  0.11793947  0.07362208  1
  O  O193  1  0.27180491  0.12897219  0.58104533  1
  O  O194  1  0.26887686  0.61866881  0.06130937  1
  O  O195  1  0.25769500  0.60535750  0.57157925  1
  O  O196  1  0.61289865  0.12266575  0.08498401  1
  O  O197  1  0.60722869  0.12644381  0.58729616  1
  O  O198  1  0.62040853  0.61542114  0.08419681  1
  O  O199  1  0.61801169  0.60760890  0.58980432  1
  O  O200  1  0.94033447  0.10524008  0.09225088  1
  O  O201  1  0.94251507  0.10740706  0.58893778  1
  O  O202  1  0.93939798  0.61055600  0.08585357  1
  O  O203  1  0.93283180  0.61253485  0.58327524  1
  O  O204  1  0.12179372  0.35276156  0.08153632  1
  O  O205  1  0.12235309  0.35320721  0.58074832  1
  O  O206  1  0.09343467  0.84951783  0.07500151  1
  O  O207  1  0.10985149  0.84881954  0.57495217  1
  O  O208  1  0.44206996  0.37927135  0.08361265  1
  O  O209  1  0.44569773  0.36763137  0.59009716  1
  O  O210  1  0.44798261  0.87777289  0.08128670  1
  O  O211  1  0.46183312  0.87187893  0.57142612  1
  O  O212  1  0.77007131  0.37283909  0.08732075  1
  O  O213  1  0.77052150  0.37141767  0.58787050  1
  O  O214  1  0.77429178  0.86526432  0.08625963  1
  O  O215  1  0.77408534  0.84304275  0.57980413  1
  O  O216  1  0.28044915  0.39009865  0.08295403  1
  O  O217  1  0.28323422  0.38556221  0.58865949  1
  O  O218  1  0.28452775  0.88930801  0.07415610  1
  O  O219  1  0.28352990  0.90302303  0.56266950  1
  O  O220  1  0.60529291  0.37211874  0.08512718  1
  O  O221  1  0.60801840  0.37757062  0.59098706  1
  O  O222  1  0.61205460  0.87954776  0.08500224  1
  O  O223  1  0.62378443  0.89107988  0.58848040  1
  O  O224  1  0.93128474  0.39539499  0.07870236  1
  O  O225  1  0.93081501  0.40227177  0.58055884  1
  O  O226  1  0.93607986  0.88469382  0.08429198  1
  O  O227  1  0.94984582  0.87643567  0.57293387  1
  O  O228  1  0.09715435  0.13644018  0.08228880  1
  O  O229  1  0.10594244  0.14834684  0.58672836  1
  O  O230  1  0.09465229  0.64745882  0.07595190  1
  O  O231  1  0.09634635  0.61911171  0.58632532  1
  O  O232  1  0.44675785  0.12317646  0.07432677  1
  O  O233  1  0.44003543  0.12957766  0.58592871  1
  O  O234  1  0.45686133  0.62460433  0.07260266  1
  O  O235  1  0.45231821  0.62360281  0.57597725  1
  O  O236  1  0.77506480  0.13067181  0.08582139  1
  O  O237  1  0.77609673  0.13849070  0.58915702  1
  O  O238  1  0.78167604  0.64023958  0.08854946  1
  O  O239  1  0.77557292  0.64382628  0.58982337  1
  O  O240  1  0.07126422  0.11094832  0.42016654  1
  O  O241  1  0.06138287  0.10525770  0.91533265  1
  O  O242  1  0.06318925  0.61680321  0.41599975  1
  O  O243  1  0.06756375  0.62012206  0.91535347  1
  O  O244  1  0.39498583  0.11135530  0.41288331  1
  O  O245  1  0.39560688  0.12386466  0.91316876  1
  O  O246  1  0.39401806  0.62799139  0.41464054  1
  O  O247  1  0.39199607  0.62091416  0.91524903  1
  O  O248  1  0.71532733  0.11318246  0.41551181  1
  O  O249  1  0.72840204  0.10815607  0.91664541  1
  O  O250  1  0.72982505  0.62590582  0.41769090  1
  O  O251  1  0.71896040  0.62726767  0.92706254  1
  O  O252  1  0.22492070  0.34952438  0.42324019  1
  O  O253  1  0.21987047  0.36431329  0.91430387  1
  O  O254  1  0.22637652  0.86357369  0.40909444  1
  O  O255  1  0.23013337  0.86937663  0.91159221  1
  O  O256  1  0.56735526  0.36336007  0.42502233  1
  O  O257  1  0.54089239  0.36650689  0.92608416  1
  O  O258  1  0.54639175  0.86212552  0.41043281  1
  O  O259  1  0.56649409  0.88068933  0.91536485  1
  O  O260  1  0.88739560  0.37471259  0.41950127  1
  O  O261  1  0.87312043  0.35204915  0.92145283  1
  O  O262  1  0.90196728  0.85760836  0.42127234  1
  O  O263  1  0.89894455  0.86610616  0.91601715  1
  O  O264  1  0.04544115  0.40335868  0.42102469  1
  O  O265  1  0.06162044  0.39622708  0.92148417  1
  O  O266  1  0.06506094  0.87385416  0.41409748  1
  O  O267  1  0.06313635  0.88696748  0.91439395  1
  O  O268  1  0.38740165  0.36921955  0.42961502  1
  O  O269  1  0.37946834  0.38691637  0.91447059  1
  O  O270  1  0.38609875  0.89264764  0.40735794  1
  O  O271  1  0.39867174  0.87489697  0.91323287  1
  O  O272  1  0.72637577  0.38017198  0.41790191  1
  O  O273  1  0.71980484  0.40152367  0.92265423  1
  O  O274  1  0.71009938  0.88355100  0.42267615  1
  O  O275  1  0.73213557  0.87184237  0.91617221  1
  O  O276  1  0.23562279  0.11877693  0.41806811  1
  O  O277  1  0.22863002  0.12876262  0.91241381  1
  O  O278  1  0.22527350  0.64918498  0.41089984  1
  O  O279  1  0.22713792  0.63437808  0.90805504  1
  O  O280  1  0.55530190  0.13469893  0.41300274  1
  O  O281  1  0.56353689  0.11929921  0.91634222  1
  O  O282  1  0.56200678  0.63271204  0.41656086  1
  O  O283  1  0.55376121  0.63133802  0.91631532  1
  O  O284  1  0.87684339  0.14604394  0.42440703  1
  O  O285  1  0.89769701  0.11840983  0.91732826  1
  O  O286  1  0.89691074  0.62663360  0.41589345  1
  O  O287  1  0.90683358  0.64645873  0.92585065  1
  O  O288  1  0.15555852  0.00687215  0.07384180  1
  O  O289  1  0.16229926  0.01776185  0.57660704  1
  O  O290  1  0.16179530  0.48902322  0.07432045  1
  O  O291  1  0.16554159  0.49009253  0.58287155  1
  O  O292  1  0.53265374  0.00087683  0.08422019  1
  O  O293  1  0.52361311  0.00507700  0.58450351  1
  O  O294  1  0.53286271  0.49797804  0.08620981  1
  O  O295  1  0.51997468  0.49523422  0.58878229  1
  O  O296  1  0.83427821  -0.00250846  0.08707253  1
  O  O297  1  0.82622851  0.00570756  0.58158880  1
  O  O298  1  0.82901223  0.50397421  0.09037628  1
  O  O299  1  0.82128847  0.50639305  0.58930237  1
  O  O300  1  -0.01666150  0.24041843  0.07854032  1
  O  O301  1  -0.01898184  0.24294410  0.58256612  1
  O  O302  1  -0.02085036  0.74791075  0.08856998  1
  O  O303  1  0.00519932  0.74076327  0.58172215  1
  O  O304  1  0.34895660  0.26279846  0.06930304  1
  O  O305  1  0.35332689  0.25220344  0.58694230  1
  O  O306  1  0.35696038  0.76062023  0.07181694  1
  O  O307  1  0.33694189  0.75016889  0.56312316  1
  O  O308  1  0.68771383  0.25039811  0.08827456  1
  O  O309  1  0.68115192  0.25210754  0.59032418  1
  O  O310  1  0.67853377  0.74946919  0.08584266  1
  O  O311  1  0.65722089  0.74671821  0.58874650  1
  O  O312  1  0.15950374  -0.00739528  0.41404433  1
  O  O313  1  0.16514488  -0.00197894  0.90749474  1
  O  O314  1  0.18026632  0.51488994  0.42261239  1
  O  O315  1  0.16864155  0.50251211  0.91494973  1
  O  O316  1  0.49634357  -0.00058302  0.41000018  1
  O  O317  1  0.47724875  -0.00025814  0.91444919  1
  O  O318  1  0.48502190  0.51017236  0.42434337  1
  O  O319  1  0.48036131  0.50117769  0.91613449  1
  O  O320  1  0.82969832  0.01015344  0.42498974  1
  O  O321  1  0.82113863  -0.00736156  0.91756976  1
  O  O322  1  0.81212767  0.50267132  0.41620600  1
  O  O323  1  0.84466488  0.49367308  0.92395720  1
  O  O324  1  0.32532511  0.23860466  0.41837695  1
  O  O325  1  0.31938866  0.25023045  0.91224923  1
  O  O326  1  0.33300639  0.75665725  0.40970547  1
  O  O327  1  0.32149131  0.75034766  0.91332370  1
  O  O328  1  0.65941469  0.24792541  0.41457348  1
  O  O329  1  0.66119620  0.23604692  0.92736906  1
  O  O330  1  0.65081968  0.75051576  0.41482495  1
  O  O331  1  0.63995374  0.75310153  0.91706007  1
  O  O332  1  0.99754781  0.26749304  0.42850470  1
  O  O333  1  1.00065232  0.23418744  0.92443510  1
  O  O334  1  0.99482974  0.74418014  0.41568600  1
  O  O335  1  1.00720380  0.75451025  0.91517176  1
  O  O336  1  0.20523609  0.08281570  0.18880696  1
  O  O337  1  0.21500942  0.09550643  0.68992524  1
  O  O338  1  0.21165706  0.58504285  0.19765401  1
  O  O339  1  0.21239744  0.57276500  0.68936970  1
  O  O340  1  0.54563526  0.08492098  0.19233719  1
  O  O341  1  0.54521138  0.08606040  0.69569947  1
  O  O342  1  0.55139500  0.58926308  0.19242778  1
  O  O343  1  0.54498721  0.58168816  0.69626765  1
  O  O344  1  0.86285464  0.07958159  0.19786350  1
  O  O345  1  0.87299068  0.08314165  0.69654590  1
  O  O346  1  0.87900227  0.58781445  0.19781809  1
  O  O347  1  0.87458692  0.58472051  0.69738980  1
  O  O348  1  0.03843829  0.33332991  0.20341523  1
  O  O349  1  0.04325758  0.33400408  0.70142505  1
  O  O350  1  0.03830707  0.83127683  0.19259424  1
  O  O351  1  0.04204549  0.82986503  0.68801094  1
  O  O352  1  0.38054165  0.32753158  0.18959031  1
  O  O353  1  0.37925389  0.33238562  0.69798229  1
  O  O354  1  0.37977191  0.83684651  0.18746915  1
  O  O355  1  0.38469337  0.83507496  0.69660742  1
  O  O356  1  0.71022339  0.33418568  0.19779575  1
  O  O357  1  0.71249783  0.33328117  0.70038536  1
  O  O358  1  0.70981628  0.83155222  0.19615960  1
  O  O359  1  0.71309843  0.82733481  0.69558083  1
  O  O360  1  0.21154364  0.41819946  0.19098915  1
  O  O361  1  0.21050461  0.41305528  0.69427088  1
  O  O362  1  0.20920527  0.91558404  0.19635214  1
  O  O363  1  0.21900992  0.91149803  0.69344274  1
  O  O364  1  0.54972322  0.41327213  0.19578674  1
  O  O365  1  0.54404602  0.41589793  0.70035200  1
  O  O366  1  0.54780823  0.91787727  0.19409786  1
  O  O367  1  0.54411478  0.91923946  0.69209666  1
  O  O368  1  0.87697018  0.41631643  0.19629605  1
  O  O369  1  0.87112935  0.42002934  0.69653976  1
  O  O370  1  0.87534850  0.91404220  0.19600560  1
  O  O371  1  0.87771619  0.91349080  0.70096248  1
  O  O372  1  0.04370243  0.17201541  0.19405589  1
  O  O373  1  0.03887730  0.16716900  0.69543018  1
  O  O374  1  0.04047013  0.66633059  0.19381897  1
  O  O375  1  0.03005065  0.66360716  0.69296236  1
  O  O376  1  0.37805391  0.16747397  0.19849832  1
  O  O377  1  0.37884883  0.16758106  0.69457072  1
  O  O378  1  0.38070172  0.66835337  0.19713029  1
  O  O379  1  0.37985188  0.66473667  0.69666222  1
  O  O380  1  0.71075577  0.16748813  0.19724959  1
  O  O381  1  0.70939715  0.16657044  0.69913238  1
  O  O382  1  0.71239307  0.66886679  0.19682070  1
  O  O383  1  0.70890028  0.66719839  0.69891639  1
  O  O384  1  0.13569987  0.07798226  0.30666889  1
  O  O385  1  0.12036893  0.08974627  0.80324841  1
  O  O386  1  0.12425176  0.58842875  0.30610797  1
  O  O387  1  0.11967691  0.57715114  0.80434065  1
  O  O388  1  0.45886627  0.08241124  0.30194916  1
  O  O389  1  0.45714127  0.08423395  0.80440521  1
  O  O390  1  0.45712332  0.58823463  0.30721892  1
  O  O391  1  0.45646379  0.58174632  0.80566856  1
  O  O392  1  0.78777325  0.08531928  0.31039776  1
  O  O393  1  0.79125334  0.07923680  0.80750566  1
  O  O394  1  0.78713270  0.58852325  0.30730837  1
  O  O395  1  0.78832294  0.58459617  0.80316534  1
  O  O396  1  0.29439386  0.32671489  0.31132166  1
  O  O397  1  0.28759889  0.33296975  0.80442825  1
  O  O398  1  0.29227451  0.83442487  0.29889282  1
  O  O399  1  0.29344039  0.83274090  0.80310711  1
  O  O400  1  0.62305235  0.33357586  0.30778206  1
  O  O401  1  0.62051981  0.33073889  0.80375291  1
  O  O402  1  0.62131077  0.83385272  0.30559197  1
  O  O403  1  0.62221975  0.83255258  0.80569650  1
  O  O404  1  0.95392100  0.33883727  0.31165544  1
  O  O405  1  0.95377759  0.33227165  0.80192953  1
  O  O406  1  0.95854159  0.82854979  0.30640751  1
  O  O407  1  0.95897197  0.83303552  0.80544662  1
  O  O408  1  0.12365037  0.42344330  0.30026231  1
  O  O409  1  0.12458034  0.41809871  0.80686131  1
  O  O410  1  0.12172460  0.91279925  0.30299269  1
  O  O411  1  0.11952067  0.90982912  0.80171270  1
  O  O412  1  0.45350687  0.41607283  0.29904114  1
  O  O413  1  0.45359429  0.41582123  0.80849425  1
  O  O414  1  0.45607251  0.91861344  0.29930023  1
  O  O415  1  0.46039603  0.91790041  0.80415929  1
  O  O416  1  0.78582052  0.41628179  0.30727285  1
  O  O417  1  0.78960593  0.41662045  0.81151612  1
  O  O418  1  0.78626057  0.91513949  0.30088530  1
  O  O419  1  0.79288304  0.91374243  0.80708392  1
  O  O420  1  0.29030574  0.16155372  0.30486266  1
  O  O421  1  0.29067217  0.16662948  0.80354724  1
  O  O422  1  0.29125970  0.67204666  0.30221434  1
  O  O423  1  0.30018240  0.66831671  0.80279178  1
  O  O424  1  0.62102792  0.16695762  0.30423988  1
  O  O425  1  0.62501943  0.16392259  0.80940346  1
  O  O426  1  0.62418853  0.66708862  0.30598122  1
  O  O427  1  0.62184620  0.66690155  0.80892297  1
  O  O428  1  0.94995584  0.17552583  0.30432346  1
  O  O429  1  0.95618989  0.16226958  0.80833228  1
  O  O430  1  0.95768962  0.66513157  0.30624058  1
  O  O431  1  0.96012489  0.66764029  0.80869342  1
  F  F432  1  0.04511660  -0.01047263  0.19871954  1
  F  F433  1  0.03039992  0.00039963  0.69662711  1
  F  F434  1  0.04462586  0.50346853  0.20032836  1
  F  F435  1  0.04194542  0.49866051  0.70233105  1
  F  F436  1  0.38033183  0.00179630  0.19600425  1
  F  F437  1  0.38437086  0.00393607  0.69888472  1
  F  F438  1  0.38275486  0.51047867  0.19138647  1
  F  F439  1  0.38119491  0.49675707  0.70273813  1
  F  F440  1  0.70966339  0.00132668  0.20349286  1
  F  F441  1  0.71279749  0.00334016  0.70300561  1
  F  F442  1  0.70854292  0.50070930  0.20187825  1
  F  F443  1  0.70846330  0.49691279  0.70715003  1
  F  F444  1  0.21418456  0.24412038  0.20247921  1
  F  F445  1  0.21283224  0.25157970  0.70263696  1
  F  F446  1  0.21141051  0.75101284  0.19769235  1
  F  F447  1  0.21894620  0.75654187  0.69383759  1
  F  F448  1  0.54801165  0.25053357  0.20142385  1
  F  F449  1  0.54488746  0.24785211  0.70407018  1
  F  F450  1  0.54891115  0.75164087  0.20124044  1
  F  F451  1  0.54883865  0.74822190  0.70283232  1
  F  F452  1  0.87252069  0.25338431  0.20359352  1
  F  F453  1  0.87387707  0.24752339  0.70528988  1
  F  F454  1  0.87603673  0.75008524  0.20528869  1
  F  F455  1  0.87831426  0.74778823  0.70635833  1
  F  F456  1  0.29134233  0.00058879  0.29205161  1
  F  F457  1  0.30319914  0.00084610  0.79893572  1
  F  F458  1  0.29088871  0.50459229  0.29871283  1
  F  F459  1  0.28794088  0.50008193  0.79624355  1
  F  F460  1  0.61872777  0.00142857  0.29738256  1
  F  F461  1  0.61828607  0.00479963  0.80203294  1
  F  F462  1  0.62873310  0.50235029  0.30429067  1
  F  F463  1  0.61885656  0.50104776  0.80239142  1
  F  F464  1  0.95031792  -0.01376841  0.30441123  1
  F  F465  1  0.95506914  -0.00019708  0.79984939  1
  F  F466  1  0.95737428  0.50237851  0.29992187  1
  F  F467  1  0.95390028  0.50038676  0.79876863  1
  F  F468  1  0.11975557  0.23855171  0.30647008  1
  F  F469  1  0.12336317  0.24840184  0.79884796  1
  F  F470  1  0.12219817  0.75063622  0.29374667  1
  F  F471  1  0.11955982  0.75830069  0.79597096  1
  F  F472  1  0.45787502  0.25060481  0.29834710  1
  F  F473  1  0.45341186  0.24790378  0.80002399  1
  F  F474  1  0.45610841  0.75440483  0.29498811  1
  F  F475  1  0.45954580  0.75135235  0.79836796  1
  F  F476  1  0.78448286  0.25218441  0.30028749  1
  F  F477  1  0.78785402  0.24653033  0.80204170  1
  F  F478  1  0.78790503  0.74956465  0.30125512  1
  F  F479  1  0.78894377  0.75025752  0.80262619  1
