# generated using pymatgen
data_K24Na3Li5Mg64Fe17Si79(O5F)48
_symmetry_space_group_name_H-M   'P 1'
_cell_length_a   16.10806103
_cell_length_b   18.58810577
_cell_length_c   20.56496729
_cell_angle_alpha   89.99447809
_cell_angle_beta   100.00135073
_cell_angle_gamma   90.01881969
_symmetry_Int_Tables_number   1
_chemical_formula_structural   K24Na3Li5Mg64Fe17Si79(O5F)48
_chemical_formula_sum   'K24 Na3 Li5 Mg64 Fe17 Si79 O240 F48'
_cell_volume   6063.95617740
_cell_formula_units_Z   1
loop_
 _symmetry_equiv_pos_site_id
 _symmetry_equiv_pos_as_xyz
  1  'x, y, z'
loop_
 _atom_site_type_symbol
 _atom_site_label
 _atom_site_symmetry_multiplicity
 _atom_site_fract_x
 _atom_site_fract_y
 _atom_site_fract_z
 _atom_site_occupancy
  K  K0  1  0.00280935  0.00203201  -0.00208338  1
  K  K1  1  0.00502611  -0.00660092  0.50768533  1
  K  K2  1  0.00442631  0.49697951  0.00541707  1
  K  K3  1  0.01926384  0.50128204  0.49491435  1
  K  K4  1  0.32878686  -0.00051714  -0.01515708  1
  K  K5  1  0.32369762  -0.00803410  0.50866705  1
  K  K6  1  0.33242699  0.50158711  -0.00429043  1
  K  K7  1  0.31085063  0.50629801  0.50163634  1
  K  K8  1  0.66735491  -0.00576780  -0.00631168  1
  K  K9  1  0.66881258  0.00120366  0.50963406  1
  K  K10  1  0.65857242  0.50049908  -0.00635309  1
  K  K11  1  0.66255314  0.50476933  0.50854682  1
  K  K12  1  0.16676632  0.26027320  0.00272803  1
  K  K13  1  0.16777751  0.26222081  0.50350170  1
  K  K14  1  0.16542529  0.74150897  -0.00283091  1
  K  K15  1  0.18446062  0.74915950  0.50583088  1
  K  K16  1  0.50054611  0.24608024  -0.00583827  1
  K  K17  1  0.49609063  0.25586648  0.50407265  1
  K  K18  1  0.50202474  0.74460464  -0.00991274  1
  K  K19  1  0.49679997  0.74253763  0.51095848  1
  K  K20  1  0.82843971  0.25708328  -0.00418774  1
  K  K21  1  0.83726588  0.25105999  0.50549488  1
  K  K22  1  0.83538411  0.74837634  0.00116891  1
  K  K23  1  0.83345243  0.74530342  0.50290137  1
  Na  Na24  1  0.83722698  0.50155171  0.24982865  1
  Na  Na25  1  0.33188557  0.91883707  0.74765898  1
  Na  Na26  1  0.00030526  0.42191635  0.25168780  1
  Li  Li27  1  0.33059373  0.25222978  0.25030808  1
  Li  Li28  1  0.00006556  0.74864009  0.25046527  1
  Li  Li29  1  0.16493061  0.16730688  0.74354125  1
  Li  Li30  1  0.66238312  0.58385468  0.76024416  1
  Li  Li31  1  0.50629385  0.66040406  0.75704276  1
  Mg  Mg32  1  0.16606553  0.00348373  0.74466905  1
  Mg  Mg33  1  0.66678120  0.25197380  0.24725269  1
  Mg  Mg34  1  0.83436061  0.00188634  0.74996982  1
  Mg  Mg35  1  0.16642243  0.00013337  0.25244683  1
  Mg  Mg36  1  0.16840449  0.50049385  0.74664789  1
  Mg  Mg37  1  0.82890250  0.49951939  0.75395138  1
  Mg  Mg38  1  0.00238897  0.24850985  0.74697420  1
  Mg  Mg39  1  0.33665351  0.74993341  0.74992080  1
  Mg  Mg40  1  0.16609661  0.50006406  0.25010787  1
  Mg  Mg41  1  0.83351075  -0.00037203  0.24584980  1
  Mg  Mg42  1  0.66667338  0.74735378  0.24780757  1
  Mg  Mg43  1  0.50007370  -0.00242487  0.75176443  1
  Mg  Mg44  1  0.33141085  0.75148086  0.25478074  1
  Mg  Mg45  1  0.49873593  0.49875781  0.25187046  1
  Mg  Mg46  1  0.50261615  0.50307411  0.75651346  1
  Mg  Mg47  1  0.66644350  0.25002872  0.75379973  1
  Mg  Mg48  1  0.33090070  0.25006258  0.74599030  1
  Mg  Mg49  1  -0.00251432  0.74807376  0.74739020  1
  Mg  Mg50  1  0.00001847  0.25352292  0.24881106  1
  Mg  Mg51  1  0.50092595  0.00176497  0.25098610  1
  Mg  Mg52  1  0.66401226  0.74669431  0.75393994  1
  Mg  Mg53  1  0.49592555  0.33190331  0.24957655  1
  Mg  Mg54  1  0.83359486  0.16535372  0.24645197  1
  Mg  Mg55  1  -0.00029950  0.08539649  0.74601308  1
  Mg  Mg56  1  0.49851514  0.16858147  0.24961511  1
  Mg  Mg57  1  0.33174670  0.58501056  0.25233754  1
  Mg  Mg58  1  0.33356459  0.91649419  0.25350006  1
  Mg  Mg59  1  0.16837312  0.33442945  0.24717763  1
  Mg  Mg60  1  0.66984122  0.08367855  0.75217721  1
  Mg  Mg61  1  0.16858762  0.16837062  0.24880433  1
  Mg  Mg62  1  -0.00025043  0.91607618  0.74522605  1
  Mg  Mg63  1  -0.00048502  0.41556416  0.74691651  1
  Mg  Mg64  1  0.66667335  0.41792373  0.24974700  1
  Mg  Mg65  1  0.16599853  0.83442883  0.74478895  1
  Mg  Mg66  1  0.33413917  0.08608481  0.25069058  1
  Mg  Mg67  1  0.33495232  0.58544965  0.74961724  1
  Mg  Mg68  1  0.32951683  0.08416878  0.74640564  1
  Mg  Mg69  1  0.33026144  0.41310329  0.25054593  1
  Mg  Mg70  1  0.83288313  0.66611063  0.24580325  1
  Mg  Mg71  1  -0.00227824  0.08456505  0.24686615  1
  Mg  Mg72  1  0.00126831  0.58779047  0.25171721  1
  Mg  Mg73  1  0.50247312  0.33460388  0.75443209  1
  Mg  Mg74  1  0.49878884  0.66520646  0.25271526  1
  Mg  Mg75  1  0.66938181  0.91406086  0.75517145  1
  Mg  Mg76  1  0.50097332  0.16489045  0.75273655  1
  Mg  Mg77  1  0.16694783  0.83346784  0.25404850  1
  Mg  Mg78  1  0.83416159  0.83334494  0.75248211  1
  Mg  Mg79  1  0.66612307  0.91528358  0.24870502  1
  Mg  Mg80  1  0.16745261  0.66872019  0.25328292  1
  Mg  Mg81  1  0.83395955  0.33522970  0.25063333  1
  Mg  Mg82  1  0.50326205  0.82943079  0.75421497  1
  Mg  Mg83  1  0.66864719  0.41747056  0.75594253  1
  Mg  Mg84  1  0.33317121  0.41688515  0.74992830  1
  Mg  Mg85  1  0.83370354  0.33430927  0.75295704  1
  Mg  Mg86  1  0.49950470  0.83489262  0.25234494  1
  Mg  Mg87  1  0.66725894  0.08563928  0.24651411  1
  Mg  Mg88  1  0.83289883  0.83156585  0.24682208  1
  Mg  Mg89  1  0.16663188  0.66516373  0.74851981  1
  Mg  Mg90  1  0.83476930  0.16502217  0.74885516  1
  Mg  Mg91  1  -0.00109450  0.91399623  0.24972689  1
  Mg  Mg92  1  -0.00197280  0.58374575  0.74862732  1
  Mg  Mg93  1  0.66637850  0.58383091  0.24783225  1
  Mg  Mg94  1  0.83142108  0.66384477  0.75505569  1
  Mg  Mg95  1  0.16605944  0.33249694  0.74345851  1
  Fe  Fe96  1  0.31309356  0.84058816  0.39434391  1
  Fe  Fe97  1  0.19207887  0.41314945  0.60796658  1
  Fe  Fe98  1  0.64739420  0.83703584  0.89528692  1
  Fe  Fe99  1  0.64769080  0.66275322  0.89438314  1
  Fe  Fe100  1  0.19014889  0.59032828  0.60795684  1
  Fe  Fe101  1  0.81721199  0.08637336  0.88979847  1
  Fe  Fe102  1  0.31343476  0.66648168  0.39354459  1
  Fe  Fe103  1  0.46951734  0.58254952  0.89328195  1
  Fe  Fe104  1  0.97533809  0.66648526  0.88904460  1
  Fe  Fe105  1  0.69074196  0.66057885  0.10769477  1
  Fe  Fe106  1  0.19229156  0.41877019  0.10661618  1
  Fe  Fe107  1  0.18711541  0.91683613  0.60507284  1
  Fe  Fe108  1  0.81617073  0.41602360  0.89494567  1
  Fe  Fe109  1  0.85569585  0.08266120  0.10648518  1
  Fe  Fe110  1  0.14213746  0.41402338  0.38994395  1
  Fe  Fe111  1  0.85558075  0.08313507  0.60649556  1
  Fe  Fe112  1  0.64017703  0.33050886  0.89385935  1
  Si  Si113  1  0.96721313  0.66940423  0.38341968  1
  Si  Si114  1  0.13925147  0.92072520  0.88202912  1
  Si  Si115  1  0.36867813  0.83303565  0.61455337  1
  Si  Si116  1  0.03027486  0.66942477  0.11730983  1
  Si  Si117  1  0.52886245  0.58148546  0.62050711  1
  Si  Si118  1  0.01615098  0.66717817  0.61012457  1
  Si  Si119  1  0.85519751  0.41587092  0.61383890  1
  Si  Si120  1  0.85406693  0.58057965  0.61461050  1
  Si  Si121  1  0.80372359  0.91489536  0.38354322  1
  Si  Si122  1  0.68677356  0.83161234  0.11353064  1
  Si  Si123  1  0.68626550  0.17191114  0.61164238  1
  Si  Si124  1  0.36191194  0.32969789  0.11273070  1
  Si  Si125  1  0.52754104  0.08147672  0.61621600  1
  Si  Si126  1  0.80473016  0.58582849  0.38564625  1
  Si  Si127  1  0.19663174  0.08229317  0.11483247  1
  Si  Si128  1  0.48157636  0.92485791  0.38882381  1
  Si  Si129  1  0.02393350  0.16671776  0.60936969  1
  Si  Si130  1  0.46669468  0.41073241  0.89069124  1
  Si  Si131  1  0.02284429  0.32772053  0.11010582  1
  Si  Si132  1  0.68850096  0.17425176  0.11082645  1
  Si  Si133  1  0.96546466  0.32901048  0.38874761  1
  Si  Si134  1  0.69314164  0.82761457  0.61701814  1
  Si  Si135  1  0.52825871  0.41953278  0.61776633  1
  Si  Si136  1  0.47795292  0.57567176  0.38965429  1
  Si  Si137  1  0.98260492  0.33192965  0.88440582  1
  Si  Si138  1  0.98393836  0.17183603  0.88523821  1
  Si  Si139  1  0.13450706  0.91978118  0.38828574  1
  Si  Si140  1  0.48094040  0.08756877  0.38525792  1
  Si  Si141  1  0.47124020  0.91560552  0.88867388  1
  Si  Si142  1  0.19160126  0.09032443  0.60877056  1
  Si  Si143  1  0.01728925  0.83084970  0.60984379  1
  Si  Si144  1  0.13630790  0.58951037  0.38824591  1
  Si  Si145  1  0.82018704  0.91867089  0.88825036  1
  Si  Si146  1  0.69021138  0.33551323  0.61598216  1
  Si  Si147  1  0.64364938  0.33300136  0.38507383  1
  Si  Si148  1  0.52653722  0.92089781  0.11522205  1
  Si  Si149  1  0.36232211  0.67156915  0.11674784  1
  Si  Si150  1  0.03027976  0.16336458  0.11148068  1
  Si  Si151  1  0.51921636  0.57778023  0.11593271  1
  Si  Si152  1  0.36090872  0.16403384  0.11523397  1
  Si  Si153  1  0.02646425  0.83487370  0.11610514  1
  Si  Si154  1  0.30074061  0.33022726  0.88254109  1
  Si  Si155  1  0.36560356  0.66860171  0.61449094  1
  Si  Si156  1  0.69201660  0.66427975  0.61855149  1
  Si  Si157  1  0.13964034  0.08702582  0.38499333  1
  Si  Si158  1  0.96860048  0.83487135  0.38362935  1
  Si  Si159  1  0.14098803  0.08371584  0.87990175  1
  Si  Si160  1  0.19486097  0.59024887  0.11314962  1
  Si  Si161  1  0.63911837  0.83158593  0.38547009  1
  Si  Si162  1  0.85924217  0.41331030  0.11445594  1
  Si  Si163  1  0.46807922  0.08208184  0.88516279  1
  Si  Si164  1  0.19184571  0.91690201  0.11537848  1
  Si  Si165  1  0.30052081  0.83263298  0.88361993  1
  Si  Si166  1  0.98123065  0.83423124  0.88485369  1
  Si  Si167  1  0.80573022  0.07994936  0.38317516  1
  Si  Si168  1  0.97097868  0.16553939  0.38475229  1
  Si  Si169  1  0.81435703  0.58130373  0.89069685  1
  Si  Si170  1  0.13847963  0.57930627  0.88482069  1
  Si  Si171  1  0.36157970  0.83737551  0.11611622  1
  Si  Si172  1  0.64499981  0.16936089  0.38365052  1
  Si  Si173  1  0.47773731  0.41050741  0.38596724  1
  Si  Si174  1  0.85459634  0.91128676  0.11165767  1
  Si  Si175  1  0.68958624  0.34009797  0.11438441  1
  Si  Si176  1  0.29991911  0.66902928  0.88849361  1
  Si  Si177  1  0.01771655  0.33144629  0.60942475  1
  Si  Si178  1  0.36340417  0.16451494  0.61421595  1
  Si  Si179  1  0.52630977  0.08624640  0.11395207  1
  Si  Si180  1  0.14110621  0.41695158  0.88041407  1
  Si  Si181  1  0.85242339  0.91301645  0.61183409  1
  Si  Si182  1  0.63918760  0.66518869  0.38712714  1
  Si  Si183  1  0.36779103  0.33047812  0.61333553  1
  Si  Si184  1  0.52223012  0.41446266  0.11722693  1
  Si  Si185  1  0.31048632  0.16241054  0.38520023  1
  Si  Si186  1  0.64046847  0.15760365  0.89060843  1
  Si  Si187  1  0.80358059  0.41805759  0.38634822  1
  Si  Si188  1  0.30501848  0.16721070  0.88058158  1
  Si  Si189  1  0.86824289  0.58297140  0.11170179  1
  Si  Si190  1  0.53295466  0.91649119  0.61685090  1
  Si  Si191  1  0.31206014  0.32863804  0.38773160  1
  O  O192  1  0.27832511  0.11391320  0.08560824  1
  O  O193  1  0.27298101  0.12890188  0.58161347  1
  O  O194  1  0.27303858  0.63335407  0.08599566  1
  O  O195  1  0.28128875  0.63113571  0.57447775  1
  O  O196  1  0.60234565  0.12556308  0.08425265  1
  O  O197  1  0.59773069  0.12708899  0.58363569  1
  O  O198  1  0.59846035  0.59825462  0.08235121  1
  O  O199  1  0.60773951  0.61708938  0.58829935  1
  O  O200  1  0.95649437  0.10911620  0.07873860  1
  O  O201  1  0.95101066  0.11328360  0.57148656  1
  O  O202  1  0.95074662  0.61857701  0.08408206  1
  O  O203  1  0.93138123  0.61657232  0.58340441  1
  O  O204  1  0.09319662  0.36602260  0.07383585  1
  O  O205  1  0.09286403  0.36037111  0.57468188  1
  O  O206  1  0.10504583  0.87314569  0.08472080  1
  O  O207  1  0.09165006  0.85787370  0.57203699  1
  O  O208  1  0.45005794  0.35537964  0.08713445  1
  O  O209  1  0.44825490  0.36848721  0.58581660  1
  O  O210  1  0.43807455  0.87807472  0.08603984  1
  O  O211  1  0.44661400  0.87463396  0.58503076  1
  O  O212  1  0.76791960  0.37339833  0.08327755  1
  O  O213  1  0.76936800  0.36915187  0.58421536  1
  O  O214  1  0.77309688  0.85779117  0.08737264  1
  O  O215  1  0.77340228  0.85704185  0.58476711  1
  O  O216  1  0.28400861  0.37558919  0.07347402  1
  O  O217  1  0.28247932  0.36699394  0.57640631  1
  O  O218  1  0.27226422  0.87958927  0.08724593  1
  O  O219  1  0.28382338  0.87479841  0.58015305  1
  O  O220  1  0.60754013  0.39179349  0.08830143  1
  O  O221  1  0.60894129  0.38654300  0.58691196  1
  O  O222  1  0.60871111  0.88988895  0.08807190  1
  O  O223  1  0.61056186  0.87760276  0.58662874  1
  O  O224  1  0.93138737  0.36818499  0.08339604  1
  O  O225  1  0.93070511  0.37850249  0.58151744  1
  O  O226  1  0.93863795  0.87772030  0.08566982  1
  O  O227  1  0.93404490  0.88172759  0.58245427  1
  O  O228  1  0.11706228  0.13377964  0.08544847  1
  O  O229  1  0.11272276  0.14642633  0.58321492  1
  O  O230  1  0.11247663  0.64171362  0.08653125  1
  O  O231  1  0.09123306  0.64368805  0.57257525  1
  O  O232  1  0.43942191  0.12923481  0.08348302  1
  O  O233  1  0.43568896  0.11704855  0.58534852  1
  O  O234  1  0.43800835  0.63068013  0.08772632  1
  O  O235  1  0.44647015  0.62912100  0.58862175  1
  O  O236  1  0.76489105  0.14624149  0.07687870  1
  O  O237  1  0.75899764  0.14073655  0.57409789  1
  O  O238  1  0.78533935  0.62592018  0.07530977  1
  O  O239  1  0.76825822  0.62699290  0.58450059  1
  O  O240  1  0.06450091  0.13092735  0.41358358  1
  O  O241  1  0.06294397  0.11586937  0.91302833  1
  O  O242  1  0.05168056  0.62451937  0.41339566  1
  O  O243  1  0.05973264  0.59772562  0.92086998  1
  O  O244  1  0.39734214  0.11508052  0.41406667  1
  O  O245  1  0.38998411  0.12169328  0.91410282  1
  O  O246  1  0.40206820  0.59974718  0.42557215  1
  O  O247  1  0.37731618  0.62318526  0.92777685  1
  O  O248  1  0.72872426  0.12060958  0.41270411  1
  O  O249  1  0.71432108  0.10072693  0.91926997  1
  O  O250  1  0.72726140  0.62320033  0.41853748  1
  O  O251  1  0.72572373  0.58887032  0.91801750  1
  O  O252  1  0.24060248  0.36039858  0.42530228  1
  O  O253  1  0.21658717  0.35974500  0.90943523  1
  O  O254  1  0.21722919  0.87909785  0.42519095  1
  O  O255  1  0.22271048  0.87278983  0.91374855  1
  O  O256  1  0.56105959  0.36031201  0.41480618  1
  O  O257  1  0.53722957  0.35212149  0.92146542  1
  O  O258  1  0.56455669  0.87308926  0.41577245  1
  O  O259  1  0.55213673  0.87537248  0.93017226  1
  O  O260  1  0.88640783  0.36989904  0.41738445  1
  O  O261  1  0.90458545  0.34770294  0.92122915  1
  O  O262  1  0.89049421  0.87285892  0.41474027  1
  O  O263  1  0.89589144  0.85831589  0.91282290  1
  O  O264  1  0.05158980  0.36734053  0.42194752  1
  O  O265  1  0.05860595  0.39091057  0.91084952  1
  O  O266  1  0.05135450  0.88392987  0.41330120  1
  O  O267  1  0.05662132  0.89417059  0.91222699  1
  O  O268  1  0.40180337  0.37272520  0.41692515  1
  O  O269  1  0.37803984  0.38191368  0.91497916  1
  O  O270  1  0.40285431  0.90722967  0.42367684  1
  O  O271  1  0.38487417  0.88116916  0.91193612  1
  O  O272  1  0.72302445  0.38440828  0.41768418  1
  O  O273  1  0.72588630  0.38956540  0.93467741  1
  O  O274  1  0.72783842  0.87400395  0.41364856  1
  O  O275  1  0.73958923  0.90040415  0.92249392  1
  O  O276  1  0.23120849  0.12523304  0.41516581  1
  O  O277  1  0.22631130  0.13035691  0.91013479  1
  O  O278  1  0.21378914  0.64047256  0.42224019  1
  O  O279  1  0.21408972  0.63698478  0.91302124  1
  O  O280  1  0.56183644  0.14072314  0.41305095  1
  O  O281  1  0.55340262  0.12623836  0.91604082  1
  O  O282  1  0.56425371  0.62425301  0.41767236  1
  O  O283  1  0.55939853  0.63625646  0.93468180  1
  O  O284  1  0.89742883  0.11662064  0.41152589  1
  O  O285  1  0.90443083  0.15385179  0.92068271  1
  O  O286  1  0.88957292  0.63226961  0.41621738  1
  O  O287  1  0.87572593  0.64888372  0.92023903  1
  O  O288  1  0.18153800  -0.00035769  0.08500085  1
  O  O289  1  0.17388598  0.01357839  0.57085557  1
  O  O290  1  0.18238061  0.51431699  0.07454377  1
  O  O291  1  0.17400723  0.50124461  0.56798179  1
  O  O292  1  0.51348397  0.00346106  0.08625650  1
  O  O293  1  0.52820555  -0.00066455  0.58613687  1
  O  O294  1  0.48935241  0.49479243  0.09205478  1
  O  O295  1  0.51548651  0.50038971  0.58557104  1
  O  O296  1  0.83049444  -0.01203596  0.07682581  1
  O  O297  1  0.82636814  -0.01106527  0.57539685  1
  O  O298  1  0.86106355  0.49694761  0.08789436  1
  O  O299  1  0.83876715  0.49818283  0.58396716  1
  O  O300  1  0.01170884  0.24414071  0.08039927  1
  O  O301  1  -0.00465095  0.24874639  0.58240692  1
  O  O302  1  0.01480655  0.75257469  0.08746839  1
  O  O303  1  -0.01502994  0.74919774  0.58562381  1
  O  O304  1  0.34650484  0.24521429  0.08564684  1
  O  O305  1  0.36985121  0.24623881  0.58545310  1
  O  O306  1  0.35589867  0.75498196  0.08758441  1
  O  O307  1  0.36777156  0.75110525  0.58421180  1
  O  O308  1  0.66504566  0.25796276  0.08683260  1
  O  O309  1  0.66724981  0.25535629  0.58347392  1
  O  O310  1  0.65565194  0.75543443  0.08214917  1
  O  O311  1  0.67573390  0.74599774  0.58578845  1
  O  O312  1  0.13884425  0.00500268  0.41384939  1
  O  O313  1  0.16040507  0.00243183  0.91207836  1
  O  O314  1  0.14894351  0.50952773  0.42019803  1
  O  O315  1  0.17165194  0.49688377  0.90886469  1
  O  O316  1  0.51281239  0.00779985  0.41273354  1
  O  O317  1  0.47145191  0.00072531  0.91650851  1
  O  O318  1  0.50322668  0.49167716  0.41402706  1
  O  O319  1  0.48555551  0.48763593  0.92685680  1
  O  O320  1  0.80827830  -0.00233304  0.41255648  1
  O  O321  1  0.86116030  -0.00460630  0.91534050  1
  O  O322  1  0.81516564  0.50186782  0.41346238  1
  O  O323  1  0.86089984  0.50687831  0.92055108  1
  O  O324  1  0.33017343  0.24361167  0.41481139  1
  O  O325  1  0.31715037  0.24833673  0.91333597  1
  O  O326  1  0.35077636  0.75418994  0.43081131  1
  O  O327  1  0.30921295  0.75285030  0.91871485  1
  O  O328  1  0.66553525  0.25065171  0.41341978  1
  O  O329  1  0.66088868  0.23486737  0.92561300  1
  O  O330  1  0.64753274  0.74909771  0.41524208  1
  O  O331  1  0.68065358  0.74999130  0.93390565  1
  O  O332  1  0.96454309  0.24475281  0.41794891  1
  O  O333  1  1.02300524  0.25211190  0.90814053  1
  O  O334  1  0.97632717  0.75278982  0.41361621  1
  O  O335  1  1.01573864  0.75906161  0.91833643  1
  O  O336  1  0.21247880  0.08154143  0.19523073  1
  O  O337  1  0.21140343  0.08364777  0.68861101  1
  O  O338  1  0.21327737  0.58555202  0.19370943  1
  O  O339  1  0.21120211  0.58452135  0.70022884  1
  O  O340  1  0.54381048  0.08521482  0.19468656  1
  O  O341  1  0.54593585  0.08353990  0.69632236  1
  O  O342  1  0.53837181  0.58242812  0.19721161  1
  O  O343  1  0.54623148  0.57720908  0.69864851  1
  O  O344  1  0.87625840  0.08285829  0.19905630  1
  O  O345  1  0.87813917  0.08408432  0.69740790  1
  O  O346  1  0.88317828  0.59117199  0.19122738  1
  O  O347  1  0.87298926  0.58014346  0.69424591  1
  O  O348  1  0.04643171  0.32434155  0.18989546  1
  O  O349  1  0.03866505  0.33361952  0.69018748  1
  O  O350  1  0.04780328  0.83973981  0.19553842  1
  O  O351  1  0.03925028  0.83271623  0.69077538  1
  O  O352  1  0.37826160  0.33392411  0.19296767  1
  O  O353  1  0.38119791  0.33207808  0.69407030  1
  O  O354  1  0.38009928  0.83816478  0.19637659  1
  O  O355  1  0.38534831  0.82929352  0.69403193  1
  O  O356  1  0.70785565  0.33508648  0.19501591  1
  O  O357  1  0.71078543  0.33132089  0.69534189  1
  O  O358  1  0.70550390  0.83433718  0.19490627  1
  O  O359  1  0.71271334  0.83244999  0.69656353  1
  O  O360  1  0.21455450  0.41683444  0.19759565  1
  O  O361  1  0.21278068  0.41621968  0.69955754  1
  O  O362  1  0.21008212  0.91963577  0.19549501  1
  O  O363  1  0.19722920  0.91877948  0.69455275  1
  O  O364  1  0.54166730  0.41384636  0.19799075  1
  O  O365  1  0.54335148  0.41685197  0.69742854  1
  O  O366  1  0.54216863  0.91910519  0.19603162  1
  O  O367  1  0.54757536  0.91876962  0.69646507  1
  O  O368  1  0.87120464  0.40757677  0.19269219  1
  O  O369  1  0.87627120  0.41495074  0.69355009  1
  O  O370  1  0.87451421  0.91562787  0.19293856  1
  O  O371  1  0.87371734  0.91573357  0.69260004  1
  O  O372  1  0.04540229  0.16407329  0.19277247  1
  O  O373  1  0.03648850  0.16613748  0.68934789  1
  O  O374  1  0.04797104  0.66958488  0.19681869  1
  O  O375  1  0.04043453  0.66483404  0.69071073  1
  O  O376  1  0.38074364  0.16117326  0.19476730  1
  O  O377  1  0.37913701  0.16586384  0.69431809  1
  O  O378  1  0.37984519  0.67047665  0.19712583  1
  O  O379  1  0.37193734  0.66778139  0.69379693  1
  O  O380  1  0.70725712  0.16841846  0.19214309  1
  O  O381  1  0.70616680  0.16897764  0.69211977  1
  O  O382  1  0.70914712  0.66620933  0.19995770  1
  O  O383  1  0.71495732  0.66891143  0.69709573  1
  O  O384  1  0.12321021  0.08576751  0.30432008  1
  O  O385  1  0.12010717  0.08202932  0.80061821  1
  O  O386  1  0.12528335  0.58825927  0.30718915  1
  O  O387  1  0.11970528  0.58209067  0.80398808  1
  O  O388  1  0.46033920  0.08570395  0.30478387  1
  O  O389  1  0.45421007  0.08274474  0.80500087  1
  O  O390  1  0.45890555  0.58146455  0.30864345  1
  O  O391  1  0.45092120  0.58107969  0.80292647  1
  O  O392  1  0.78642027  0.08225518  0.30294120  1
  O  O393  1  0.78939329  0.08525165  0.79813561  1
  O  O394  1  0.78266353  0.59027829  0.30687982  1
  O  O395  1  0.79863670  0.58154760  0.80936572  1
  O  O396  1  0.29371438  0.33147751  0.30780927  1
  O  O397  1  0.28858683  0.32993949  0.80261590  1
  O  O398  1  0.29010949  0.83715714  0.30131570  1
  O  O399  1  0.28178462  0.82716440  0.80477296  1
  O  O400  1  0.62381669  0.33231754  0.30484283  1
  O  O401  1  0.62260707  0.33111741  0.80115858  1
  O  O402  1  0.62181605  0.83360470  0.30499719  1
  O  O403  1  0.62509561  0.83397681  0.80318862  1
  O  O404  1  0.94867695  0.32449536  0.30899750  1
  O  O405  1  0.95992517  0.33325726  0.80328367  1
  O  O406  1  0.95034370  0.83809980  0.30404589  1
  O  O407  1  0.96068082  0.83443497  0.80357363  1
  O  O408  1  0.13333639  0.41454270  0.30080262  1
  O  O409  1  0.12144012  0.41580376  0.80028465  1
  O  O410  1  0.12191691  0.91918280  0.30717909  1
  O  O411  1  0.12094011  0.91811108  0.80221650  1
  O  O412  1  0.45763615  0.41299225  0.30565232  1
  O  O413  1  0.45296642  0.41322079  0.80901098  1
  O  O414  1  0.46137668  0.92045899  0.30748139  1
  O  O415  1  0.46651227  0.91730670  0.80954489  1
  O  O416  1  0.78269692  0.41032230  0.30739297  1
  O  O417  1  0.79106764  0.41383461  0.80238354  1
  O  O418  1  0.78680324  0.91683409  0.30314667  1
  O  O419  1  0.79553669  0.91712542  0.80635159  1
  O  O420  1  0.28939740  0.16099046  0.30559835  1
  O  O421  1  0.29285838  0.16829115  0.80141260  1
  O  O422  1  0.29133127  0.66777336  0.30069325  1
  O  O423  1  0.28805078  0.66879293  0.80806733  1
  O  O424  1  0.62521061  0.16715053  0.30329793  1
  O  O425  1  0.62231447  0.16299793  0.80858342  1
  O  O426  1  0.62007770  0.66664795  0.30695671  1
  O  O427  1  0.62476962  0.66823769  0.80571987  1
  O  O428  1  0.95595147  0.16590826  0.30442752  1
  O  O429  1  0.96096135  0.16795277  0.80445169  1
  O  O430  1  0.94881483  0.67010904  0.30405462  1
  O  O431  1  0.95575672  0.66627929  0.79698641  1
  F  F432  1  0.04659185  -0.00005336  0.20320287  1
  F  F433  1  0.04227777  0.00073425  0.69728183  1
  F  F434  1  0.05127177  0.51339816  0.19832893  1
  F  F435  1  0.04368505  0.49982038  0.69880645  1
  F  F436  1  0.37995888  0.00039877  0.20371184  1
  F  F437  1  0.38583585  0.01009073  0.69734391  1
  F  F438  1  0.37968933  0.50026377  0.20520863  1
  F  F439  1  0.37980375  0.49686928  0.70216583  1
  F  F440  1  0.70925981  -0.00007403  0.20020435  1
  F  F441  1  0.71048544  -0.00244362  0.70174057  1
  F  F442  1  0.69796235  0.49945218  0.19930099  1
  F  F443  1  0.71317912  0.49359064  0.70046115  1
  F  F444  1  0.21201646  0.24773892  0.20143835  1
  F  F445  1  0.21571817  0.25463352  0.69380354  1
  F  F446  1  0.21265552  0.75438373  0.20020298  1
  F  F447  1  0.21183615  0.74910912  0.69965505  1
  F  F448  1  0.54559909  0.24931269  0.20080963  1
  F  F449  1  0.54459245  0.24641623  0.70291507  1
  F  F450  1  0.54283884  0.75112779  0.20420213  1
  F  F451  1  0.54961617  0.75570901  0.69853819  1
  F  F452  1  0.87744072  0.24834142  0.20149163  1
  F  F453  1  0.87781763  0.25090431  0.70191782  1
  F  F454  1  0.87056097  0.75217925  0.19830900  1
  F  F455  1  0.87567925  0.75197213  0.70088032  1
  F  F456  1  0.28916046  0.00198282  0.29890228  1
  F  F457  1  0.28213508  0.01208254  0.80063739  1
  F  F458  1  0.29129332  0.50098614  0.29923311  1
  F  F459  1  0.28868637  0.49936826  0.79970994  1
  F  F460  1  0.62288625  0.00179434  0.29695076  1
  F  F461  1  0.62209564  0.00099537  0.79844620  1
  F  F462  1  0.61972404  0.49961316  0.30025538  1
  F  F463  1  0.61932736  0.49280094  0.80448060  1
  F  F464  1  0.95400961  -0.00096723  0.29752804  1
  F  F465  1  0.95763026  -0.00141644  0.79444435  1
  F  F466  1  0.96389097  0.51473157  0.30966573  1
  F  F467  1  0.95558127  0.49774172  0.79384643  1
  F  F468  1  0.12067729  0.24773132  0.29749758  1
  F  F469  1  0.12161505  0.25224134  0.79139438  1
  F  F470  1  0.12536239  0.75318398  0.30047109  1
  F  F471  1  0.11898462  0.75025771  0.79231459  1
  F  F472  1  0.46197997  0.24859425  0.30001232  1
  F  F473  1  0.45247352  0.24801633  0.79734192  1
  F  F474  1  0.45677594  0.75220802  0.30004150  1
  F  F475  1  0.45082605  0.75560462  0.80358072  1
  F  F476  1  0.78513583  0.24667085  0.29619007  1
  F  F477  1  0.78882395  0.24775413  0.79691237  1
  F  F478  1  0.78489310  0.75475911  0.29966929  1
  F  F479  1  0.79018452  0.75136443  0.79915375  1
