# generated using pymatgen
data_K24Na3Li5Mg64Fe17Si79(O5F)48
_symmetry_space_group_name_H-M   'P 1'
_cell_length_a   16.09581734
_cell_length_b   18.60941184
_cell_length_c   20.56909348
_cell_angle_alpha   90.00947371
_cell_angle_beta   100.01940478
_cell_angle_gamma   89.98067845
_symmetry_Int_Tables_number   1
_chemical_formula_structural   K24Na3Li5Mg64Fe17Si79(O5F)48
_chemical_formula_sum   'K24 Na3 Li5 Mg64 Fe17 Si79 O240 F48'
_cell_volume   6067.17196828
_cell_formula_units_Z   1
loop_
 _symmetry_equiv_pos_site_id
 _symmetry_equiv_pos_as_xyz
  1  'x, y, z'
loop_
 _atom_site_type_symbol
 _atom_site_label
 _atom_site_symmetry_multiplicity
 _atom_site_fract_x
 _atom_site_fract_y
 _atom_site_fract_z
 _atom_site_occupancy
  K  K0  1  -0.00261017  0.00185195  0.00112617  1
  K  K1  1  -0.00132254  -0.01148767  0.49219339  1
  K  K2  1  0.00544475  0.50947894  0.00219122  1
  K  K3  1  0.00294872  0.51030264  0.49440280  1
  K  K4  1  0.34346922  -0.01463092  0.00508044  1
  K  K5  1  0.33954532  -0.01241458  0.49757443  1
  K  K6  1  0.32429616  0.50512995  -0.00300427  1
  K  K7  1  0.33386886  0.50174801  0.49550800  1
  K  K8  1  0.66909032  -0.00249666  0.00202390  1
  K  K9  1  0.65897868  -0.00741198  0.48278374  1
  K  K10  1  0.67153069  0.50895988  -0.00251032  1
  K  K11  1  0.66130503  0.50361136  0.50343315  1
  K  K12  1  0.16988595  0.25288744  0.00406402  1
  K  K13  1  0.17412229  0.25089169  0.49743180  1
  K  K14  1  0.16302032  0.74640491  0.00358203  1
  K  K15  1  0.17854735  0.75228212  0.48969313  1
  K  K16  1  0.50595021  0.24827040  -0.00694272  1
  K  K17  1  0.50081562  0.25265555  0.50110996  1
  K  K18  1  0.50435027  0.75798387  -0.00374510  1
  K  K19  1  0.49916656  0.75813076  0.49383805  1
  K  K20  1  0.81925538  0.26079178  -0.00211553  1
  K  K21  1  0.82523607  0.24370038  0.49761032  1
  K  K22  1  0.83314786  0.73897355  0.00877194  1
  K  K23  1  0.82433323  0.75837098  0.48888342  1
  Na  Na24  1  0.50719245  -0.00166749  0.25518351  1
  Na  Na25  1  0.50502501  0.33031430  0.75893333  1
  Na  Na26  1  0.83382071  0.66986131  0.23865763  1
  Li  Li27  1  0.16563892  0.50873871  0.24813462  1
  Li  Li28  1  0.66259293  0.25449531  0.75217845  1
  Li  Li29  1  0.66449679  0.91052961  0.24645402  1
  Li  Li30  1  0.16333843  0.66224259  0.24406161  1
  Li  Li31  1  0.66592713  0.58257384  0.75447325  1
  Mg  Mg32  1  0.66800942  0.75418853  0.24374582  1
  Mg  Mg33  1  0.49914153  0.50028786  0.25446732  1
  Mg  Mg34  1  0.16320828  0.49932165  0.75375101  1
  Mg  Mg35  1  0.82786924  0.50068324  0.75163164  1
  Mg  Mg36  1  0.16704135  -0.00221558  0.25167680  1
  Mg  Mg37  1  -0.00133324  0.74951302  0.74886793  1
  Mg  Mg38  1  0.00039727  0.25154110  0.25120106  1
  Mg  Mg39  1  0.83267592  0.00042424  0.74499048  1
  Mg  Mg40  1  0.33213390  0.25091154  0.25668453  1
  Mg  Mg41  1  0.82899986  -0.00101004  0.24710596  1
  Mg  Mg42  1  0.50304139  0.49746426  0.75461771  1
  Mg  Mg43  1  0.33050772  0.74798752  0.25093613  1
  Mg  Mg44  1  0.16832896  -0.00197956  0.74963987  1
  Mg  Mg45  1  0.66458671  0.24975709  0.25428617  1
  Mg  Mg46  1  -0.00192975  0.25036573  0.75087662  1
  Mg  Mg47  1  0.33411773  0.25085637  0.75451239  1
  Mg  Mg48  1  0.50110710  -0.00055363  0.74640009  1
  Mg  Mg49  1  0.33455420  0.74983188  0.74896592  1
  Mg  Mg50  1  0.83617332  0.50174944  0.24722096  1
  Mg  Mg51  1  0.00270031  0.74939215  0.24499891  1
  Mg  Mg52  1  0.66598652  0.74774065  0.74479007  1
  Mg  Mg53  1  0.83040577  0.83379270  0.74365298  1
  Mg  Mg54  1  0.16781121  0.33379537  0.75463390  1
  Mg  Mg55  1  0.50329815  0.66314674  0.74783406  1
  Mg  Mg56  1  0.83235242  0.33496853  0.25003601  1
  Mg  Mg57  1  0.49881716  0.33517104  0.25656684  1
  Mg  Mg58  1  -0.00289007  0.08393609  0.24758436  1
  Mg  Mg59  1  0.50130421  0.16588689  0.25391074  1
  Mg  Mg60  1  0.00029108  0.08359062  0.74811727  1
  Mg  Mg61  1  0.16736702  0.66410817  0.75284365  1
  Mg  Mg62  1  0.16747557  0.16596912  0.25375818  1
  Mg  Mg63  1  0.50166240  0.66603035  0.25293435  1
  Mg  Mg64  1  0.16846920  0.16558124  0.75232867  1
  Mg  Mg65  1  0.83092560  0.16666039  0.24951250  1
  Mg  Mg66  1  0.66441034  0.08291336  0.25210402  1
  Mg  Mg67  1  0.16811166  0.33757524  0.25564437  1
  Mg  Mg68  1  0.66680121  0.08764959  0.74895509  1
  Mg  Mg69  1  0.16936367  0.83266104  0.74877082  1
  Mg  Mg70  1  0.16699751  0.82994514  0.24723757  1
  Mg  Mg71  1  0.00505345  0.58541526  0.24568481  1
  Mg  Mg72  1  0.00027395  0.91537135  0.74691982  1
  Mg  Mg73  1  -0.00292586  0.41514690  0.75352106  1
  Mg  Mg74  1  0.33563360  0.91287770  0.74863755  1
  Mg  Mg75  1  0.83031116  0.83626010  0.24441338  1
  Mg  Mg76  1  0.83144671  0.16764850  0.74853218  1
  Mg  Mg77  1  0.33677594  0.91373109  0.25116528  1
  Mg  Mg78  1  0.82841070  0.66490853  0.74820839  1
  Mg  Mg79  1  0.32930523  0.41750395  0.25708353  1
  Mg  Mg80  1  0.82744814  0.33357054  0.75457451  1
  Mg  Mg81  1  0.66874088  0.58517763  0.24892185  1
  Mg  Mg82  1  0.33547659  0.08237373  0.25472183  1
  Mg  Mg83  1  0.33606747  0.08392227  0.75142184  1
  Mg  Mg84  1  -0.00332964  0.91509994  0.24495019  1
  Mg  Mg85  1  0.66633905  0.41703413  0.25322130  1
  Mg  Mg86  1  -0.00123816  0.58394256  0.75092923  1
  Mg  Mg87  1  0.33504172  0.58246925  0.75276538  1
  Mg  Mg88  1  0.66605792  0.91538445  0.74309474  1
  Mg  Mg89  1  0.66857944  0.41729598  0.75203195  1
  Mg  Mg90  1  0.50059283  0.83296772  0.74586518  1
  Mg  Mg91  1  0.50229549  0.83400230  0.24984675  1
  Mg  Mg92  1  0.50492796  0.16901527  0.75215001  1
  Mg  Mg93  1  0.32854062  0.58329864  0.25284029  1
  Mg  Mg94  1  0.33502763  0.41439158  0.75638681  1
  Mg  Mg95  1  0.00242206  0.41897551  0.25118122  1
  Fe  Fe96  1  0.36184557  0.83113660  0.60727207  1
  Fe  Fe97  1  0.69063402  0.83074001  0.10049438  1
  Fe  Fe98  1  0.85816316  0.92202331  0.10504367  1
  Fe  Fe99  1  0.30969095  0.83216413  0.88929786  1
  Fe  Fe100  1  0.52540605  0.91846924  0.10691894  1
  Fe  Fe101  1  0.69228877  0.83220685  0.60441287  1
  Fe  Fe102  1  0.30572599  0.83163763  0.38869232  1
  Fe  Fe103  1  0.64218683  0.66825888  0.88611042  1
  Fe  Fe104  1  0.13757751  0.58353722  0.89076062  1
  Fe  Fe105  1  0.30799213  0.33064066  0.89451884  1
  Fe  Fe106  1  0.30673625  0.33237847  0.39681290  1
  Fe  Fe107  1  0.81141345  0.42117275  0.89389444  1
  Fe  Fe108  1  0.64316040  0.33641701  0.89501575  1
  Fe  Fe109  1  0.64248430  0.16604807  0.39383526  1
  Fe  Fe110  1  0.02972297  0.67098443  0.10538074  1
  Fe  Fe111  1  0.64611273  0.83272891  0.38743517  1
  Fe  Fe112  1  0.85994757  0.57812802  0.10548264  1
  Si  Si113  1  0.64492551  0.83719042  0.88146942  1
  Si  Si114  1  0.02971677  0.33180102  0.11720007  1
  Si  Si115  1  0.97094477  0.32799205  0.88693857  1
  Si  Si116  1  0.97425167  0.16962684  0.38512979  1
  Si  Si117  1  0.68825391  0.66145230  0.60957958  1
  Si  Si118  1  0.47382272  0.91538937  0.38948104  1
  Si  Si119  1  0.80673628  0.92013187  0.87961116  1
  Si  Si120  1  0.19988272  0.91808484  0.11577416  1
  Si  Si121  1  0.35685767  0.33468997  0.11988039  1
  Si  Si122  1  0.13331771  0.41693279  0.39160386  1
  Si  Si123  1  0.47803220  0.41836431  0.39234262  1
  Si  Si124  1  0.36045771  0.82800465  0.11361730  1
  Si  Si125  1  0.64508277  0.16369636  0.88792720  1
  Si  Si126  1  0.19281704  0.41835319  0.11879615  1
  Si  Si127  1  0.52320095  0.09009505  0.61424934  1
  Si  Si128  1  0.18902928  0.41584708  0.61655132  1
  Si  Si129  1  0.85792722  0.58194373  0.61302117  1
  Si  Si130  1  0.69307824  0.16736639  0.61432902  1
  Si  Si131  1  0.19534872  0.08312787  0.11766220  1
  Si  Si132  1  0.13390198  0.91677562  0.38540941  1
  Si  Si133  1  0.85868038  0.08431021  0.61174489  1
  Si  Si134  1  0.97025914  0.33403525  0.38657449  1
  Si  Si135  1  0.35532693  0.33449778  0.61777555  1
  Si  Si136  1  0.52226436  0.57944078  0.11721979  1
  Si  Si137  1  0.68683682  0.33443931  0.11885099  1
  Si  Si138  1  0.02387837  0.33350776  0.61576276  1
  Si  Si139  1  0.14247367  0.08023859  0.88488826  1
  Si  Si140  1  0.68758436  0.17158038  0.11607277  1
  Si  Si141  1  0.47980115  0.08032496  0.88344355  1
  Si  Si142  1  0.13917779  0.58182035  0.38464169  1
  Si  Si143  1  0.69277237  0.33332773  0.61477586  1
  Si  Si144  1  0.35772727  0.17132067  0.11883017  1
  Si  Si145  1  0.86542902  0.91777367  0.60876954  1
  Si  Si146  1  0.31115907  0.66450296  0.88753095  1
  Si  Si147  1  0.47377899  0.58378006  0.88720051  1
  Si  Si148  1  0.64577567  0.33856897  0.39102590  1
  Si  Si149  1  0.47828432  0.58341501  0.38799497  1
  Si  Si150  1  0.85468070  0.09396506  0.11082583  1
  Si  Si151  1  0.52913617  0.92487131  0.60793716  1
  Si  Si152  1  0.03053593  0.83306218  0.61280498  1
  Si  Si153  1  0.13529025  0.08240760  0.38564754  1
  Si  Si154  1  0.13519849  0.41088238  0.89054089  1
  Si  Si155  1  0.19007379  0.08543368  0.61464929  1
  Si  Si156  1  0.80930930  0.41904481  0.38562442  1
  Si  Si157  1  0.97195501  0.83090759  0.38208606  1
  Si  Si158  1  0.19228349  0.92008459  0.61113429  1
  Si  Si159  1  0.97751052  0.16450819  0.88373691  1
  Si  Si160  1  0.68035431  0.66187599  0.10970026  1
  Si  Si161  1  0.96857260  0.83685975  0.88051124  1
  Si  Si162  1  0.52515947  0.41330037  0.61632168  1
  Si  Si163  1  0.47059759  0.08409003  0.38965883  1
  Si  Si164  1  0.52133271  0.41611992  0.11927491  1
  Si  Si165  1  0.36110965  0.66363696  0.11762401  1
  Si  Si166  1  0.03101965  0.84278236  0.10802621  1
  Si  Si167  1  0.35591416  0.16955856  0.61602865  1
  Si  Si168  1  0.85779701  0.40789680  0.11360174  1
  Si  Si169  1  0.47935269  0.91823295  0.88318157  1
  Si  Si170  1  0.02894573  0.16708855  0.11583230  1
  Si  Si171  1  0.81376136  0.08237067  0.38692295  1
  Si  Si172  1  0.30537568  0.15968673  0.39176384  1
  Si  Si173  1  0.18899979  0.58040246  0.61521601  1
  Si  Si174  1  0.19960530  0.58198343  0.11466049  1
  Si  Si175  1  0.52239472  0.57584963  0.61418591  1
  Si  Si176  1  0.81104120  0.08306661  0.88309614  1
  Si  Si177  1  0.02368560  0.66692807  0.61325042  1
  Si  Si178  1  0.85804795  0.41578955  0.61463256  1
  Si  Si179  1  0.02471254  0.16853122  0.61448294  1
  Si  Si180  1  0.52202951  0.09076398  0.11349249  1
  Si  Si181  1  0.46978846  0.42187398  0.89276879  1
  Si  Si182  1  0.81332773  0.91916657  0.38395094  1
  Si  Si183  1  0.64743835  0.66164152  0.38762765  1
  Si  Si184  1  0.81236390  0.58069934  0.38354515  1
  Si  Si185  1  0.35636620  0.65873378  0.61155463  1
  Si  Si186  1  0.13555257  0.91505216  0.88521896  1
  Si  Si187  1  0.97794614  0.66731058  0.38332403  1
  Si  Si188  1  0.81252798  0.58657724  0.88499851  1
  Si  Si189  1  0.31276116  0.15906344  0.88897688  1
  Si  Si190  1  0.30947817  0.66061702  0.38837095  1
  Si  Si191  1  0.96793620  0.67295533  0.88375158  1
  O  O192  1  0.27152504  0.12501946  0.08873259  1
  O  O193  1  0.26923677  0.12302122  0.58579742  1
  O  O194  1  0.28710874  0.60668747  0.08727534  1
  O  O195  1  0.26905728  0.61069793  0.58419564  1
  O  O196  1  0.60500996  0.12388657  0.08380214  1
  O  O197  1  0.60205030  0.12830842  0.58519260  1
  O  O198  1  0.60359605  0.60129645  0.08511822  1
  O  O199  1  0.60294448  0.61092023  0.58536673  1
  O  O200  1  0.93727357  0.13260504  0.08454497  1
  O  O201  1  0.93651307  0.12647797  0.58400460  1
  O  O202  1  0.94048766  0.61689241  0.06229126  1
  O  O203  1  0.93561104  0.62325755  0.58333632  1
  O  O204  1  0.10507223  0.37400079  0.08814431  1
  O  O205  1  0.10277722  0.36978682  0.58599356  1
  O  O206  1  0.11763931  0.87301763  0.08183675  1
  O  O207  1  0.10909744  0.86888638  0.58311773  1
  O  O208  1  0.43964049  0.36469711  0.09091158  1
  O  O209  1  0.43608198  0.36866282  0.58875867  1
  O  O210  1  0.43256892  0.85543730  0.07455486  1
  O  O211  1  0.45175071  0.87382799  0.57485813  1
  O  O212  1  0.77233643  0.35704968  0.09162413  1
  O  O213  1  0.76845168  0.37540150  0.58269539  1
  O  O214  1  0.78213284  0.85765922  0.06104691  1
  O  O215  1  0.78889182  0.86890283  0.57401318  1
  O  O216  1  0.27216707  0.38077081  0.08895964  1
  O  O217  1  0.26853030  0.38042246  0.58656267  1
  O  O218  1  0.27833278  0.88134111  0.08723369  1
  O  O219  1  0.26855787  0.89263641  0.57719020  1
  O  O220  1  0.60511207  0.38635590  0.09127577  1
  O  O221  1  0.60101335  0.37171065  0.58459658  1
  O  O222  1  0.60748594  0.89349726  0.05996699  1
  O  O223  1  0.61328983  0.90533017  0.57843117  1
  O  O224  1  0.93618542  0.36356181  0.08775667  1
  O  O225  1  0.93549883  0.37497850  0.58480226  1
  O  O226  1  0.96202698  0.90327792  0.07872732  1
  O  O227  1  0.95064913  0.88520393  0.58351761  1
  O  O228  1  0.10437993  0.12282108  0.08740496  1
  O  O229  1  0.10451337  0.13291290  0.58549909  1
  O  O230  1  0.12570220  0.63178664  0.07566024  1
  O  O231  1  0.10184707  0.62618161  0.58507238  1
  O  O232  1  0.43954970  0.14561038  0.08762921  1
  O  O233  1  0.43655982  0.13693632  0.58636819  1
  O  O234  1  0.44459258  0.63444135  0.08882604  1
  O  O235  1  0.43315162  0.61691582  0.58208231  1
  O  O236  1  0.77264838  0.14833797  0.08661505  1
  O  O237  1  0.77009373  0.12670847  0.58305550  1
  O  O238  1  0.76057954  0.63202662  0.08001026  1
  O  O239  1  0.76736365  0.61855709  0.58121974  1
  O  O240  1  0.06098512  0.12600731  0.41544564  1
  O  O241  1  0.06069220  0.11441782  0.91285688  1
  O  O242  1  0.06589228  0.62557469  0.41840303  1
  O  O243  1  0.04178527  0.62083073  0.91962801  1
  O  O244  1  0.38336571  0.10474294  0.41895567  1
  O  O245  1  0.39394865  0.10416540  0.91207779  1
  O  O246  1  0.39796260  0.61507617  0.41836855  1
  O  O247  1  0.38243962  0.60126828  0.91060434  1
  O  O248  1  0.74009625  0.11068983  0.42500128  1
  O  O249  1  0.72894245  0.11003701  0.91345325  1
  O  O250  1  0.73113848  0.60921993  0.41541768  1
  O  O251  1  0.72930267  0.60306786  0.91711664  1
  O  O252  1  0.21449548  0.37297695  0.43016704  1
  O  O253  1  0.20464915  0.35095022  0.92103365  1
  O  O254  1  0.21711907  0.87690697  0.42258066  1
  O  O255  1  0.21043102  0.86392998  0.92043367  1
  O  O256  1  0.56661889  0.37503975  0.42022121  1
  O  O257  1  0.54071592  0.36312550  0.92284905  1
  O  O258  1  0.55641785  0.87055542  0.42405944  1
  O  O259  1  0.56056592  0.86629494  0.90895484  1
  O  O260  1  0.88684164  0.36350572  0.41507381  1
  O  O261  1  0.89096462  0.34562401  0.92039748  1
  O  O262  1  0.89569308  0.86723366  0.41432544  1
  O  O263  1  0.88515370  0.86597642  0.90847749  1
  O  O264  1  0.04932994  0.38419989  0.42024259  1
  O  O265  1  0.04719415  0.38404566  0.91497094  1
  O  O266  1  0.05473497  0.87910411  0.41418844  1
  O  O267  1  0.04568624  0.89256699  0.90864642  1
  O  O268  1  0.40563178  0.38541422  0.42904769  1
  O  O269  1  0.38549096  0.40326733  0.92485622  1
  O  O270  1  0.39596182  0.88992952  0.42521470  1
  O  O271  1  0.39919831  0.89673945  0.91655084  1
  O  O272  1  0.72629969  0.39386513  0.41590181  1
  O  O273  1  0.72659807  0.39602685  0.93958202  1
  O  O274  1  0.73886798  0.89238394  0.42113753  1
  O  O275  1  0.72007637  0.89838909  0.90506060  1
  O  O276  1  0.22280730  0.12301380  0.41769915  1
  O  O277  1  0.22870818  0.12409059  0.91532942  1
  O  O278  1  0.23209463  0.61671957  0.41603789  1
  O  O279  1  0.22904013  0.64439476  0.92014355  1
  O  O280  1  0.54607044  0.13529676  0.42701034  1
  O  O281  1  0.56087195  0.13009480  0.91496450  1
  O  O282  1  0.56589606  0.62666736  0.41735042  1
  O  O283  1  0.54358455  0.64159593  0.91943475  1
  O  O284  1  0.89756588  0.13385009  0.41620250  1
  O  O285  1  0.89574903  0.13192288  0.91253816  1
  O  O286  1  0.89801039  0.62831718  0.41211337  1
  O  O287  1  0.87839211  0.65541923  0.90710027  1
  O  O288  1  0.19025107  0.00186977  0.08675094  1
  O  O289  1  0.16974031  0.00428176  0.58499016  1
  O  O290  1  0.18252423  0.49809219  0.08611051  1
  O  O291  1  0.17173752  0.49766134  0.58627105  1
  O  O292  1  0.49532501  0.01536284  0.07831337  1
  O  O293  1  0.50497454  0.00965091  0.58363102  1
  O  O294  1  0.49642847  0.49680593  0.09060111  1
  O  O295  1  0.51314436  0.49368589  0.58138483  1
  O  O296  1  0.83558617  0.01928996  0.07264386  1
  O  O297  1  0.85675484  0.00252715  0.58199263  1
  O  O298  1  0.84105030  0.48165452  0.07436957  1
  O  O299  1  0.85514778  0.49839674  0.58453849  1
  O  O300  1  0.03261813  0.24933660  0.08771871  1
  O  O301  1  0.01398744  0.25095233  0.58573155  1
  O  O302  1  0.01139258  0.76591109  0.07222453  1
  O  O303  1  0.01530679  0.75012266  0.58404754  1
  O  O304  1  0.33650058  0.25324772  0.09057952  1
  O  O305  1  0.33959335  0.25192535  0.58697380  1
  O  O306  1  0.33476782  0.74427725  0.08860640  1
  O  O307  1  0.34027043  0.73624220  0.57657278  1
  O  O308  1  0.66226580  0.25389073  0.08936651  1
  O  O309  1  0.68889360  0.25016342  0.58469294  1
  O  O310  1  0.64928865  0.73748231  0.07516900  1
  O  O311  1  0.67115753  0.73762521  0.57136071  1
  O  O312  1  0.13495401  0.00082203  0.41447062  1
  O  O313  1  0.15327035  -0.00167769  0.91324715  1
  O  O314  1  0.13989511  0.50074381  0.41876588  1
  O  O315  1  0.15972589  0.48921953  0.92269083  1
  O  O316  1  0.49298888  0.00094728  0.41211514  1
  O  O317  1  0.50736346  -0.00016384  0.91029286  1
  O  O318  1  0.49557643  0.50178360  0.41820864  1
  O  O319  1  0.50190210  0.50388650  0.91821033  1
  O  O320  1  0.84351015  0.00099717  0.41241786  1
  O  O321  1  0.83471275  0.00078696  0.90941904  1
  O  O322  1  0.83577276  0.49922152  0.41571689  1
  O  O323  1  0.85784170  0.51290287  0.91592674  1
  O  O324  1  0.32163650  0.23656685  0.42877732  1
  O  O325  1  0.33503847  0.23477771  0.92556337  1
  O  O326  1  0.31820176  0.73790900  0.42481333  1
  O  O327  1  0.34848330  0.74098155  0.91775901  1
  O  O328  1  0.66843834  0.26171444  0.42570826  1
  O  O329  1  0.66515696  0.23854856  0.92607072  1
  O  O330  1  0.66859004  0.73841855  0.42183669  1
  O  O331  1  0.67572628  0.76242086  0.91611143  1
  O  O332  1  0.98774115  0.25167807  0.41551119  1
  O  O333  1  1.00254101  0.24493970  0.91195775  1
  O  O334  1  0.98477800  0.74949758  0.41462176  1
  O  O335  1  0.99308708  0.75658096  0.90855712  1
  O  O336  1  0.20979448  0.08509554  0.19789068  1
  O  O337  1  0.20865352  0.08456543  0.69512452  1
  O  O338  1  0.21570179  0.58161244  0.19397262  1
  O  O339  1  0.20791268  0.58183987  0.69505760  1
  O  O340  1  0.54424315  0.09403946  0.19307939  1
  O  O341  1  0.54282388  0.08578267  0.69446098  1
  O  O342  1  0.54095312  0.57938730  0.19786886  1
  O  O343  1  0.53424370  0.57803845  0.69314753  1
  O  O344  1  0.87657996  0.09039506  0.19184981  1
  O  O345  1  0.87840692  0.08419554  0.69227690  1
  O  O346  1  0.88674772  0.57204612  0.19602357  1
  O  O347  1  0.87747680  0.58349743  0.69302448  1
  O  O348  1  0.04569989  0.33176738  0.19772667  1
  O  O349  1  0.04227539  0.33226967  0.69603573  1
  O  O350  1  0.04771656  0.83900685  0.18961895  1
  O  O351  1  0.04554337  0.83316120  0.69330623  1
  O  O352  1  0.37641132  0.33469358  0.20012672  1
  O  O353  1  0.36739392  0.33266688  0.69661143  1
  O  O354  1  0.37859628  0.83046513  0.19408793  1
  O  O355  1  0.37916627  0.83282436  0.69843571  1
  O  O356  1  0.70643466  0.33409607  0.19951755  1
  O  O357  1  0.71373320  0.33441391  0.69345534  1
  O  O358  1  0.71393141  0.83240607  0.19129851  1
  O  O359  1  0.71176255  0.83372355  0.69608504  1
  O  O360  1  0.21086590  0.41414604  0.19819824  1
  O  O361  1  0.20457579  0.41603969  0.69645742  1
  O  O362  1  0.21096958  0.91962228  0.19568581  1
  O  O363  1  0.20737012  0.91903904  0.69194399  1
  O  O364  1  0.54126376  0.41566452  0.19993071  1
  O  O365  1  0.54604633  0.41993827  0.69478676  1
  O  O366  1  0.54458597  0.91017332  0.19441233  1
  O  O367  1  0.54351323  0.92064775  0.68962464  1
  O  O368  1  0.87747544  0.41170282  0.19478517  1
  O  O369  1  0.87792659  0.41420002  0.69430425  1
  O  O370  1  0.87810672  0.92235193  0.19730106  1
  O  O371  1  0.87995693  0.91882947  0.68983705  1
  O  O372  1  0.04468424  0.16722504  0.19633647  1
  O  O373  1  0.04314352  0.16621873  0.69477776  1
  O  O374  1  0.04365923  0.66774795  0.19589563  1
  O  O375  1  0.04099761  0.66755405  0.69315117  1
  O  O376  1  0.37388979  0.16903978  0.19917228  1
  O  O377  1  0.37260716  0.16647456  0.69598105  1
  O  O378  1  0.37853695  0.66313345  0.19804724  1
  O  O379  1  0.37394722  0.66185274  0.69241859  1
  O  O380  1  0.70946683  0.17118788  0.19630633  1
  O  O381  1  0.71455033  0.16290581  0.69345977  1
  O  O382  1  0.69486886  0.66450483  0.19023436  1
  O  O383  1  0.71345739  0.66906701  0.68868314  1
  O  O384  1  0.12016493  0.08445341  0.30534328  1
  O  O385  1  0.12358537  0.08206485  0.80405045  1
  O  O386  1  0.11979958  0.58028644  0.30629389  1
  O  O387  1  0.11862455  0.58307468  0.79835162  1
  O  O388  1  0.45127081  0.09348824  0.31006391  1
  O  O389  1  0.45894218  0.08208598  0.80278769  1
  O  O390  1  0.45880192  0.58257398  0.30779066  1
  O  O391  1  0.45683619  0.58343405  0.80569968  1
  O  O392  1  0.79502175  0.08753253  0.30638588  1
  O  O393  1  0.79356288  0.08384331  0.80262823  1
  O  O394  1  0.78807328  0.57589398  0.30479047  1
  O  O395  1  0.79468672  0.58494869  0.80387104  1
  O  O396  1  0.28791962  0.33251839  0.30527420  1
  O  O397  1  0.28640434  0.33090519  0.80225499  1
  O  O398  1  0.28671407  0.83286043  0.29769558  1
  O  O399  1  0.28636492  0.83352764  0.79738487  1
  O  O400  1  0.62462809  0.33610375  0.31003898  1
  O  O401  1  0.63887429  0.33518373  0.80679300  1
  O  O402  1  0.62053590  0.82772733  0.29834652  1
  O  O403  1  0.62331479  0.83607366  0.80027040  1
  O  O404  1  0.95480956  0.33280529  0.30632365  1
  O  O405  1  0.95564538  0.32973053  0.80547084  1
  O  O406  1  0.95773302  0.83301624  0.30256995  1
  O  O407  1  0.95386948  0.83617025  0.79956876  1
  O  O408  1  0.11774713  0.40883870  0.31230110  1
  O  O409  1  0.11946254  0.41354782  0.80821656  1
  O  O410  1  0.11978979  0.91884602  0.30487694  1
  O  O411  1  0.12178649  0.91666675  0.80373072  1
  O  O412  1  0.45770490  0.41622507  0.31144566  1
  O  O413  1  0.45003705  0.42386500  0.81206985  1
  O  O414  1  0.45144941  0.90796907  0.30964334  1
  O  O415  1  0.45924666  0.91857168  0.80201078  1
  O  O416  1  0.79083340  0.41606134  0.30541950  1
  O  O417  1  0.79178256  0.41782176  0.80135993  1
  O  O418  1  0.79667383  0.91920096  0.30458941  1
  O  O419  1  0.79275412  0.92016526  0.79910830  1
  O  O420  1  0.28717563  0.16540682  0.31064723  1
  O  O421  1  0.28914244  0.16230265  0.80776130  1
  O  O422  1  0.29617090  0.66429807  0.30887630  1
  O  O423  1  0.28991562  0.66582414  0.80520605  1
  O  O424  1  0.62225659  0.16924684  0.30257705  1
  O  O425  1  0.62499709  0.16184194  0.80780103  1
  O  O426  1  0.62500120  0.66081811  0.30731012  1
  O  O427  1  0.62115926  0.66969384  0.79523062  1
  O  O428  1  0.95720056  0.16887311  0.30476540  1
  O  O429  1  0.95869498  0.16343152  0.80313521  1
  O  O430  1  0.96570390  0.66726653  0.30489494  1
  O  O431  1  0.95567217  0.66943885  0.80229572  1
  F  F432  1  0.04772095  0.00420007  0.20105138  1
  F  F433  1  0.04657216  0.00094928  0.70001020  1
  F  F434  1  0.04588243  0.49506706  0.20232564  1
  F  F435  1  0.04232070  0.49581429  0.70051674  1
  F  F436  1  0.36614872  0.00148742  0.20277328  1
  F  F437  1  0.37688059  0.00161941  0.70080086  1
  F  F438  1  0.37967284  0.49663324  0.20721169  1
  F  F439  1  0.37568965  0.49732363  0.70428867  1
  F  F440  1  0.71485123  0.01332636  0.19779912  1
  F  F441  1  0.71339641  0.00397366  0.69840824  1
  F  F442  1  0.71029348  0.49638887  0.20264057  1
  F  F443  1  0.71385904  0.49655418  0.69712348  1
  F  F444  1  0.21037765  0.24826973  0.20525077  1
  F  F445  1  0.20857315  0.24687281  0.70252733  1
  F  F446  1  0.21330107  0.74974211  0.19909540  1
  F  F447  1  0.20874837  0.74598634  0.69958762  1
  F  F448  1  0.54232583  0.25564953  0.20579757  1
  F  F449  1  0.54479040  0.23975351  0.69655714  1
  F  F450  1  0.54094557  0.74412850  0.20193927  1
  F  F451  1  0.54247441  0.75112510  0.69536639  1
  F  F452  1  0.87923319  0.25095757  0.20318863  1
  F  F453  1  0.88069105  0.24837094  0.69948152  1
  F  F454  1  0.88705367  0.76302936  0.19452662  1
  F  F455  1  0.88055930  0.75035835  0.69763804  1
  F  F456  1  0.28463798  0.00144306  0.30204347  1
  F  F457  1  0.28764635  -0.00003037  0.79607670  1
  F  F458  1  0.29436436  0.50014003  0.30528579  1
  F  F459  1  0.28345739  0.49993647  0.79765631  1
  F  F460  1  0.63746064  0.00845532  0.30950478  1
  F  F461  1  0.62367770  0.00044116  0.79268616  1
  F  F462  1  0.62155004  0.49902300  0.30021435  1
  F  F463  1  0.62117073  0.49752345  0.79931255  1
  F  F464  1  0.95615159  0.00475292  0.29664267  1
  F  F465  1  0.95530167  0.00045254  0.79411684  1
  F  F466  1  0.95391733  0.49376668  0.30256118  1
  F  F467  1  0.95363896  0.50011164  0.79520565  1
  F  F468  1  0.11977803  0.24819210  0.30130066  1
  F  F469  1  0.11893240  0.24660454  0.79806620  1
  F  F470  1  0.11806380  0.75939458  0.30041121  1
  F  F471  1  0.11952623  0.75097673  0.79555738  1
  F  F472  1  0.45394627  0.25211689  0.30248352  1
  F  F473  1  0.44872473  0.23679911  0.80448482  1
  F  F474  1  0.45367116  0.74693303  0.29936060  1
  F  F475  1  0.45649201  0.74777069  0.79379499  1
  F  F476  1  0.78965978  0.25175902  0.29934463  1
  F  F477  1  0.79835737  0.24567118  0.79993531  1
  F  F478  1  0.78624939  0.75711051  0.29748968  1
  F  F479  1  0.79051871  0.75148548  0.79358993  1
