# generated using pymatgen
data_K24Na3Li5Mg64Fe17Si79(O5F)48
_symmetry_space_group_name_H-M   'P 1'
_cell_length_a   16.09883412
_cell_length_b   18.58910461
_cell_length_c   20.54982159
_cell_angle_alpha   89.99527520
_cell_angle_beta   100.01536610
_cell_angle_gamma   90.01931265
_symmetry_Int_Tables_number   1
_chemical_formula_structural   K24Na3Li5Mg64Fe17Si79(O5F)48
_chemical_formula_sum   'K24 Na3 Li5 Mg64 Fe17 Si79 O240 F48'
_cell_volume   6056.08320463
_cell_formula_units_Z   1
loop_
 _symmetry_equiv_pos_site_id
 _symmetry_equiv_pos_as_xyz
  1  'x, y, z'
loop_
 _atom_site_type_symbol
 _atom_site_label
 _atom_site_symmetry_multiplicity
 _atom_site_fract_x
 _atom_site_fract_y
 _atom_site_fract_z
 _atom_site_occupancy
  K  K0  1  -0.00649545  -0.00345795  -0.00182221  1
  K  K1  1  0.00046857  -0.00329753  0.50358926  1
  K  K2  1  0.01213374  0.50546968  -0.01249832  1
  K  K3  1  0.00163343  0.50540361  0.51372978  1
  K  K4  1  0.31823895  0.00183917  -0.00505024  1
  K  K5  1  0.33839743  0.00098643  0.50831593  1
  K  K6  1  0.32376441  0.51122009  -0.00915520  1
  K  K7  1  0.33205171  0.49913979  0.50990476  1
  K  K8  1  0.66994772  -0.01434132  -0.00441483  1
  K  K9  1  0.67075478  0.00445248  0.50880565  1
  K  K10  1  0.65377131  0.49840606  -0.00414942  1
  K  K11  1  0.67810566  0.49753330  0.50843079  1
  K  K12  1  0.15561511  0.26326894  -0.00492182  1
  K  K13  1  0.16905972  0.24939273  0.50235428  1
  K  K14  1  0.16289118  0.74952568  -0.00927619  1
  K  K15  1  0.16638187  0.74421899  0.51268095  1
  K  K16  1  0.49670503  0.25544744  -0.00838297  1
  K  K17  1  0.49623759  0.25120316  0.51560164  1
  K  K18  1  0.50381850  0.74492657  -0.00471255  1
  K  K19  1  0.49386744  0.74642401  0.51267231  1
  K  K20  1  0.83855209  0.24362009  -0.00635420  1
  K  K21  1  0.84919844  0.25562437  0.50661464  1
  K  K22  1  0.83370314  0.76055109  -0.00766077  1
  K  K23  1  0.84961514  0.74491370  0.51160902  1
  Na  Na24  1  0.66192747  0.25254570  0.74118605  1
  Na  Na25  1  0.00348040  0.58291941  0.75162055  1
  Na  Na26  1  0.49615517  0.33168417  0.24591421  1
  Li  Li27  1  0.16025576  0.50166527  0.74878677  1
  Li  Li28  1  -0.00464926  0.74649096  0.75213411  1
  Li  Li29  1  0.33293310  0.58311337  0.24813752  1
  Li  Li30  1  0.83890742  0.82653419  0.74723244  1
  Li  Li31  1  0.50129616  0.33017959  0.74642179  1
  Mg  Mg32  1  0.83799778  0.49909865  0.74925000  1
  Mg  Mg33  1  0.33888590  0.25036665  0.74909072  1
  Mg  Mg34  1  0.16548743  0.00032643  0.24842416  1
  Mg  Mg35  1  0.49900335  -0.00044834  0.24953500  1
  Mg  Mg36  1  0.83482841  -0.00049739  0.24727487  1
  Mg  Mg37  1  0.33194931  0.25024333  0.25044520  1
  Mg  Mg38  1  0.66880902  0.75085645  0.75320609  1
  Mg  Mg39  1  0.83352891  -0.00244240  0.74854050  1
  Mg  Mg40  1  0.16729363  -0.00324634  0.74986148  1
  Mg  Mg41  1  0.83112650  0.50067292  0.25633770  1
  Mg  Mg42  1  0.49535686  0.50152512  0.24577264  1
  Mg  Mg43  1  0.50129173  -0.00091835  0.74845044  1
  Mg  Mg44  1  0.00007871  0.74834140  0.25255850  1
  Mg  Mg45  1  0.50082575  0.49539850  0.74926008  1
  Mg  Mg46  1  0.16960880  0.50149914  0.25265952  1
  Mg  Mg47  1  0.33322438  0.74801896  0.24706347  1
  Mg  Mg48  1  0.00194735  0.25017442  0.74868006  1
  Mg  Mg49  1  0.33380931  0.75078291  0.75029511  1
  Mg  Mg50  1  -0.00174252  0.25114936  0.25283630  1
  Mg  Mg51  1  0.66383472  0.24999592  0.24923097  1
  Mg  Mg52  1  0.66598060  0.74876190  0.24971435  1
  Mg  Mg53  1  -0.00049246  0.41615204  0.25390344  1
  Mg  Mg54  1  0.16864727  0.16505166  0.74858703  1
  Mg  Mg55  1  0.33617295  0.08327412  0.74999803  1
  Mg  Mg56  1  0.83352403  0.16605886  0.74640065  1
  Mg  Mg57  1  0.83438064  0.66568306  0.25516491  1
  Mg  Mg58  1  0.16527338  0.33562183  0.24979990  1
  Mg  Mg59  1  0.83447444  0.33394348  0.74747682  1
  Mg  Mg60  1  0.49984455  0.66426703  0.74932867  1
  Mg  Mg61  1  0.49544943  0.66409820  0.24674247  1
  Mg  Mg62  1  0.33328735  0.41890755  0.24772879  1
  Mg  Mg63  1  0.83506643  0.83417017  0.25201910  1
  Mg  Mg64  1  0.00157587  0.08550380  0.24988047  1
  Mg  Mg65  1  0.33430551  0.41497427  0.74918399  1
  Mg  Mg66  1  0.66147050  0.41592609  0.24989535  1
  Mg  Mg67  1  0.32985878  0.58116309  0.75203754  1
  Mg  Mg68  1  0.33642859  0.91371651  0.74997442  1
  Mg  Mg69  1  0.00098248  0.58449049  0.25625187  1
  Mg  Mg70  1  0.16589168  0.83419651  0.24741269  1
  Mg  Mg71  1  0.32993619  0.91598949  0.24701553  1
  Mg  Mg72  1  0.83314166  0.33467055  0.25409224  1
  Mg  Mg73  1  0.66584319  0.08420628  0.24971938  1
  Mg  Mg74  1  0.16970414  0.66466033  0.25198952  1
  Mg  Mg75  1  0.49870531  0.83378301  0.24862818  1
  Mg  Mg76  1  0.83441872  0.16558403  0.25042790  1
  Mg  Mg77  1  0.66737837  0.91546217  0.24967400  1
  Mg  Mg78  1  0.66193318  0.58367460  0.25051935  1
  Mg  Mg79  1  0.16590405  0.66561649  0.75284268  1
  Mg  Mg80  1  0.66977413  0.58339851  0.75137406  1
  Mg  Mg81  1  -0.00000210  0.91485826  0.25058397  1
  Mg  Mg82  1  0.49787501  0.16601762  0.24858523  1
  Mg  Mg83  1  0.50077761  0.83419788  0.75050777  1
  Mg  Mg84  1  0.50016234  0.16928622  0.74753856  1
  Mg  Mg85  1  0.66684207  0.41545957  0.74686911  1
  Mg  Mg86  1  0.16890926  0.33617574  0.74998405  1
  Mg  Mg87  1  0.16205230  0.16601483  0.24913061  1
  Mg  Mg88  1  0.66725446  0.08501822  0.74578344  1
  Mg  Mg89  1  0.16607926  0.83060094  0.75117885  1
  Mg  Mg90  1  0.00345951  0.41842799  0.74889272  1
  Mg  Mg91  1  0.32936575  0.08486158  0.24783528  1
  Mg  Mg92  1  0.83763936  0.66933864  0.75158778  1
  Mg  Mg93  1  -0.00125412  0.08175555  0.74791330  1
  Mg  Mg94  1  0.66886540  0.91329354  0.75108672  1
  Mg  Mg95  1  -0.00343398  0.91186545  0.75021245  1
  Fe  Fe96  1  0.52072383  0.58086970  0.10693649  1
  Fe  Fe97  1  0.64163304  0.82584615  0.89247248  1
  Fe  Fe98  1  0.14414519  0.41906367  0.89078381  1
  Fe  Fe99  1  0.35869837  0.83526342  0.60769045  1
  Fe  Fe100  1  0.30953087  0.83844918  0.89110129  1
  Fe  Fe101  1  0.86031735  0.91310672  0.11103784  1
  Fe  Fe102  1  0.97710124  0.66421836  0.39545803  1
  Fe  Fe103  1  0.19010723  0.91807729  0.10855468  1
  Fe  Fe104  1  0.18638037  0.57917093  0.61240685  1
  Fe  Fe105  1  0.14449165  0.08109671  0.39064843  1
  Fe  Fe106  1  0.47875772  0.92317114  0.89294874  1
  Fe  Fe107  1  0.86210860  0.41768112  0.60809839  1
  Fe  Fe108  1  0.02291667  0.17527206  0.10923226  1
  Fe  Fe109  1  0.36118494  0.16534347  0.60945951  1
  Fe  Fe110  1  0.14366931  0.59313018  0.89595436  1
  Fe  Fe111  1  0.85783446  0.08137353  0.60782229  1
  Fe  Fe112  1  0.97718912  0.33568704  0.39346030  1
  Si  Si113  1  0.13511895  0.91574922  0.88761591  1
  Si  Si114  1  0.64393461  0.33858125  0.88228378  1
  Si  Si115  1  0.85534074  0.58903029  0.61400673  1
  Si  Si116  1  0.03174574  0.32881677  0.61339765  1
  Si  Si117  1  0.31148101  0.66645898  0.38422985  1
  Si  Si118  1  0.51961555  0.41372009  0.10998635  1
  Si  Si119  1  0.02356731  0.65988396  0.11729955  1
  Si  Si120  1  0.97097158  0.16167381  0.39031240  1
  Si  Si121  1  0.36278993  0.83762739  0.11253604  1
  Si  Si122  1  0.19370535  0.41081986  0.61352826  1
  Si  Si123  1  0.47118125  0.08277617  0.38383297  1
  Si  Si124  1  0.02519946  0.83580258  0.61581150  1
  Si  Si125  1  0.96639634  0.83889447  0.88408733  1
  Si  Si126  1  0.19060647  0.08907999  0.10913303  1
  Si  Si127  1  0.47307998  0.42100084  0.38338734  1
  Si  Si128  1  0.69107741  0.16802416  0.11513438  1
  Si  Si129  1  0.19219088  0.08169322  0.61406088  1
  Si  Si130  1  0.85112843  0.42287035  0.11726698  1
  Si  Si131  1  0.53392164  0.91642066  0.60996558  1
  Si  Si132  1  0.31945177  0.67031237  0.88932087  1
  Si  Si133  1  0.64416299  0.65597845  0.88797074  1
  Si  Si134  1  0.69305758  0.66518577  0.11613173  1
  Si  Si135  1  0.19227482  0.58490207  0.11670944  1
  Si  Si136  1  0.47513670  0.57670020  0.88343249  1
  Si  Si137  1  0.47655203  0.41165615  0.88248532  1
  Si  Si138  1  0.52893532  0.58236666  0.61470631  1
  Si  Si139  1  0.80152637  0.08411910  0.38471858  1
  Si  Si140  1  0.52956262  0.91649781  0.11551422  1
  Si  Si141  1  0.52703064  0.41863463  0.61297610  1
  Si  Si142  1  0.47379868  0.58343894  0.38443755  1
  Si  Si143  1  0.80522632  0.08698349  0.88401286  1
  Si  Si144  1  0.80440320  0.92332046  0.88683113  1
  Si  Si145  1  0.69114841  0.33552656  0.60892293  1
  Si  Si146  1  0.69111197  0.66787911  0.61601387  1
  Si  Si147  1  0.85694221  0.91307755  0.61243295  1
  Si  Si148  1  0.48298268  0.08956622  0.88730767  1
  Si  Si149  1  0.02849695  0.82464405  0.11202827  1
  Si  Si150  1  0.19160639  0.41896566  0.11407623  1
  Si  Si151  1  0.63583758  0.16621818  0.38486160  1
  Si  Si152  1  0.31008226  0.82896830  0.38399497  1
  Si  Si153  1  0.63491399  0.66969139  0.38632783  1
  Si  Si154  1  0.15020435  0.58167786  0.38915091  1
  Si  Si155  1  0.35439180  0.67286887  0.11125758  1
  Si  Si156  1  0.01863265  0.34528962  0.11250627  1
  Si  Si157  1  0.14692906  0.91234154  0.38735708  1
  Si  Si158  1  0.68909309  0.33361937  0.11490922  1
  Si  Si159  1  0.35187949  0.32946823  0.11343487  1
  Si  Si160  1  0.69580319  0.83044060  0.61638704  1
  Si  Si161  1  0.97457419  0.16548338  0.88354414  1
  Si  Si162  1  0.03004060  0.16415831  0.61319737  1
  Si  Si163  1  0.52638387  0.08283246  0.11452259  1
  Si  Si164  1  0.02471471  0.67263291  0.61587587  1
  Si  Si165  1  0.81009193  0.57920856  0.88592181  1
  Si  Si166  1  0.30992329  0.17133669  0.38552570  1
  Si  Si167  1  0.96601121  0.67426885  0.89064278  1
  Si  Si168  1  0.53202815  0.08239457  0.60976794  1
  Si  Si169  1  0.80924035  0.41562998  0.88442421  1
  Si  Si170  1  0.85616942  0.58521799  0.11896702  1
  Si  Si171  1  0.64193946  0.17310864  0.88189599  1
  Si  Si172  1  0.80615315  0.91826724  0.38632287  1
  Si  Si173  1  0.14963233  0.41821208  0.38831283  1
  Si  Si174  1  0.47232838  0.91707905  0.38463099  1
  Si  Si175  1  0.63982312  0.83504493  0.38605929  1
  Si  Si176  1  0.30995832  0.16261600  0.88532844  1
  Si  Si177  1  0.31257248  0.33554379  0.38414746  1
  Si  Si178  1  0.35945971  0.16419071  0.11306427  1
  Si  Si179  1  0.79849160  0.41626153  0.38916873  1
  Si  Si180  1  0.69138445  0.82903906  0.11568063  1
  Si  Si181  1  0.97240532  0.33046438  0.88624564  1
  Si  Si182  1  0.14106139  0.08281686  0.88467799  1
  Si  Si183  1  0.79889685  0.58363620  0.39031679  1
  Si  Si184  1  0.85393221  0.08412669  0.11060966  1
  Si  Si185  1  0.35947676  0.33614725  0.61190135  1
  Si  Si186  1  0.63543288  0.33165035  0.38411393  1
  Si  Si187  1  0.69494001  0.16882510  0.60947067  1
  Si  Si188  1  0.18639464  0.91922061  0.61216598  1
  Si  Si189  1  0.35956174  0.66176545  0.61120481  1
  Si  Si190  1  0.97675469  0.83705550  0.39026830  1
  Si  Si191  1  0.31250608  0.32846136  0.88721036  1
  O  O192  1  0.28136411  0.11119229  0.08400079  1
  O  O193  1  0.27120528  0.10201078  0.57888985  1
  O  O194  1  0.26518844  0.62839947  0.08659213  1
  O  O195  1  0.28311545  0.60948250  0.57835565  1
  O  O196  1  0.60613868  0.11996585  0.08657833  1
  O  O197  1  0.61291119  0.11720757  0.58090222  1
  O  O198  1  0.62286164  0.60958563  0.08043708  1
  O  O199  1  0.60817385  0.61839540  0.58487590  1
  O  O200  1  0.93064632  0.11480600  0.07667983  1
  O  O201  1  0.95660644  0.11086621  0.57761501  1
  O  O202  1  0.94171323  0.60770299  0.09064904  1
  O  O203  1  0.93314470  0.63187785  0.58852517  1
  O  O204  1  0.09951634  0.38276371  0.08462919  1
  O  O205  1  0.12081396  0.34877136  0.58831565  1
  O  O206  1  0.11384886  0.84243024  0.08309651  1
  O  O207  1  0.10294132  0.86965383  0.58253804  1
  O  O208  1  0.43643633  0.36005249  0.08760343  1
  O  O209  1  0.43934747  0.37603096  0.58365066  1
  O  O210  1  0.45215840  0.86189778  0.08838161  1
  O  O211  1  0.45250508  0.87229983  0.57275398  1
  O  O212  1  0.76915889  0.37136652  0.08704653  1
  O  O213  1  0.76393140  0.36392105  0.56974457  1
  O  O214  1  0.77001373  0.84988714  0.08117882  1
  O  O215  1  0.77959545  0.85485624  0.58622241  1
  O  O216  1  0.26527193  0.37489855  0.08296371  1
  O  O217  1  0.27716291  0.38621190  0.58125848  1
  O  O218  1  0.29336490  0.89596843  0.08189058  1
  O  O219  1  0.26323571  0.89370561  0.57605782  1
  O  O220  1  0.60109916  0.37435392  0.08306330  1
  O  O221  1  0.60278087  0.38126162  0.58021469  1
  O  O222  1  0.61320248  0.88575733  0.08992708  1
  O  O223  1  0.61781772  0.88343071  0.58281571  1
  O  O224  1  0.93562684  0.39856924  0.08852362  1
  O  O225  1  0.95617625  0.37930880  0.57652178  1
  O  O226  1  0.95338794  0.87767927  0.07736541  1
  O  O227  1  0.93991365  0.88176518  0.58368601  1
  O  O228  1  0.12407268  0.15165195  0.08003440  1
  O  O229  1  0.11776406  0.14087553  0.58763819  1
  O  O230  1  0.10172697  0.62421826  0.08653863  1
  O  O231  1  0.09325851  0.63712527  0.57583226  1
  O  O232  1  0.44288987  0.13171327  0.08577049  1
  O  O233  1  0.44960648  0.12452966  0.57231418  1
  O  O234  1  0.42749736  0.63997741  0.07495921  1
  O  O235  1  0.44568805  0.62938573  0.58456264  1
  O  O236  1  0.77111074  0.13798849  0.08507707  1
  O  O237  1  0.77063548  0.14560465  0.57081844  1
  O  O238  1  0.78312346  0.64455810  0.09132861  1
  O  O239  1  0.76974021  0.63770559  0.58319055  1
  O  O240  1  0.04332751  0.10390677  0.41978593  1
  O  O241  1  0.06293608  0.12248998  0.91355209  1
  O  O242  1  0.07228415  0.60567174  0.42392386  1
  O  O243  1  0.05105222  0.63611717  0.92886261  1
  O  O244  1  0.39335404  0.11987293  0.41242406  1
  O  O245  1  0.39675306  0.11818050  0.91490712  1
  O  O246  1  0.39312634  0.61572910  0.41450642  1
  O  O247  1  0.39828757  0.61181417  0.91444400  1
  O  O248  1  0.72035573  0.11885986  0.41269060  1
  O  O249  1  0.72868447  0.12790320  0.91416440  1
  O  O250  1  0.71797498  0.62240696  0.41683995  1
  O  O251  1  0.72288062  0.59928456  0.91357347  1
  O  O252  1  0.23105001  0.36429616  0.41439749  1
  O  O253  1  0.24200915  0.36264133  0.92443621  1
  O  O254  1  0.22523413  0.85416141  0.41162987  1
  O  O255  1  0.21181487  0.86734055  0.92453964  1
  O  O256  1  0.55404164  0.36807044  0.41033807  1
  O  O257  1  0.56538655  0.37058176  0.91608420  1
  O  O258  1  0.56110857  0.87457308  0.41405562  1
  O  O259  1  0.55731949  0.85781142  0.93537457  1
  O  O260  1  0.88219915  0.37464407  0.42330409  1
  O  O261  1  0.88733471  0.36132854  0.91332197  1
  O  O262  1  0.89606907  0.87940079  0.41547760  1
  O  O263  1  0.89404438  0.88292371  0.91575241  1
  O  O264  1  0.07249991  0.39398366  0.42381030  1
  O  O265  1  0.05298689  0.37329056  0.92468236  1
  O  O266  1  0.06212077  0.88550373  0.41617224  1
  O  O267  1  0.05160400  0.88555121  0.91542629  1
  O  O268  1  0.39281773  0.38798841  0.41392946  1
  O  O269  1  0.40439323  0.36846404  0.91493705  1
  O  O270  1  0.39303573  0.88014760  0.41296408  1
  O  O271  1  0.38224848  0.91005058  0.92759984  1
  O  O272  1  0.71780414  0.37874662  0.41653328  1
  O  O273  1  0.72751362  0.38672744  0.91619173  1
  O  O274  1  0.72800764  0.87816180  0.41531001  1
  O  O275  1  0.73466613  0.88614777  0.92362191  1
  O  O276  1  0.23284279  0.14747415  0.42099057  1
  O  O277  1  0.23012432  0.12539847  0.91486604  1
  O  O278  1  0.23103707  0.63587380  0.41500769  1
  O  O279  1  0.24325785  0.64596257  0.92685770  1
  O  O280  1  0.55810167  0.12693507  0.41349957  1
  O  O281  1  0.55883495  0.14958763  0.91410647  1
  O  O282  1  0.55488469  0.63525318  0.41559251  1
  O  O283  1  0.56293749  0.61874888  0.91509625  1
  O  O284  1  0.88273356  0.13254418  0.41491386  1
  O  O285  1  0.89526522  0.12851804  0.91258644  1
  O  O286  1  0.88286130  0.62417406  0.42603122  1
  O  O287  1  0.88531201  0.63384694  0.91963688  1
  O  O288  1  0.15988027  0.01171844  0.07675690  1
  O  O289  1  0.15674863  0.00173369  0.58757705  1
  O  O290  1  0.18987594  0.50211668  0.08739004  1
  O  O291  1  0.16208329  0.48574778  0.57788870  1
  O  O292  1  0.51271975  -0.00040182  0.08730853  1
  O  O293  1  0.52677274  -0.00068424  0.58063628  1
  O  O294  1  0.49952495  0.48790558  0.06964892  1
  O  O295  1  0.51628924  0.50127231  0.58206588  1
  O  O296  1  0.82510301  0.00542353  0.08101662  1
  O  O297  1  0.82958701  -0.01190981  0.57364750  1
  O  O298  1  0.82629966  0.50478128  0.08947704  1
  O  O299  1  0.84264239  0.51247821  0.57523980  1
  O  O300  1  -0.00414321  0.26946403  0.07566225  1
  O  O301  1  0.00878454  0.24617876  0.58561881  1
  O  O302  1  0.00096838  0.74052332  0.08826337  1
  O  O303  1  0.00813492  0.75526041  0.58442310  1
  O  O304  1  0.34067553  0.24624771  0.08380236  1
  O  O305  1  0.34545456  0.25900680  0.57409160  1
  O  O306  1  0.33652977  0.75658328  0.08456866  1
  O  O307  1  0.34418973  0.74038887  0.57562636  1
  O  O308  1  0.67622332  0.25073080  0.08662212  1
  O  O309  1  0.66522548  0.25163627  0.58673320  1
  O  O310  1  0.66214417  0.74690893  0.09171450  1
  O  O311  1  0.67000964  0.74930380  0.58588065  1
  O  O312  1  0.17905680  -0.01207744  0.42112490  1
  O  O313  1  0.14847363  0.00099973  0.91452616  1
  O  O314  1  0.18274695  0.49980999  0.41218681  1
  O  O315  1  0.15817499  0.50351668  0.93804742  1
  O  O316  1  0.48314349  -0.00007219  0.41301300  1
  O  O317  1  0.51608568  0.01654300  0.92470326  1
  O  O318  1  0.49340981  0.50194568  0.41573931  1
  O  O319  1  0.48667111  0.49399487  0.91292770  1
  O  O320  1  0.81092326  0.00140046  0.41405112  1
  O  O321  1  0.81601152  0.00703395  0.91702760  1
  O  O322  1  0.79775278  0.49988920  0.41552180  1
  O  O323  1  0.83387344  0.49677967  0.91443404  1
  O  O324  1  0.33868052  0.25396140  0.41065450  1
  O  O325  1  0.32603741  0.24412034  0.91534906  1
  O  O326  1  0.33461938  0.74820830  0.41391365  1
  O  O327  1  0.35406559  0.74783123  0.91922431  1
  O  O328  1  0.64483276  0.24857125  0.41378339  1
  O  O329  1  0.66284525  0.25565265  0.91032498  1
  O  O330  1  0.64755810  0.75271817  0.41532510  1
  O  O331  1  0.66784397  0.73099395  0.92564003  1
  O  O332  1  0.99242738  0.24017028  0.42381305  1
  O  O333  1  0.98239647  0.24632104  0.91513652  1
  O  O334  1  0.98836604  0.76015313  0.42705753  1
  O  O335  1  0.96893523  0.75873217  0.91914928  1
  O  O336  1  0.21060670  0.08603316  0.19101176  1
  O  O337  1  0.21080876  0.08200973  0.69520318  1
  O  O338  1  0.20595319  0.58347307  0.19639224  1
  O  O339  1  0.21348349  0.58487450  0.70205294  1
  O  O340  1  0.54336063  0.08194649  0.19529962  1
  O  O341  1  0.54470816  0.08314160  0.69052349  1
  O  O342  1  0.54348691  0.58429334  0.19913401  1
  O  O343  1  0.54618118  0.58140725  0.69491059  1
  O  O344  1  0.87359581  0.08490357  0.19282152  1
  O  O345  1  0.87852610  0.08194611  0.69939720  1
  O  O346  1  0.87436492  0.58221053  0.19955810  1
  O  O347  1  0.86464618  0.58371583  0.69315180  1
  O  O348  1  0.04131654  0.33940768  0.19336394  1
  O  O349  1  0.04514140  0.32898706  0.69401864  1
  O  O350  1  0.04207281  0.82927157  0.19413590  1
  O  O351  1  0.04652757  0.83935321  0.69498018  1
  O  O352  1  0.36301865  0.33084680  0.19270147  1
  O  O353  1  0.37341822  0.33299179  0.69174914  1
  O  O354  1  0.37883001  0.83543144  0.19423665  1
  O  O355  1  0.38093450  0.83219250  0.69842493  1
  O  O356  1  0.70779798  0.33394674  0.19542242  1
  O  O357  1  0.71579353  0.34319468  0.68825035  1
  O  O358  1  0.70970401  0.83237107  0.19720876  1
  O  O359  1  0.70885461  0.83167434  0.69558794  1
  O  O360  1  0.20831526  0.41703260  0.19453812  1
  O  O361  1  0.21638201  0.41045293  0.69342939  1
  O  O362  1  0.21043283  0.91749195  0.20105573  1
  O  O363  1  0.20824719  0.91720039  0.69286589  1
  O  O364  1  0.54511119  0.42283934  0.18940968  1
  O  O365  1  0.54745126  0.42079177  0.69215590  1
  O  O366  1  0.54482127  0.91781727  0.19662688  1
  O  O367  1  0.54645558  0.91669666  0.69029455  1
  O  O368  1  0.87008679  0.41991178  0.19770251  1
  O  O369  1  0.87950431  0.41542606  0.69926978  1
  O  O370  1  0.87844729  0.91479916  0.20332616  1
  O  O371  1  0.87713817  0.91968888  0.69204916  1
  O  O372  1  0.04025056  0.17127952  0.20112727  1
  O  O373  1  0.04496008  0.16389117  0.69439132  1
  O  O374  1  0.04434994  0.66259106  0.19787109  1
  O  O375  1  0.05020138  0.67440251  0.69422457  1
  O  O376  1  0.37655920  0.16545227  0.19372198  1
  O  O377  1  0.37742148  0.16474704  0.70067168  1
  O  O378  1  0.37756456  0.67172381  0.19171153  1
  O  O379  1  0.37874388  0.66380484  0.69249936  1
  O  O380  1  0.70874375  0.16622682  0.19581359  1
  O  O381  1  0.71689679  0.15958164  0.68888859  1
  O  O382  1  0.71033103  0.66495435  0.19771523  1
  O  O383  1  0.70732906  0.66609917  0.69596253  1
  O  O384  1  0.12375986  0.08196057  0.29851100  1
  O  O385  1  0.12415228  0.08312894  0.80436007  1
  O  O386  1  0.12657487  0.58392982  0.30803132  1
  O  O387  1  0.13444048  0.58371471  0.80901320  1
  O  O388  1  0.45590132  0.08183294  0.30329827  1
  O  O389  1  0.46134221  0.08423947  0.80665133  1
  O  O390  1  0.45842946  0.58427361  0.30494428  1
  O  O391  1  0.45975634  0.57988550  0.80315591  1
  O  O392  1  0.78634618  0.08268864  0.30392099  1
  O  O393  1  0.78797807  0.08578945  0.80411114  1
  O  O394  1  0.78522218  0.58481574  0.30898715  1
  O  O395  1  0.79187522  0.58093842  0.80570300  1
  O  O396  1  0.29120695  0.33551603  0.30372777  1
  O  O397  1  0.29330881  0.33002277  0.80666186  1
  O  O398  1  0.29377300  0.83122224  0.30364753  1
  O  O399  1  0.28800436  0.83533665  0.79922717  1
  O  O400  1  0.62763814  0.33080718  0.30472130  1
  O  O401  1  0.62435977  0.34210462  0.80401603  1
  O  O402  1  0.62239477  0.83484355  0.30548533  1
  O  O403  1  0.62115191  0.83224119  0.80028087  1
  O  O404  1  0.95399394  0.33463500  0.30078237  1
  O  O405  1  0.95830785  0.32950566  0.80589120  1
  O  O406  1  0.95810836  0.83262826  0.30924557  1
  O  O407  1  0.95335206  0.83697575  0.80538551  1
  O  O408  1  0.12592337  0.41668087  0.30694687  1
  O  O409  1  0.12219913  0.41237620  0.80095631  1
  O  O410  1  0.12355986  0.91378943  0.30626270  1
  O  O411  1  0.12234466  0.91695708  0.80688859  1
  O  O412  1  0.45205914  0.42446867  0.30414623  1
  O  O413  1  0.45807164  0.41440278  0.80324133  1
  O  O414  1  0.45651209  0.91651240  0.30410403  1
  O  O415  1  0.45948693  0.91897536  0.80002740  1
  O  O416  1  0.78488621  0.41601116  0.30776640  1
  O  O417  1  0.78849594  0.41590942  0.80450965  1
  O  O418  1  0.78670970  0.91701771  0.30595452  1
  O  O419  1  0.78544802  0.92478755  0.80712870  1
  O  O420  1  0.28944593  0.16728468  0.30432119  1
  O  O421  1  0.28931672  0.16321477  0.80544792  1
  O  O422  1  0.29126234  0.66909329  0.30458073  1
  O  O423  1  0.29848923  0.66811369  0.80825263  1
  O  O424  1  0.62022811  0.16533332  0.30430053  1
  O  O425  1  0.62151633  0.16215930  0.80319813  1
  O  O426  1  0.62055094  0.66970484  0.30599946  1
  O  O427  1  0.62405712  0.66188511  0.80713810  1
  O  O428  1  0.95246528  0.16538430  0.30839040  1
  O  O429  1  0.95928802  0.16566861  0.80358056  1
  O  O430  1  0.95542338  0.66636751  0.30324736  1
  O  O431  1  0.94932724  0.67134450  0.81187603  1
  F  F432  1  0.04238630  -0.00251784  0.20169891  1
  F  F433  1  0.04600535  -0.00127547  0.70367161  1
  F  F434  1  0.04464509  0.50064049  0.20739620  1
  F  F435  1  0.04212265  0.49088112  0.69264479  1
  F  F436  1  0.37981587  0.00098636  0.20153890  1
  F  F437  1  0.37940334  0.00128383  0.70057440  1
  F  F438  1  0.37751478  0.49633382  0.19603609  1
  F  F439  1  0.38155065  0.49849667  0.70032228  1
  F  F440  1  0.70985773  0.00020639  0.20248760  1
  F  F441  1  0.71199850  -0.00096581  0.70000167  1
  F  F442  1  0.71188091  0.50001353  0.20566467  1
  F  F443  1  0.71217053  0.50129972  0.70193953  1
  F  F444  1  0.20996336  0.25115551  0.20339947  1
  F  F445  1  0.21468476  0.24827875  0.70421099  1
  F  F446  1  0.21139731  0.74863538  0.20232476  1
  F  F447  1  0.21373308  0.74911643  0.70086311  1
  F  F448  1  0.54880710  0.23879833  0.19623734  1
  F  F449  1  0.52957215  0.24665812  0.69103420  1
  F  F450  1  0.54587756  0.75159744  0.20274609  1
  F  F451  1  0.54680364  0.74541657  0.70111394  1
  F  F452  1  0.87398551  0.25059345  0.20259833  1
  F  F453  1  0.88190337  0.24911038  0.69877744  1
  F  F454  1  0.87713678  0.74973398  0.20538444  1
  F  F455  1  0.87343233  0.74616973  0.69811642  1
  F  F456  1  0.29132988  0.00183911  0.29765655  1
  F  F457  1  0.28834802  0.00035706  0.79649493  1
  F  F458  1  0.28758709  0.49706882  0.29786531  1
  F  F459  1  0.30433677  0.49529162  0.80341750  1
  F  F460  1  0.62071302  -0.00005842  0.29896988  1
  F  F461  1  0.62225621  0.00146812  0.79400729  1
  F  F462  1  0.61871837  0.49846350  0.29923993  1
  F  F463  1  0.62271435  0.50002887  0.79773926  1
  F  F464  1  0.95396924  0.00207630  0.29838838  1
  F  F465  1  0.95575439  -0.00065145  0.79937385  1
  F  F466  1  0.95303681  0.49984735  0.30183199  1
  F  F467  1  0.95151328  0.49027997  0.80487410  1
  F  F468  1  0.12180407  0.25436345  0.29896220  1
  F  F469  1  0.12285406  0.24670974  0.79778848  1
  F  F470  1  0.12273802  0.74968644  0.29770916  1
  F  F471  1  0.12985504  0.75070962  0.80227987  1
  F  F472  1  0.45008490  0.23995782  0.30001998  1
  F  F473  1  0.45563650  0.24728974  0.80169162  1
  F  F474  1  0.45549411  0.75104761  0.29742744  1
  F  F475  1  0.45822581  0.74605176  0.79730049  1
  F  F476  1  0.78477238  0.24840427  0.29784801  1
  F  F477  1  0.79921050  0.24947953  0.79683222  1
  F  F478  1  0.78587860  0.75106021  0.30076285  1
  F  F479  1  0.78390849  0.74374585  0.80221479  1
