# generated using pymatgen
data_K24Na3Li5Mg64Fe17Si79(O5F)48
_symmetry_space_group_name_H-M   'P 1'
_cell_length_a   16.08422447
_cell_length_b   18.57012143
_cell_length_c   20.54667633
_cell_angle_alpha   89.99895259
_cell_angle_beta   99.99976974
_cell_angle_gamma   89.98711332
_symmetry_Int_Tables_number   1
_chemical_formula_structural   K24Na3Li5Mg64Fe17Si79(O5F)48
_chemical_formula_sum   'K24 Na3 Li5 Mg64 Fe17 Si79 O240 F48'
_cell_volume   6043.77382754
_cell_formula_units_Z   1
loop_
 _symmetry_equiv_pos_site_id
 _symmetry_equiv_pos_as_xyz
  1  'x, y, z'
loop_
 _atom_site_type_symbol
 _atom_site_label
 _atom_site_symmetry_multiplicity
 _atom_site_fract_x
 _atom_site_fract_y
 _atom_site_fract_z
 _atom_site_occupancy
  K  K0  1  0.00000763  -0.01123059  0.00104237  1
  K  K1  1  -0.01279814  0.00433606  0.49520451  1
  K  K2  1  -0.00140467  0.50103111  -0.00341344  1
  K  K3  1  -0.00175175  0.50209846  0.50046455  1
  K  K4  1  0.32653865  -0.00315376  0.00138678  1
  K  K5  1  0.33384597  -0.00075587  0.49700790  1
  K  K6  1  0.33333624  0.50385987  -0.00339537  1
  K  K7  1  0.33028793  0.49763260  0.50196180  1
  K  K8  1  0.67319126  -0.00655085  0.01065197  1
  K  K9  1  0.67044920  0.00154922  0.48941448  1
  K  K10  1  0.67089376  0.49802621  0.00488626  1
  K  K11  1  0.67390523  0.50453438  0.49584677  1
  K  K12  1  0.16714690  0.25039285  -0.00418598  1
  K  K13  1  0.16539737  0.24691856  0.50704240  1
  K  K14  1  0.16889919  0.75335295  -0.00719244  1
  K  K15  1  0.16052622  0.75595671  0.50502481  1
  K  K16  1  0.49715247  0.25209705  0.00406209  1
  K  K17  1  0.50090104  0.25028323  0.49509990  1
  K  K18  1  0.50472919  0.74410115  -0.00021167  1
  K  K19  1  0.49436419  0.75481421  0.49940222  1
  K  K20  1  0.83351980  0.25153998  0.00611554  1
  K  K21  1  0.84145623  0.24750839  0.50399318  1
  K  K22  1  0.82473208  0.75828832  0.00722634  1
  K  K23  1  0.82925750  0.75348522  0.49566674  1
  Na  Na24  1  0.00453853  0.25256611  0.74633926  1
  Na  Na25  1  0.33276210  0.08339262  0.25324720  1
  Na  Na26  1  0.66483124  0.08238047  0.25485781  1
  Li  Li27  1  -0.00373076  0.75242802  0.24760496  1
  Li  Li28  1  0.33309496  0.24589006  0.25013891  1
  Li  Li29  1  0.67064285  0.41653665  0.25372607  1
  Li  Li30  1  0.50243768  0.83294353  0.74393113  1
  Li  Li31  1  0.16202849  0.33188782  0.75043262  1
  Mg  Mg32  1  0.33138442  0.25223588  0.75565531  1
  Mg  Mg33  1  -0.00375086  0.25076317  0.25156795  1
  Mg  Mg34  1  0.83434325  -0.00128241  0.74873707  1
  Mg  Mg35  1  0.50060260  0.49872039  0.75471790  1
  Mg  Mg36  1  0.83379078  0.50039936  0.74475792  1
  Mg  Mg37  1  0.00245431  0.74963657  0.75058071  1
  Mg  Mg38  1  0.33446904  0.75056690  0.24825744  1
  Mg  Mg39  1  0.16548091  -0.00044881  0.25068578  1
  Mg  Mg40  1  0.83065460  0.49990202  0.24788081  1
  Mg  Mg41  1  0.49714912  0.00106829  0.25207940  1
  Mg  Mg42  1  0.66474478  0.25392186  0.25108828  1
  Mg  Mg43  1  0.66745407  0.74868057  0.24657928  1
  Mg  Mg44  1  0.16822556  0.00022322  0.75262657  1
  Mg  Mg45  1  0.83072320  -0.00057093  0.24968577  1
  Mg  Mg46  1  0.16665310  0.49740275  0.75163496  1
  Mg  Mg47  1  0.16701084  0.49985476  0.24922604  1
  Mg  Mg48  1  0.50344098  0.49746036  0.24566018  1
  Mg  Mg49  1  0.50172100  -0.00296025  0.75024330  1
  Mg  Mg50  1  0.66836406  0.24896805  0.75166260  1
  Mg  Mg51  1  0.33771045  0.74928891  0.75524317  1
  Mg  Mg52  1  0.66475380  0.75198207  0.74442275  1
  Mg  Mg53  1  0.33218980  0.41239687  0.24860388  1
  Mg  Mg54  1  0.49562720  0.16867775  0.25134069  1
  Mg  Mg55  1  0.66314099  0.91311031  0.74599038  1
  Mg  Mg56  1  0.17023120  0.83519602  0.75515097  1
  Mg  Mg57  1  0.16763972  0.16790919  0.25027650  1
  Mg  Mg58  1  0.50061261  0.16584416  0.75366852  1
  Mg  Mg59  1  0.00278107  0.91551774  0.75175066  1
  Mg  Mg60  1  0.00174592  0.08512927  0.75114856  1
  Mg  Mg61  1  0.33414175  0.41571855  0.75608989  1
  Mg  Mg62  1  0.33451946  0.08367877  0.75303263  1
  Mg  Mg63  1  0.66711437  0.41457219  0.75104760  1
  Mg  Mg64  1  0.66637295  0.08161022  0.75043886  1
  Mg  Mg65  1  0.83402383  0.66806326  0.24555812  1
  Mg  Mg66  1  0.16619675  0.66743682  0.24727091  1
  Mg  Mg67  1  0.83254878  0.16658502  0.25138367  1
  Mg  Mg68  1  0.16319847  0.83167075  0.24782760  1
  Mg  Mg69  1  0.33552978  0.58319489  0.24596096  1
  Mg  Mg70  1  0.49748086  0.33249805  0.24911210  1
  Mg  Mg71  1  -0.00163976  0.08450203  0.24943470  1
  Mg  Mg72  1  0.50211335  0.66400581  0.24505879  1
  Mg  Mg73  1  0.16858978  0.66583530  0.75279293  1
  Mg  Mg74  1  0.66671376  0.58111521  0.24526524  1
  Mg  Mg75  1  0.50061009  0.33387666  0.75617181  1
  Mg  Mg76  1  0.83427792  0.33402231  0.74702340  1
  Mg  Mg77  1  0.83378079  0.83522776  0.24693101  1
  Mg  Mg78  1  0.83098631  0.83303541  0.74699926  1
  Mg  Mg79  1  0.33906652  0.91322354  0.75304642  1
  Mg  Mg80  1  0.82970723  0.66665242  0.74459458  1
  Mg  Mg81  1  0.33340581  0.91714617  0.25061357  1
  Mg  Mg82  1  0.50168956  0.66742535  0.75174953  1
  Mg  Mg83  1  -0.00042829  0.41536267  0.74687150  1
  Mg  Mg84  1  0.83480610  0.16615642  0.74893091  1
  Mg  Mg85  1  0.50112433  0.83579232  0.25291545  1
  Mg  Mg86  1  0.66740683  0.91579375  0.24954255  1
  Mg  Mg87  1  0.66601354  0.58499128  0.74700438  1
  Mg  Mg88  1  0.83203332  0.33560920  0.25138477  1
  Mg  Mg89  1  0.00006024  0.58654502  0.24603207  1
  Mg  Mg90  1  0.33514616  0.58411794  0.75481490  1
  Mg  Mg91  1  -0.00068758  0.58534924  0.74679620  1
  Mg  Mg92  1  0.16684791  0.16949228  0.75194084  1
  Mg  Mg93  1  -0.00143096  0.41628180  0.25135328  1
  Mg  Mg94  1  0.16682054  0.33234741  0.24997680  1
  Mg  Mg95  1  -0.00296202  0.91351098  0.24782987  1
  Fe  Fe96  1  0.31113844  0.66342195  0.89347258  1
  Fe  Fe97  1  0.69397012  0.66401115  0.10584668  1
  Fe  Fe98  1  0.68971468  0.83901633  0.60402939  1
  Fe  Fe99  1  0.52081096  0.57756474  0.10375630  1
  Fe  Fe100  1  0.85650290  0.41706870  0.60734182  1
  Fe  Fe101  1  0.68599407  0.66771630  0.60596396  1
  Fe  Fe102  1  0.85962718  0.91958487  0.10673652  1
  Fe  Fe103  1  0.14082649  0.91839895  0.89351562  1
  Fe  Fe104  1  0.47156367  0.92063340  0.39132279  1
  Fe  Fe105  1  0.98273661  0.16339854  0.38991817  1
  Fe  Fe106  1  0.02845952  0.66955206  0.61052382  1
  Fe  Fe107  1  0.80557954  0.41724808  0.38967131  1
  Fe  Fe108  1  0.97842896  0.33355255  0.39158516  1
  Fe  Fe109  1  0.80684665  0.91595006  0.39018743  1
  Fe  Fe110  1  0.48098822  0.41386202  0.89551323  1
  Fe  Fe111  1  0.52037891  0.92231944  0.60832586  1
  Fe  Fe112  1  0.02871476  0.16437563  0.60961175  1
  Si  Si113  1  0.14777693  0.07556240  0.38726125  1
  Si  Si114  1  0.63639364  0.82641712  0.38716709  1
  Si  Si115  1  0.18488918  0.08243378  0.11420178  1
  Si  Si116  1  0.97096564  0.16864226  0.88653584  1
  Si  Si117  1  0.19089256  0.91699292  0.11437607  1
  Si  Si118  1  0.02508202  0.17070902  0.11315536  1
  Si  Si119  1  0.52465797  0.57520056  0.61409079  1
  Si  Si120  1  0.30052666  0.33493493  0.38573456  1
  Si  Si121  1  0.51658827  0.40862052  0.11113881  1
  Si  Si122  1  0.48511357  0.58225701  0.88991436  1
  Si  Si123  1  0.30441411  0.17071827  0.38591370  1
  Si  Si124  1  0.68728049  0.16340329  0.61681431  1
  Si  Si125  1  0.35654335  0.83739571  0.11478829  1
  Si  Si126  1  0.35827898  0.33280450  0.61931371  1
  Si  Si127  1  0.35766120  0.67248470  0.11048886  1
  Si  Si128  1  0.80215457  0.58227371  0.88385044  1
  Si  Si129  1  0.86321162  0.91726226  0.61541046  1
  Si  Si130  1  0.85563769  0.09033563  0.10991408  1
  Si  Si131  1  0.02672827  0.33586687  0.11325037  1
  Si  Si132  1  0.35325988  0.16469011  0.11417933  1
  Si  Si133  1  0.68978332  0.33382331  0.11430888  1
  Si  Si134  1  0.81203367  0.07916642  0.88656429  1
  Si  Si135  1  0.51838218  0.08648386  0.11467129  1
  Si  Si136  1  0.47767625  0.09140202  0.39011094  1
  Si  Si137  1  0.80597533  0.41702623  0.88645931  1
  Si  Si138  1  0.35413568  0.32652179  0.11401478  1
  Si  Si139  1  0.19985536  0.91454287  0.61755634  1
  Si  Si140  1  0.47880022  0.92099655  0.88781645  1
  Si  Si141  1  0.86619953  0.58176104  0.10825799  1
  Si  Si142  1  0.64182778  0.67209402  0.88428206  1
  Si  Si143  1  0.35857641  0.82518395  0.61548378  1
  Si  Si144  1  0.81541855  0.58691864  0.38459643  1
  Si  Si145  1  0.63838894  0.17534145  0.38595487  1
  Si  Si146  1  0.52322939  0.41109642  0.61739860  1
  Si  Si147  1  0.36173851  0.17131274  0.62030813  1
  Si  Si148  1  0.68818227  0.17042474  0.11484929  1
  Si  Si149  1  0.14144390  0.08910701  0.89131257  1
  Si  Si150  1  0.31080858  0.66692732  0.38234029  1
  Si  Si151  1  0.68782864  0.32862015  0.61380161  1
  Si  Si152  1  0.36343652  0.66064623  0.61730294  1
  Si  Si153  1  0.31011140  0.16789782  0.88902746  1
  Si  Si154  1  0.51924485  0.08875871  0.61633241  1
  Si  Si155  1  0.64760541  0.16150788  0.88750374  1
  Si  Si156  1  0.30620180  0.33467843  0.89088139  1
  Si  Si157  1  0.97022724  0.82775526  0.88764072  1
  Si  Si158  1  0.52150662  0.92047834  0.11421805  1
  Si  Si159  1  0.14457834  0.58720538  0.38237904  1
  Si  Si160  1  0.19719565  0.58251413  0.11216172  1
  Si  Si161  1  0.68364923  0.83573465  0.10786964  1
  Si  Si162  1  0.19331216  0.41662744  0.11279271  1
  Si  Si163  1  0.46680897  0.41484210  0.38397897  1
  Si  Si164  1  0.14095552  0.91165166  0.38214411  1
  Si  Si165  1  0.19769499  0.41814050  0.61780209  1
  Si  Si166  1  0.47444720  0.58026587  0.38279649  1
  Si  Si167  1  0.20277302  0.08057882  0.61559828  1
  Si  Si168  1  0.96804567  0.66176091  0.88437419  1
  Si  Si169  1  0.02763186  0.84096415  0.61482784  1
  Si  Si170  1  0.80768388  0.08951351  0.38933703  1
  Si  Si171  1  0.03156656  0.34046932  0.61084846  1
  Si  Si172  1  0.64203240  0.83619575  0.88376077  1
  Si  Si173  1  0.30322947  0.83118963  0.38428030  1
  Si  Si174  1  0.64784912  0.32553264  0.89045745  1
  Si  Si175  1  0.80738067  0.91468918  0.88411326  1
  Si  Si176  1  0.96928414  0.33526816  0.88600512  1
  Si  Si177  1  0.85382739  0.08177391  0.61386043  1
  Si  Si178  1  0.19765355  0.58195552  0.61463099  1
  Si  Si179  1  0.97840870  0.66932964  0.38035438  1
  Si  Si180  1  0.64239996  0.66129397  0.38225127  1
  Si  Si181  1  0.31733737  0.83589722  0.89396480  1
  Si  Si182  1  0.47796561  0.08557914  0.88900025  1
  Si  Si183  1  0.85795941  0.41553122  0.11186871  1
  Si  Si184  1  0.13638536  0.57954807  0.88948418  1
  Si  Si185  1  0.13610791  0.41374732  0.88597298  1
  Si  Si186  1  0.02923530  0.82893736  0.11008522  1
  Si  Si187  1  0.14170307  0.42394380  0.38664255  1
  Si  Si188  1  0.97692572  0.83313438  0.38543173  1
  Si  Si189  1  0.03276577  0.66220306  0.11126354  1
  Si  Si190  1  0.63366103  0.33780041  0.38632906  1
  Si  Si191  1  0.85725747  0.58667173  0.60906344  1
  O  O192  1  0.26624510  0.11734776  0.08590176  1
  O  O193  1  0.28898357  0.11315870  0.59061703  1
  O  O194  1  0.27326299  0.62241514  0.08323434  1
  O  O195  1  0.28625175  0.60519160  0.58891042  1
  O  O196  1  0.59837344  0.12648783  0.08704127  1
  O  O197  1  0.60558495  0.11266893  0.58841813  1
  O  O198  1  0.61061474  0.60307641  0.06458605  1
  O  O199  1  0.60302388  0.59446484  0.57849517  1
  O  O200  1  0.93016250  0.13995531  0.08334341  1
  O  O201  1  0.92893004  0.11046206  0.57853819  1
  O  O202  1  0.95199877  0.61097239  0.08104489  1
  O  O203  1  0.94519374  0.60155553  0.58131283  1
  O  O204  1  0.10102737  0.37958501  0.08239474  1
  O  O205  1  0.12035633  0.36650098  0.58446668  1
  O  O206  1  0.11213030  0.86485388  0.08250951  1
  O  O207  1  0.11110909  0.87392486  0.58794128  1
  O  O208  1  0.43727382  0.35202030  0.08350752  1
  O  O209  1  0.44261703  0.35769771  0.58951646  1
  O  O210  1  0.43473651  0.87440545  0.08470878  1
  O  O211  1  0.43347212  0.85402586  0.57964023  1
  O  O212  1  0.76827343  0.37324456  0.08305613  1
  O  O213  1  0.76492049  0.35277053  0.57900460  1
  O  O214  1  0.75682293  0.87415507  0.07387986  1
  O  O215  1  0.79802686  0.85741210  0.58152335  1
  O  O216  1  0.26847896  0.37479532  0.08288767  1
  O  O217  1  0.28218669  0.38802028  0.58887785  1
  O  O218  1  0.27411044  0.88779265  0.08581458  1
  O  O219  1  0.27118377  0.87061606  0.58539078  1
  O  O220  1  0.60144716  0.37595816  0.08434839  1
  O  O221  1  0.60273321  0.37866466  0.58631720  1
  O  O222  1  0.59744114  0.88567612  0.08137873  1
  O  O223  1  0.61681552  0.91311605  0.57196978  1
  O  O224  1  0.93446296  0.37252790  0.08197207  1
  O  O225  1  0.95671275  0.39511612  0.57682171  1
  O  O226  1  0.94637463  0.87036345  0.07220944  1
  O  O227  1  0.95489083  0.90288208  0.59165987  1
  O  O228  1  0.09789103  0.12672113  0.08081549  1
  O  O229  1  0.12347467  0.12525143  0.57773517  1
  O  O230  1  0.11075172  0.62509171  0.07988617  1
  O  O231  1  0.12555321  0.63608717  0.57837757  1
  O  O232  1  0.43055975  0.12895455  0.07972207  1
  O  O233  1  0.45018142  0.15492780  0.59341152  1
  O  O234  1  0.43267653  0.64530860  0.07495167  1
  O  O235  1  0.44362663  0.62874581  0.58600453  1
  O  O236  1  0.76424571  0.13191901  0.08214623  1
  O  O237  1  0.76794565  0.13126312  0.58755255  1
  O  O238  1  0.79051425  0.63100410  0.07134062  1
  O  O239  1  0.79048832  0.64975414  0.57994394  1
  O  O240  1  0.06836592  0.09442289  0.42186483  1
  O  O241  1  0.06554236  0.13730156  0.91698348  1
  O  O242  1  0.06154006  0.61758873  0.41021544  1
  O  O243  1  0.05152123  0.61360532  0.91485867  1
  O  O244  1  0.39582859  0.13220618  0.41470103  1
  O  O245  1  0.39921712  0.12379793  0.91845745  1
  O  O246  1  0.39515924  0.61847938  0.41220391  1
  O  O247  1  0.40361285  0.60284552  0.92279727  1
  O  O248  1  0.72003502  0.12366061  0.41150176  1
  O  O249  1  0.72919650  0.10982984  0.91610482  1
  O  O250  1  0.72965498  0.61754056  0.41095035  1
  O  O251  1  0.72570199  0.62266272  0.91313130  1
  O  O252  1  0.22426649  0.37338082  0.41733036  1
  O  O253  1  0.22058732  0.36648476  0.91640642  1
  O  O254  1  0.21358158  0.85117800  0.40916844  1
  O  O255  1  0.24238534  0.87166725  0.92755777  1
  O  O256  1  0.54557227  0.36268864  0.41421546  1
  O  O257  1  0.57069162  0.34835650  0.92615966  1
  O  O258  1  0.55255656  0.84940319  0.41632026  1
  O  O259  1  0.56499864  0.87408777  0.91529840  1
  O  O260  1  0.88240997  0.34876463  0.42724993  1
  O  O261  1  0.89642436  0.37878690  0.91892523  1
  O  O262  1  0.90258667  0.85846779  0.42386480  1
  O  O263  1  0.88662785  0.86210197  0.91388950  1
  O  O264  1  0.06163405  0.40627681  0.42000511  1
  O  O265  1  0.05980840  0.37339541  0.91775157  1
  O  O266  1  0.05925077  0.88605698  0.41392907  1
  O  O267  1  0.05209366  0.87016357  0.92556651  1
  O  O268  1  0.38612557  0.38269409  0.41484375  1
  O  O269  1  0.38481363  0.38154040  0.92908843  1
  O  O270  1  0.37361193  0.88558643  0.42078892  1
  O  O271  1  0.40200510  0.88722706  0.92055787  1
  O  O272  1  0.70337753  0.39485952  0.41947988  1
  O  O273  1  0.73317442  0.37408850  0.91843318  1
  O  O274  1  0.71589910  0.87408043  0.42234638  1
  O  O275  1  0.72599899  0.88496498  0.91463340  1
  O  O276  1  0.23192394  0.12538551  0.41767222  1
  O  O277  1  0.23234190  0.13116618  0.91965761  1
  O  O278  1  0.22808912  0.63684532  0.41136874  1
  O  O279  1  0.21671166  0.62453373  0.92670182  1
  O  O280  1  0.55958521  0.14347881  0.41966118  1
  O  O281  1  0.56475261  0.13236154  0.91738921  1
  O  O282  1  0.56340346  0.62168828  0.41159595  1
  O  O283  1  0.56023690  0.64330785  0.91369348  1
  O  O284  1  0.88401513  0.14190659  0.42355993  1
  O  O285  1  0.89649686  0.12601954  0.91904318  1
  O  O286  1  0.89532103  0.64328761  0.41100215  1
  O  O287  1  0.89052636  0.62354405  0.91483974  1
  O  O288  1  0.17274826  -0.00071182  0.08487542  1
  O  O289  1  0.19770818  -0.00334501  0.58809754  1
  O  O290  1  0.18915415  0.49934758  0.08329336  1
  O  O291  1  0.18025303  0.49920618  0.58541179  1
  O  O292  1  0.50902099  0.00351854  0.08417482  1
  O  O293  1  0.47773914  0.01654484  0.58319615  1
  O  O294  1  0.48882504  0.48336503  0.07359883  1
  O  O295  1  0.49469695  0.49168650  0.58920546  1
  O  O296  1  0.85260630  0.01457267  0.07089365  1
  O  O297  1  0.83006557  -0.00157728  0.58967650  1
  O  O298  1  0.85416025  0.49698775  0.07981737  1
  O  O299  1  0.81757340  0.50931900  0.58152136  1
  O  O300  1  0.02550211  0.25365074  0.08309476  1
  O  O301  1  0.01140889  0.25981780  0.58082906  1
  O  O302  1  0.02312377  0.74449292  0.08196941  1
  O  O303  1  0.00406940  0.76477498  0.57796658  1
  O  O304  1  0.33223010  0.24578131  0.08141606  1
  O  O305  1  0.33233178  0.25166007  0.59069421  1
  O  O306  1  0.33394717  0.75619161  0.08517984  1
  O  O307  1  0.33819154  0.74119372  0.58770342  1
  O  O308  1  0.67845522  0.25197057  0.08067412  1
  O  O309  1  0.66154318  0.24494279  0.58953104  1
  O  O310  1  0.66448079  0.75758486  0.07332321  1
  O  O311  1  0.64342941  0.75306124  0.56912931  1
  O  O312  1  0.17503433  -0.00889727  0.40989108  1
  O  O313  1  0.14590013  0.01287437  0.92964505  1
  O  O314  1  0.17180856  0.50697440  0.41132754  1
  O  O315  1  0.14355256  0.49545183  0.91887930  1
  O  O316  1  0.49212288  0.01419756  0.42706277  1
  O  O317  1  0.49432848  0.00394294  0.91938634  1
  O  O318  1  0.48188558  0.49784447  0.41332002  1
  O  O319  1  0.52370783  0.50563583  0.91925748  1
  O  O320  1  0.82020807  0.01027855  0.42435721  1
  O  O321  1  0.82847855  -0.00347114  0.91442476  1
  O  O322  1  0.84033755  0.51145440  0.42105189  1
  O  O323  1  0.80974802  0.50000500  0.91531539  1
  O  O324  1  0.31211897  0.25355301  0.41828643  1
  O  O325  1  0.31955170  0.24995389  0.91904442  1
  O  O326  1  0.32804705  0.74820334  0.41172772  1
  O  O327  1  0.33863566  0.75667081  0.92599639  1
  O  O328  1  0.65551737  0.25645004  0.41885328  1
  O  O329  1  0.67453943  0.24210618  0.91593013  1
  O  O330  1  0.65533451  0.74184180  0.41276324  1
  O  O331  1  0.65987174  0.75421557  0.91437464  1
  O  O332  1  1.03092018  0.24890580  0.42225233  1
  O  O333  1  0.97016677  0.25205916  0.91502730  1
  O  O334  1  1.00601518  0.74969669  0.40982130  1
  O  O335  1  0.97823621  0.74351826  0.91494592  1
  O  O336  1  0.19692301  0.08290294  0.19321010  1
  O  O337  1  0.21547571  0.08171128  0.69679714  1
  O  O338  1  0.21210276  0.58242233  0.19262378  1
  O  O339  1  0.21078490  0.58179259  0.69549629  1
  O  O340  1  0.53022594  0.08503553  0.19365028  1
  O  O341  1  0.54206398  0.08631120  0.69777844  1
  O  O342  1  0.54182507  0.58166426  0.19611779  1
  O  O343  1  0.54261726  0.57872468  0.69518552  1
  O  O344  1  0.87399329  0.08496095  0.19016034  1
  O  O345  1  0.87464042  0.08324123  0.69522633  1
  O  O346  1  0.88023135  0.58298248  0.18888664  1
  O  O347  1  0.87564099  0.58531699  0.69195619  1
  O  O348  1  0.04480018  0.33686014  0.19297301  1
  O  O349  1  0.04761807  0.34443018  0.69056466  1
  O  O350  1  0.04543364  0.83355960  0.19006428  1
  O  O351  1  0.04583194  0.83415915  0.69590458  1
  O  O352  1  0.37218510  0.33363536  0.19326888  1
  O  O353  1  0.37795580  0.33185810  0.69939634  1
  O  O354  1  0.37518609  0.83300701  0.19476580  1
  O  O355  1  0.37307812  0.82982920  0.69582671  1
  O  O356  1  0.71056973  0.33149583  0.19336342  1
  O  O357  1  0.70607756  0.33166103  0.69530044  1
  O  O358  1  0.70405653  0.83290279  0.18904534  1
  O  O359  1  0.71205668  0.83436006  0.69771366  1
  O  O360  1  0.20878535  0.41686755  0.19302407  1
  O  O361  1  0.21664894  0.42017339  0.69755924  1
  O  O362  1  0.20799160  0.91557201  0.19444795  1
  O  O363  1  0.21660962  0.91578037  0.69818141  1
  O  O364  1  0.53256101  0.41284562  0.19105236  1
  O  O365  1  0.54467995  0.41223517  0.69788504  1
  O  O366  1  0.54162783  0.91717104  0.19400155  1
  O  O367  1  0.54476206  0.92055803  0.69966340  1
  O  O368  1  0.87829778  0.41790412  0.19123735  1
  O  O369  1  0.87632110  0.41640257  0.69979563  1
  O  O370  1  0.87958331  0.91782733  0.19744260  1
  O  O371  1  0.87963505  0.91663964  0.69705240  1
  O  O372  1  0.04358868  0.16849054  0.19297578  1
  O  O373  1  0.05203441  0.15682172  0.69980846  1
  O  O374  1  0.05028139  0.66077825  0.19069152  1
  O  O375  1  0.04837764  0.66836456  0.70288780  1
  O  O376  1  0.37860001  0.17021816  0.19215799  1
  O  O377  1  0.37882645  0.16894075  0.70089113  1
  O  O378  1  0.37550980  0.66762156  0.19163092  1
  O  O379  1  0.38090644  0.66275019  0.69750197  1
  O  O380  1  0.71092226  0.17402343  0.19370611  1
  O  O381  1  0.70761194  0.16438522  0.69775100  1
  O  O382  1  0.71191987  0.66576035  0.19802742  1
  O  O383  1  0.70917801  0.66597016  0.69892467  1
  O  O384  1  0.12568667  0.08222076  0.30625149  1
  O  O385  1  0.12682422  0.08324779  0.81106470  1
  O  O386  1  0.12646128  0.58498098  0.30189366  1
  O  O387  1  0.12384919  0.58093849  0.80898095  1
  O  O388  1  0.46654385  0.08566829  0.31052452  1
  O  O389  1  0.45916617  0.08497012  0.80869988  1
  O  O390  1  0.45426073  0.58152224  0.30261901  1
  O  O391  1  0.46182115  0.58274766  0.80821238  1
  O  O392  1  0.80011492  0.08457385  0.30899591  1
  O  O393  1  0.79148297  0.08261134  0.80641721  1
  O  O394  1  0.79564934  0.58485460  0.30373854  1
  O  O395  1  0.78861900  0.58061878  0.80389439  1
  O  O396  1  0.28370539  0.33824579  0.30609462  1
  O  O397  1  0.29723128  0.33411886  0.81123784  1
  O  O398  1  0.28837084  0.83024286  0.30325919  1
  O  O399  1  0.29591993  0.83524889  0.81227784  1
  O  O400  1  0.61688191  0.33408325  0.30616299  1
  O  O401  1  0.62726804  0.32998270  0.80950236  1
  O  O402  1  0.62272017  0.82889261  0.30529650  1
  O  O403  1  0.62701716  0.83360295  0.80476778  1
  O  O404  1  0.95566883  0.33507298  0.29810929  1
  O  O405  1  0.95050376  0.33911494  0.80724373  1
  O  O406  1  0.95636698  0.83554305  0.30539706  1
  O  O407  1  0.95684216  0.83168455  0.80690653  1
  O  O408  1  0.12492985  0.41942013  0.30528631  1
  O  O409  1  0.11856400  0.41870662  0.80682639  1
  O  O410  1  0.12044008  0.91328183  0.30161467  1
  O  O411  1  0.12350762  0.91767217  0.80189660  1
  O  O412  1  0.45136441  0.41681949  0.30375825  1
  O  O413  1  0.45767755  0.41510646  0.80350851  1
  O  O414  1  0.45206381  0.91669871  0.29971842  1
  O  O415  1  0.45625157  0.92352507  0.80867492  1
  O  O416  1  0.79257124  0.41874811  0.29859134  1
  O  O417  1  0.78741465  0.41518677  0.80649675  1
  O  O418  1  0.78730719  0.91529876  0.29865793  1
  O  O419  1  0.79084655  0.91749997  0.80422598  1
  O  O420  1  0.28108383  0.17456061  0.30745987  1
  O  O421  1  0.29427993  0.16513610  0.80892951  1
  O  O422  1  0.29209937  0.66487073  0.30178385  1
  O  O423  1  0.28916894  0.66577502  0.80164128  1
  O  O424  1  0.61610200  0.17832436  0.30663620  1
  O  O425  1  0.62578711  0.16373220  0.80724471  1
  O  O426  1  0.62163013  0.66387487  0.30218801  1
  O  O427  1  0.62445515  0.66789846  0.80428224  1
  O  O428  1  0.95601166  0.16619246  0.29721390  1
  O  O429  1  0.95035140  0.16087652  0.80770462  1
  O  O430  1  0.95803761  0.66502999  0.30059401  1
  O  O431  1  0.95218019  0.66440254  0.80439583  1
  F  F432  1  0.04455635  0.00022858  0.20106756  1
  F  F433  1  0.04686288  0.00070367  0.70452945  1
  F  F434  1  0.04780852  0.49927309  0.19987275  1
  F  F435  1  0.04717620  0.50247741  0.70338715  1
  F  F436  1  0.37832458  -0.00726719  0.19610206  1
  F  F437  1  0.37897559  0.00137569  0.70576263  1
  F  F438  1  0.37549248  0.49832150  0.19961634  1
  F  F439  1  0.37907148  0.50021716  0.70600282  1
  F  F440  1  0.71258327  -0.00542687  0.19606116  1
  F  F441  1  0.71302873  0.00159530  0.70399993  1
  F  F442  1  0.71540365  0.50541713  0.19495492  1
  F  F443  1  0.71001979  0.49714553  0.70254887  1
  F  F444  1  0.20208223  0.25169987  0.19691236  1
  F  F445  1  0.21892832  0.24550948  0.70248842  1
  F  F446  1  0.21363556  0.74897884  0.19844124  1
  F  F447  1  0.21373036  0.75312641  0.70640000  1
  F  F448  1  0.54352011  0.25131957  0.19937282  1
  F  F449  1  0.54588425  0.25004562  0.70764624  1
  F  F450  1  0.54280964  0.75166645  0.20102037  1
  F  F451  1  0.54448615  0.74490316  0.70023260  1
  F  F452  1  0.87570661  0.25170000  0.19795775  1
  F  F453  1  0.86444485  0.24866616  0.69839523  1
  F  F454  1  0.87541000  0.75127264  0.19781919  1
  F  F455  1  0.88211514  0.75078774  0.70327884  1
  F  F456  1  0.28090977  -0.00994885  0.30093404  1
  F  F457  1  0.29038910  0.00066531  0.80155026  1
  F  F458  1  0.28828967  0.50064124  0.29562590  1
  F  F459  1  0.28791003  0.50036460  0.80226043  1
  F  F460  1  0.61486308  -0.01141577  0.30126660  1
  F  F461  1  0.62393709  0.00238326  0.80156420  1
  F  F462  1  0.62008728  0.50176225  0.29648072  1
  F  F463  1  0.62431698  0.49901191  0.79833499  1
  F  F464  1  0.95637473  0.00114112  0.29625040  1
  F  F465  1  0.95502166  -0.00001941  0.79920078  1
  F  F466  1  0.95654004  0.50334487  0.29333828  1
  F  F467  1  0.95369301  0.50342498  0.79740805  1
  F  F468  1  0.11889456  0.25178578  0.29599620  1
  F  F469  1  0.13689975  0.24799504  0.80751703  1
  F  F470  1  0.12739779  0.74790932  0.29605424  1
  F  F471  1  0.12342620  0.75220865  0.80330948  1
  F  F472  1  0.45345115  0.25279856  0.29843317  1
  F  F473  1  0.45700134  0.24842959  0.80359574  1
  F  F474  1  0.45380322  0.74620448  0.29586811  1
  F  F475  1  0.45611358  0.74605573  0.80145108  1
  F  F476  1  0.78663143  0.25094536  0.29740529  1
  F  F477  1  0.78773843  0.24914128  0.80001166  1
  F  F478  1  0.78879415  0.75162412  0.29552849  1
  F  F479  1  0.79060584  0.74945007  0.79853527  1
