# generated using pymatgen
data_K24Na3Li5Mg64Fe17Si79(O5F)48
_symmetry_space_group_name_H-M   'P 1'
_cell_length_a   16.09024427
_cell_length_b   18.56882870
_cell_length_c   20.54580068
_cell_angle_alpha   89.98855782
_cell_angle_beta   100.00190490
_cell_angle_gamma   90.01566574
_symmetry_Int_Tables_number   1
_chemical_formula_structural   K24Na3Li5Mg64Fe17Si79(O5F)48
_chemical_formula_sum   'K24 Na3 Li5 Mg64 Fe17 Si79 O240 F48'
_cell_volume   6045.31741732
_cell_formula_units_Z   1
loop_
 _symmetry_equiv_pos_site_id
 _symmetry_equiv_pos_as_xyz
  1  'x, y, z'
loop_
 _atom_site_type_symbol
 _atom_site_label
 _atom_site_symmetry_multiplicity
 _atom_site_fract_x
 _atom_site_fract_y
 _atom_site_fract_z
 _atom_site_occupancy
  K  K0  1  -0.00106048  0.00510182  -0.00048136  1
  K  K1  1  0.00369759  0.00659533  0.49563106  1
  K  K2  1  -0.00636485  0.49957538  -0.00210840  1
  K  K3  1  -0.00369242  0.50658610  0.50048633  1
  K  K4  1  0.33320520  0.00564974  -0.00062377  1
  K  K5  1  0.33086411  0.01092851  0.49929124  1
  K  K6  1  0.33750996  0.49826665  -0.00002796  1
  K  K7  1  0.33785734  0.50042953  0.50642957  1
  K  K8  1  0.67981399  -0.00041550  0.00089782  1
  K  K9  1  0.66866491  0.00442088  0.50249075  1
  K  K10  1  0.66258382  0.50397137  -0.00453426  1
  K  K11  1  0.66060421  0.50447947  0.50277328  1
  K  K12  1  0.16231355  0.25062284  0.00441032  1
  K  K13  1  0.16938651  0.25010619  0.49371175  1
  K  K14  1  0.16433234  0.75312632  -0.00463516  1
  K  K15  1  0.16701108  0.74285334  0.50225407  1
  K  K16  1  0.50171669  0.24683910  0.00298650  1
  K  K17  1  0.48776129  0.24699268  0.50272019  1
  K  K18  1  0.49933283  0.73711743  -0.00471555  1
  K  K19  1  0.50990526  0.74187813  0.50424510  1
  K  K20  1  0.82513702  0.25349769  0.00548728  1
  K  K21  1  0.83311064  0.25548562  0.49387663  1
  K  K22  1  0.82243609  0.74908405  -0.00891046  1
  K  K23  1  0.83924003  0.73482851  0.50572284  1
  Na  Na24  1  0.49747601  0.49907123  0.23906270  1
  Na  Na25  1  0.83366764  0.33070476  0.24442838  1
  Na  Na26  1  0.32994238  0.08162112  0.74147591  1
  Li  Li27  1  0.83410462  0.50807754  0.75152304  1
  Li  Li28  1  -0.00847459  0.74441125  0.75089534  1
  Li  Li29  1  0.16792499  0.32546182  0.25250315  1
  Li  Li30  1  0.83861679  0.66380043  0.74826747  1
  Li  Li31  1  0.16708996  0.17262248  0.25781413  1
  Mg  Mg32  1  0.33361492  0.24840638  0.74480187  1
  Mg  Mg33  1  0.16790951  0.00425737  0.25542956  1
  Mg  Mg34  1  0.66738376  0.74826196  0.24832890  1
  Mg  Mg35  1  0.00697060  0.25089868  0.25497970  1
  Mg  Mg36  1  0.00158397  0.74947280  0.25709348  1
  Mg  Mg37  1  0.50010111  -0.00054092  0.24590001  1
  Mg  Mg38  1  0.83517111  0.00269216  0.25104459  1
  Mg  Mg39  1  0.32835930  0.25043499  0.24705432  1
  Mg  Mg40  1  0.16701113  0.50253026  0.74702295  1
  Mg  Mg41  1  0.33343968  0.74966157  0.24869833  1
  Mg  Mg42  1  0.33117586  0.74876784  0.74862594  1
  Mg  Mg43  1  0.66965410  0.74755281  0.75134433  1
  Mg  Mg44  1  0.16350376  -0.00169344  0.75218717  1
  Mg  Mg45  1  0.83439501  0.49736971  0.24961410  1
  Mg  Mg46  1  0.16863773  0.49482841  0.25290868  1
  Mg  Mg47  1  0.83176549  -0.00063086  0.75481376  1
  Mg  Mg48  1  0.49869536  0.00059891  0.74525778  1
  Mg  Mg49  1  0.66791941  0.25047421  0.74872605  1
  Mg  Mg50  1  0.66776375  0.24915612  0.24533770  1
  Mg  Mg51  1  0.49993109  0.50158134  0.74672213  1
  Mg  Mg52  1  -0.00150905  0.25055905  0.75288870  1
  Mg  Mg53  1  -0.00151045  0.08469656  0.75558238  1
  Mg  Mg54  1  0.49705094  0.33279725  0.24337109  1
  Mg  Mg55  1  -0.00103271  0.41934098  0.75053465  1
  Mg  Mg56  1  0.67064354  0.91467819  0.75276013  1
  Mg  Mg57  1  0.16806435  0.66434040  0.25598836  1
  Mg  Mg58  1  0.16500872  0.16455628  0.74915837  1
  Mg  Mg59  1  0.33275837  0.91578445  0.24974317  1
  Mg  Mg60  1  0.33272721  0.58167133  0.24868175  1
  Mg  Mg61  1  0.00212446  0.58385883  0.25598568  1
  Mg  Mg62  1  -0.00285069  0.91246881  0.75529135  1
  Mg  Mg63  1  0.00271832  0.41451982  0.25110670  1
  Mg  Mg64  1  0.33295483  0.41519473  0.74533698  1
  Mg  Mg65  1  0.83590581  0.82921819  0.75536624  1
  Mg  Mg66  1  0.66400590  0.41483503  0.24385628  1
  Mg  Mg67  1  0.49804215  0.16658513  0.74420280  1
  Mg  Mg68  1  0.33149601  0.91677669  0.74940865  1
  Mg  Mg69  1  0.16641220  0.33422168  0.74631887  1
  Mg  Mg70  1  0.16515435  0.66640672  0.75040759  1
  Mg  Mg71  1  -0.00334673  0.58481096  0.75056939  1
  Mg  Mg72  1  0.83543713  0.83461682  0.25478208  1
  Mg  Mg73  1  0.49780172  0.33406681  0.74354735  1
  Mg  Mg74  1  0.66620708  0.58203694  0.24836779  1
  Mg  Mg75  1  0.66855757  0.41943453  0.74530721  1
  Mg  Mg76  1  0.16274236  0.83104515  0.75251729  1
  Mg  Mg77  1  0.66386221  0.08555102  0.24476939  1
  Mg  Mg78  1  0.83557038  0.16623434  0.75466629  1
  Mg  Mg79  1  0.50023016  0.83410502  0.75058682  1
  Mg  Mg80  1  0.83529541  0.33817492  0.75126074  1
  Mg  Mg81  1  0.66526369  0.91609237  0.24769478  1
  Mg  Mg82  1  0.33107333  0.08596996  0.25054986  1
  Mg  Mg83  1  0.00356006  0.91767619  0.25826413  1
  Mg  Mg84  1  0.33188558  0.58573628  0.74716549  1
  Mg  Mg85  1  0.83640153  0.66512817  0.25345974  1
  Mg  Mg86  1  0.83217554  0.16819980  0.24857751  1
  Mg  Mg87  1  0.16841743  0.83528175  0.25470057  1
  Mg  Mg88  1  0.49691830  0.16386692  0.24339969  1
  Mg  Mg89  1  0.66912645  0.08341902  0.75072549  1
  Mg  Mg90  1  0.49934867  0.66389184  0.74831088  1
  Mg  Mg91  1  0.33166887  0.41326029  0.24690580  1
  Mg  Mg92  1  0.66985551  0.58434073  0.74733230  1
  Mg  Mg93  1  0.00502668  0.08811833  0.25486046  1
  Mg  Mg94  1  0.49688668  0.83344601  0.24686603  1
  Mg  Mg95  1  0.49764321  0.66541455  0.24605659  1
  Fe  Fe96  1  0.35282501  0.33195111  0.10590810  1
  Fe  Fe97  1  0.35176180  0.83144550  0.10951657  1
  Fe  Fe98  1  0.35364488  0.33203708  0.60470790  1
  Fe  Fe99  1  0.52809989  0.58611566  0.60739507  1
  Fe  Fe100  1  0.69238897  0.16435786  0.10394385  1
  Fe  Fe101  1  0.30567731  0.67027747  0.89098810  1
  Fe  Fe102  1  0.80862988  0.08537968  0.89405840  1
  Fe  Fe103  1  0.81522784  0.91126056  0.89419261  1
  Fe  Fe104  1  0.51991663  0.07496240  0.10474021  1
  Fe  Fe105  1  0.47282102  0.57597310  0.88862331  1
  Fe  Fe106  1  0.18596780  0.58737064  0.60769740  1
  Fe  Fe107  1  0.97575500  0.66483134  0.39561013  1
  Fe  Fe108  1  0.68865007  0.33959511  0.10398575  1
  Fe  Fe109  1  0.97684988  0.17604501  0.89525306  1
  Fe  Fe110  1  0.14531703  0.08808505  0.39507970  1
  Fe  Fe111  1  0.52180634  0.58899512  0.10715472  1
  Fe  Fe112  1  0.35304899  0.16021756  0.60268931  1
  Si  Si113  1  0.97478985  0.83771559  0.39327872  1
  Si  Si114  1  0.63574017  0.83550413  0.88793438  1
  Si  Si115  1  0.02088918  0.66995516  0.61484746  1
  Si  Si116  1  0.63788227  0.33191512  0.38327530  1
  Si  Si117  1  0.97503537  0.33764743  0.38722577  1
  Si  Si118  1  0.97986670  0.82393198  0.89100667  1
  Si  Si119  1  0.86746547  0.42213172  0.11155859  1
  Si  Si120  1  0.80313482  0.41623397  0.38365127  1
  Si  Si121  1  0.02517866  0.33027697  0.61426741  1
  Si  Si122  1  0.80657138  0.92097056  0.38743421  1
  Si  Si123  1  0.03141235  0.16937908  0.12098789  1
  Si  Si124  1  0.80143570  0.57994152  0.38880521  1
  Si  Si125  1  0.18424307  0.41819271  0.60881849  1
  Si  Si126  1  0.86674326  0.58626516  0.11643332  1
  Si  Si127  1  0.64118039  0.66856100  0.88668329  1
  Si  Si128  1  0.86288345  0.58028264  0.61595990  1
  Si  Si129  1  0.13819719  0.58428115  0.88662905  1
  Si  Si130  1  0.80400756  0.08669615  0.38563022  1
  Si  Si131  1  0.02890539  0.83367819  0.12119874  1
  Si  Si132  1  0.63625631  0.16611387  0.88227791  1
  Si  Si133  1  0.35508232  0.84008721  0.61399365  1
  Si  Si134  1  0.69551678  0.16770558  0.61366610  1
  Si  Si135  1  0.47451811  0.58450022  0.38300328  1
  Si  Si136  1  0.17920119  0.07545753  0.61297135  1
  Si  Si137  1  0.63781894  0.16695854  0.38370986  1
  Si  Si138  1  0.18294750  0.91214938  0.61555618  1
  Si  Si139  1  0.86368504  0.41562684  0.61389250  1
  Si  Si140  1  0.52171113  0.41597871  0.10562199  1
  Si  Si141  1  0.18812816  0.92227260  0.11670135  1
  Si  Si142  1  0.47692069  0.40736604  0.88350279  1
  Si  Si143  1  0.31058560  0.83039533  0.38831200  1
  Si  Si144  1  0.03166046  0.66944762  0.11973049  1
  Si  Si145  1  0.47373007  0.92379296  0.88350975  1
  Si  Si146  1  0.97407069  0.65923532  0.88425644  1
  Si  Si147  1  0.47617375  0.08178773  0.38519103  1
  Si  Si148  1  0.30522787  0.32976957  0.88240089  1
  Si  Si149  1  0.31230773  0.83961645  0.88641671  1
  Si  Si150  1  0.47410234  0.08804015  0.87954771  1
  Si  Si151  1  0.97824537  0.34510814  0.88809216  1
  Si  Si152  1  0.18862330  0.58026032  0.11825579  1
  Si  Si153  1  0.31298264  0.33594872  0.38495734  1
  Si  Si154  1  0.14681361  0.91514504  0.39327701  1
  Si  Si155  1  0.53187566  0.07944952  0.60907038  1
  Si  Si156  1  0.70008260  0.66791033  0.11330112  1
  Si  Si157  1  0.14815486  0.57849707  0.39145600  1
  Si  Si158  1  0.31204560  0.66452910  0.38732706  1
  Si  Si159  1  0.80492259  0.58675837  0.88331326  1
  Si  Si160  1  0.35835592  0.67424392  0.60679183  1
  Si  Si161  1  0.69880907  0.83487336  0.11657239  1
  Si  Si162  1  0.01912356  0.83336073  0.61809996  1
  Si  Si163  1  0.34637198  0.66632721  0.11214110  1
  Si  Si164  1  0.30409707  0.16556855  0.88206485  1
  Si  Si165  1  0.86519392  0.91750727  0.12035006  1
  Si  Si166  1  0.14145416  0.91366916  0.88756328  1
  Si  Si167  1  0.18830390  0.41884171  0.11438331  1
  Si  Si168  1  0.69895407  0.33331765  0.61261163  1
  Si  Si169  1  0.85812532  0.91942324  0.61668962  1
  Si  Si170  1  0.64392950  0.33042288  0.88022107  1
  Si  Si171  1  0.97035131  0.17081905  0.39109487  1
  Si  Si172  1  0.87040897  0.08385653  0.11663504  1
  Si  Si173  1  0.14457958  0.41319631  0.38751907  1
  Si  Si174  1  0.14162429  0.08058169  0.88983081  1
  Si  Si175  1  0.18959723  0.08281864  0.11950228  1
  Si  Si176  1  0.47534585  0.91621232  0.38597485  1
  Si  Si177  1  0.69535483  0.83175540  0.61514016  1
  Si  Si178  1  0.52457741  0.90488176  0.11038373  1
  Si  Si179  1  0.80477894  0.42094210  0.88296279  1
  Si  Si180  1  0.34972277  0.16235974  0.10897709  1
  Si  Si181  1  0.85905708  0.08341974  0.61573184  1
  Si  Si182  1  0.31717289  0.17106770  0.38794261  1
  Si  Si183  1  0.63950026  0.66862557  0.38517857  1
  Si  Si184  1  0.69906047  0.66721024  0.61145603  1
  Si  Si185  1  0.52861964  0.91293308  0.61380624  1
  Si  Si186  1  0.02768167  0.33310822  0.11722117  1
  Si  Si187  1  0.47534239  0.41769469  0.38316169  1
  Si  Si188  1  0.14555997  0.42141069  0.88274021  1
  Si  Si189  1  0.02235909  0.16543986  0.61475830  1
  Si  Si190  1  0.64208780  0.83425790  0.38573964  1
  Si  Si191  1  0.53000160  0.41320329  0.60738116  1
  O  O192  1  0.27173634  0.10271259  0.08595456  1
  O  O193  1  0.25975195  0.09604229  0.58060748  1
  O  O194  1  0.27333339  0.60269846  0.08945240  1
  O  O195  1  0.27763084  0.62643049  0.57305170  1
  O  O196  1  0.61253936  0.09689624  0.06768212  1
  O  O197  1  0.61255134  0.11967780  0.58217712  1
  O  O198  1  0.62076609  0.62286264  0.07617748  1
  O  O199  1  0.61572662  0.62932421  0.56978546  1
  O  O200  1  0.95737398  0.11083552  0.09138854  1
  O  O201  1  0.93647129  0.11945988  0.58434462  1
  O  O202  1  0.94798075  0.62242780  0.08924659  1
  O  O203  1  0.93963905  0.61752295  0.58376607  1
  O  O204  1  0.10893007  0.36350830  0.08675165  1
  O  O205  1  0.10720009  0.35764563  0.58468860  1
  O  O206  1  0.10737140  0.86757853  0.09058770  1
  O  O207  1  0.10302545  0.85859334  0.58597566  1
  O  O208  1  0.45084807  0.35620622  0.07327375  1
  O  O209  1  0.45516913  0.35883347  0.57617649  1
  O  O210  1  0.45838361  0.84073112  0.08423109  1
  O  O211  1  0.43454507  0.87852088  0.58455600  1
  O  O212  1  0.78704239  0.37748504  0.07594871  1
  O  O213  1  0.77960384  0.36696985  0.58265769  1
  O  O214  1  0.77990580  0.87176722  0.09025013  1
  O  O215  1  0.76784428  0.87947476  0.58597436  1
  O  O216  1  0.26426063  0.39819820  0.07573193  1
  O  O217  1  0.26442457  0.39716228  0.57480894  1
  O  O218  1  0.26680883  0.90158927  0.08120197  1
  O  O219  1  0.26819788  0.88694002  0.58622963  1
  O  O220  1  0.60534577  0.40723328  0.07095910  1
  O  O221  1  0.61708935  0.38137417  0.58201990  1
  O  O222  1  0.61621572  0.88285243  0.08712578  1
  O  O223  1  0.60100927  0.86578350  0.58382221  1
  O  O224  1  0.95006872  0.38700326  0.08421493  1
  O  O225  1  0.94207755  0.37902829  0.58237600  1
  O  O226  1  0.94367128  0.87941783  0.09216015  1
  O  O227  1  0.93755617  0.88512962  0.58602255  1
  O  O228  1  0.11531681  0.14164304  0.09210375  1
  O  O229  1  0.09752859  0.12780700  0.58232385  1
  O  O230  1  0.11205445  0.63785550  0.08962662  1
  O  O231  1  0.09681250  0.65105876  0.57569418  1
  O  O232  1  0.42709400  0.13570833  0.07356084  1
  O  O233  1  0.44661459  0.11522172  0.57076021  1
  O  O234  1  0.42899797  0.65102792  0.07971274  1
  O  O235  1  0.43902131  0.64924783  0.57457409  1
  O  O236  1  0.79477976  0.13195321  0.07913308  1
  O  O237  1  0.77436594  0.13012062  0.58427202  1
  O  O238  1  0.78573694  0.63737521  0.08709143  1
  O  O239  1  0.77881953  0.62743368  0.58434692  1
  O  O240  1  0.05352557  0.13030583  0.42908835  1
  O  O241  1  0.07061304  0.11487882  0.92676297  1
  O  O242  1  0.07592811  0.61412383  0.42667000  1
  O  O243  1  0.04938478  0.60142757  0.91458696  1
  O  O244  1  0.40477132  0.12428960  0.41757385  1
  O  O245  1  0.38977554  0.11747189  0.90671276  1
  O  O246  1  0.39884195  0.62066431  0.41733203  1
  O  O247  1  0.38638471  0.60628000  0.92991197  1
  O  O248  1  0.72725465  0.12646998  0.41546772  1
  O  O249  1  0.70242234  0.10736272  0.91667382  1
  O  O250  1  0.72328374  0.62231938  0.41664256  1
  O  O251  1  0.73246394  0.62907719  0.91668139  1
  O  O252  1  0.23044066  0.36598348  0.41536892  1
  O  O253  1  0.22627128  0.36839122  0.91162974  1
  O  O254  1  0.23129722  0.86354294  0.41928834  1
  O  O255  1  0.22931352  0.87088999  0.91519117  1
  O  O256  1  0.56436205  0.37504268  0.41501592  1
  O  O257  1  0.55857479  0.35342565  0.90822300  1
  O  O258  1  0.56482569  0.87405202  0.41583913  1
  O  O259  1  0.55070123  0.86878966  0.91350612  1
  O  O260  1  0.89689333  0.38093873  0.41425872  1
  O  O261  1  0.89562425  0.38200100  0.91405561  1
  O  O262  1  0.89850724  0.88588160  0.41815659  1
  O  O263  1  0.90567822  0.84863133  0.93016077  1
  O  O264  1  0.06549718  0.37741092  0.41983193  1
  O  O265  1  0.05975560  0.39972378  0.91166015  1
  O  O266  1  0.06492845  0.87890550  0.42031197  1
  O  O267  1  0.06698105  0.87235540  0.91883444  1
  O  O268  1  0.39628997  0.38595265  0.41665299  1
  O  O269  1  0.39436147  0.37089058  0.91005540  1
  O  O270  1  0.39862467  0.87556600  0.41600780  1
  O  O271  1  0.38794853  0.89975080  0.91070877  1
  O  O272  1  0.73140705  0.36737256  0.41321648  1
  O  O273  1  0.72630953  0.38066146  0.91160473  1
  O  O274  1  0.73008834  0.87795076  0.41610656  1
  O  O275  1  0.71570466  0.88052611  0.92497302  1
  O  O276  1  0.24510945  0.13958999  0.42589538  1
  O  O277  1  0.23168717  0.12347548  0.91518713  1
  O  O278  1  0.23610558  0.62493038  0.41719159  1
  O  O279  1  0.20527929  0.64284388  0.92134242  1
  O  O280  1  0.56682645  0.12083555  0.41560569  1
  O  O281  1  0.54674685  0.14739128  0.90824173  1
  O  O282  1  0.55984701  0.63179406  0.41322754  1
  O  O283  1  0.57055665  0.63033684  0.92108001  1
  O  O284  1  0.88911729  0.13104473  0.41828859  1
  O  O285  1  0.88304801  0.15620152  0.93124919  1
  O  O286  1  0.88714139  0.61699771  0.42692169  1
  O  O287  1  0.89270717  0.62928272  0.91635846  1
  O  O288  1  0.15416290  0.00304135  0.09082030  1
  O  O289  1  0.15200458  -0.00783743  0.58700731  1
  O  O290  1  0.15463932  0.50159234  0.08900156  1
  O  O291  1  0.14677585  0.49495510  0.57924264  1
  O  O292  1  0.48950357  -0.02035243  0.07634226  1
  O  O293  1  0.53479028  -0.00575507  0.58319105  1
  O  O294  1  0.48268800  0.49617073  0.08540922  1
  O  O295  1  0.51344192  0.49200363  0.57279838  1
  O  O296  1  0.85610154  -0.00118357  0.09104730  1
  O  O297  1  0.84487432  0.00160197  0.58500247  1
  O  O298  1  0.85755612  0.50660646  0.08228102  1
  O  O299  1  0.84992714  0.49763500  0.58335692  1
  O  O300  1  0.00891402  0.25013263  0.08856339  1
  O  O301  1  0.00493690  0.24769427  0.58558480  1
  O  O302  1  0.01476155  0.75174841  0.09159522  1
  O  O303  1  -0.00955479  0.75302164  0.59071190  1
  O  O304  1  0.31438040  0.23913922  0.07803864  1
  O  O305  1  0.32487686  0.24639915  0.56008372  1
  O  O306  1  0.30161782  0.74189069  0.08558268  1
  O  O307  1  0.33926866  0.76007001  0.58132057  1
  O  O308  1  0.66444701  0.25169293  0.06213685  1
  O  O309  1  0.68601923  0.25002796  0.58307130  1
  O  O310  1  0.69103654  0.75289608  0.08698409  1
  O  O311  1  0.69927371  0.75176182  0.58260150  1
  O  O312  1  0.16404679  -0.00807268  0.42911173  1
  O  O313  1  0.15493559  -0.00387132  0.91650203  1
  O  O314  1  0.16423785  0.49505780  0.41867962  1
  O  O315  1  0.16978417  0.50205636  0.91244467  1
  O  O316  1  0.48384350  -0.00144374  0.41614359  1
  O  O317  1  0.49611756  0.00644042  0.91082110  1
  O  O318  1  0.49055174  0.50172860  0.41059841  1
  O  O319  1  0.49972777  0.48219368  0.92129488  1
  O  O320  1  0.80847152  0.00374935  0.41690241  1
  O  O321  1  0.84582476  -0.00132092  0.93332817  1
  O  O322  1  0.79956778  0.49664134  0.41729913  1
  O  O323  1  0.81141233  0.50325190  0.91382698  1
  O  O324  1  0.33714600  0.25472630  0.41411297  1
  O  O325  1  0.31462928  0.24763342  0.91374151  1
  O  O326  1  0.32491238  0.74753454  0.41675256  1
  O  O327  1  0.33961959  0.76454050  0.92260216  1
  O  O328  1  0.64201490  0.24910994  0.41446879  1
  O  O329  1  0.66634889  0.24832094  0.90686717  1
  O  O330  1  0.65032163  0.75173131  0.41597425  1
  O  O331  1  0.64861444  0.75214261  0.91541560  1
  O  O332  1  0.97202636  0.25553606  0.41846689  1
  O  O333  1  1.00537991  0.27083586  0.92583907  1
  O  O334  1  0.97752905  0.76030249  0.42877176  1
  O  O335  1  1.00268558  0.73957359  0.91548507  1
  O  O336  1  0.21321414  0.07834292  0.19876630  1
  O  O337  1  0.19144818  0.07938354  0.69273380  1
  O  O338  1  0.20607193  0.58368168  0.19903665  1
  O  O339  1  0.21020307  0.58411415  0.69905071  1
  O  O340  1  0.54354641  0.07990899  0.19807236  1
  O  O341  1  0.54650605  0.08189260  0.68964077  1
  O  O342  1  0.55228076  0.59558517  0.19721552  1
  O  O343  1  0.54754601  0.58444286  0.69853610  1
  O  O344  1  0.88183151  0.08205113  0.19794513  1
  O  O345  1  0.87695522  0.08294988  0.69542083  1
  O  O346  1  0.88020192  0.58474431  0.19692518  1
  O  O347  1  0.88064847  0.57968305  0.69445856  1
  O  O348  1  0.04059032  0.33392020  0.19665632  1
  O  O349  1  0.04118970  0.33237861  0.69476817  1
  O  O350  1  0.04514487  0.83351346  0.20210123  1
  O  O351  1  0.04199967  0.83903879  0.69712292  1
  O  O352  1  0.37580140  0.33193103  0.19758116  1
  O  O353  1  0.37584741  0.33358419  0.69725179  1
  O  O354  1  0.37548067  0.83369997  0.20221408  1
  O  O355  1  0.37570067  0.83563856  0.69425394  1
  O  O356  1  0.70200629  0.33178138  0.19461617  1
  O  O357  1  0.71455885  0.33304153  0.69276361  1
  O  O358  1  0.71423557  0.83355708  0.19766466  1
  O  O359  1  0.70890197  0.83251176  0.69484384  1
  O  O360  1  0.20917028  0.41954700  0.19439416  1
  O  O361  1  0.20596622  0.41590136  0.69057406  1
  O  O362  1  0.20796441  0.91716783  0.19811011  1
  O  O363  1  0.20511082  0.91357119  0.69572765  1
  O  O364  1  0.54555919  0.40668566  0.18640958  1
  O  O365  1  0.54567314  0.41569477  0.68904498  1
  O  O366  1  0.54435817  0.91225114  0.19277769  1
  O  O367  1  0.54578728  0.91373342  0.69391098  1
  O  O368  1  0.88525605  0.42643913  0.19152264  1
  O  O369  1  0.88134451  0.41192201  0.69311724  1
  O  O370  1  0.88050261  0.91600813  0.20115028  1
  O  O371  1  0.87658029  0.91832381  0.69644427  1
  O  O372  1  0.04366132  0.16855427  0.20024406  1
  O  O373  1  0.04049903  0.16604320  0.69495286  1
  O  O374  1  0.04735952  0.66813887  0.20024233  1
  O  O375  1  0.04402823  0.66335905  0.69428062  1
  O  O376  1  0.37358957  0.16266792  0.19072496  1
  O  O377  1  0.38222744  0.17374737  0.69215513  1
  O  O378  1  0.37072681  0.66645221  0.19421184  1
  O  O379  1  0.37612670  0.67206865  0.68797880  1
  O  O380  1  0.71199902  0.16447567  0.19769871  1
  O  O381  1  0.71168128  0.16835986  0.69360600  1
  O  O382  1  0.71648853  0.66821169  0.19479267  1
  O  O383  1  0.70553332  0.66819049  0.69076468  1
  O  O384  1  0.12137013  0.08062323  0.30546533  1
  O  O385  1  0.12155537  0.08251676  0.80864235  1
  O  O386  1  0.12647929  0.58218842  0.31051133  1
  O  O387  1  0.12171854  0.58301185  0.80589946  1
  O  O388  1  0.45721031  0.08031312  0.30529583  1
  O  O389  1  0.46468790  0.08277502  0.80032854  1
  O  O390  1  0.45137968  0.59075632  0.30426278  1
  O  O391  1  0.45195582  0.58283211  0.79636209  1
  O  O392  1  0.78895988  0.08149124  0.30591547  1
  O  O393  1  0.78852287  0.08406306  0.80003729  1
  O  O394  1  0.78993612  0.58403057  0.30801583  1
  O  O395  1  0.78525979  0.58553171  0.80452516  1
  O  O396  1  0.29400860  0.33532699  0.30584597  1
  O  O397  1  0.28620008  0.33156963  0.80201827  1
  O  O398  1  0.29054985  0.83271879  0.30815857  1
  O  O399  1  0.29103385  0.83502403  0.80536186  1
  O  O400  1  0.61989142  0.33162399  0.30365772  1
  O  O401  1  0.62577891  0.33433623  0.79955919  1
  O  O402  1  0.62472718  0.83417987  0.30558947  1
  O  O403  1  0.62102985  0.83541883  0.80675250  1
  O  O404  1  0.96448303  0.33557570  0.30839735  1
  O  O405  1  0.95821789  0.33725757  0.80710511  1
  O  O406  1  0.95749755  0.83509284  0.31197130  1
  O  O407  1  0.95616182  0.83414892  0.81146740  1
  O  O408  1  0.12199401  0.41882780  0.30832436  1
  O  O409  1  0.12568014  0.41723661  0.80222001  1
  O  O410  1  0.12715966  0.91509375  0.31206697  1
  O  O411  1  0.12094046  0.91494548  0.80715197  1
  O  O412  1  0.45507661  0.41107415  0.30443637  1
  O  O413  1  0.45825320  0.41440239  0.80259302  1
  O  O414  1  0.45920657  0.91622582  0.30601733  1
  O  O415  1  0.45698327  0.91909986  0.80285518  1
  O  O416  1  0.78649511  0.42151193  0.30476852  1
  O  O417  1  0.78786592  0.41657611  0.80330743  1
  O  O418  1  0.78956053  0.91782905  0.30714959  1
  O  O419  1  0.78980967  0.91528627  0.80141678  1
  O  O420  1  0.29989893  0.16645069  0.30830767  1
  O  O421  1  0.28194568  0.17182523  0.80291210  1
  O  O422  1  0.29133422  0.66681945  0.30696279  1
  O  O423  1  0.28953619  0.66865409  0.79870545  1
  O  O424  1  0.62024226  0.16510517  0.30424412  1
  O  O425  1  0.62216018  0.16661494  0.80081104  1
  O  O426  1  0.62576854  0.67030087  0.30554064  1
  O  O427  1  0.62402853  0.66806221  0.80595538  1
  O  O428  1  0.95507352  0.16671643  0.31092947  1
  O  O429  1  0.95626498  0.16885517  0.80207994  1
  O  O430  1  0.95657241  0.66700600  0.30362284  1
  O  O431  1  0.95622569  0.66201340  0.80554556  1
  F  F432  1  0.04456962  -0.00380418  0.20719982  1
  F  F433  1  0.04040693  -0.00065820  0.70673367  1
  F  F434  1  0.04701808  0.50323564  0.20652607  1
  F  F435  1  0.04475734  0.49935927  0.70125730  1
  F  F436  1  0.37790389  -0.00136193  0.20434510  1
  F  F437  1  0.38259142  -0.01190573  0.69404167  1
  F  F438  1  0.36200867  0.50009030  0.19854157  1
  F  F439  1  0.37737317  0.49835499  0.69764873  1
  F  F440  1  0.71507767  -0.00261168  0.20272030  1
  F  F441  1  0.71070702  -0.00093541  0.69869580  1
  F  F442  1  0.71664498  0.50292120  0.19947887  1
  F  F443  1  0.70810767  0.50061851  0.69664007  1
  F  F444  1  0.21113347  0.24752661  0.20454036  1
  F  F445  1  0.20684117  0.24853272  0.69843945  1
  F  F446  1  0.20864528  0.75001536  0.20775525  1
  F  F447  1  0.21006873  0.75425070  0.69943119  1
  F  F448  1  0.54460650  0.24587000  0.19980361  1
  F  F449  1  0.54949133  0.25022743  0.69796991  1
  F  F450  1  0.54768866  0.75218298  0.20353077  1
  F  F451  1  0.54668959  0.75200542  0.70273861  1
  F  F452  1  0.88922646  0.23973932  0.20183064  1
  F  F453  1  0.87773569  0.25199248  0.70213542  1
  F  F454  1  0.88095146  0.75337673  0.20578103  1
  F  F455  1  0.87429990  0.75450172  0.70159010  1
  F  F456  1  0.29172403  -0.00258505  0.30210476  1
  F  F457  1  0.28180315  -0.00763315  0.79866334  1
  F  F458  1  0.28856208  0.50083415  0.30150926  1
  F  F459  1  0.28857358  0.49573631  0.79529438  1
  F  F460  1  0.62264957  -0.00346733  0.29838975  1
  F  F461  1  0.61987859  -0.00086086  0.79396067  1
  F  F462  1  0.63180511  0.49821063  0.29783647  1
  F  F463  1  0.62204322  0.49760400  0.79641672  1
  F  F464  1  0.95387348  0.00001192  0.30397437  1
  F  F465  1  0.95405330  -0.00030055  0.80142162  1
  F  F466  1  0.95489907  0.50039367  0.30152220  1
  F  F467  1  0.95945194  0.49876893  0.79998204  1
  F  F468  1  0.11967409  0.25049599  0.30910003  1
  F  F469  1  0.12058055  0.25088581  0.79617110  1
  F  F470  1  0.12359574  0.75034074  0.30481682  1
  F  F471  1  0.12584999  0.74943611  0.79952232  1
  F  F472  1  0.45562647  0.24524048  0.29456662  1
  F  F473  1  0.45797579  0.25042004  0.79599327  1
  F  F474  1  0.45664240  0.74939019  0.29915026  1
  F  F475  1  0.45390003  0.75100333  0.79529472  1
  F  F476  1  0.78322627  0.24027588  0.30482979  1
  F  F477  1  0.78834895  0.25296716  0.79699128  1
  F  F478  1  0.78837011  0.75079987  0.30089133  1
  F  F479  1  0.78259352  0.75490288  0.80393628  1
