# generated using pymatgen
data_K24Na3Li5Mg64Fe17Si79(O5F)48
_symmetry_space_group_name_H-M   'P 1'
_cell_length_a   16.08983027
_cell_length_b   18.57943966
_cell_length_c   20.54352794
_cell_angle_alpha   89.99220795
_cell_angle_beta   99.99879274
_cell_angle_gamma   90.01618826
_symmetry_Int_Tables_number   1
_chemical_formula_structural   K24Na3Li5Mg64Fe17Si79(O5F)48
_chemical_formula_sum   'K24 Na3 Li5 Mg64 Fe17 Si79 O240 F48'
_cell_volume   6048.00519106
_cell_formula_units_Z   1
loop_
 _symmetry_equiv_pos_site_id
 _symmetry_equiv_pos_as_xyz
  1  'x, y, z'
loop_
 _atom_site_type_symbol
 _atom_site_label
 _atom_site_symmetry_multiplicity
 _atom_site_fract_x
 _atom_site_fract_y
 _atom_site_fract_z
 _atom_site_occupancy
  K  K0  1  -0.00412448  0.00396154  -0.00375587  1
  K  K1  1  0.00867023  0.00517246  0.50185762  1
  K  K2  1  0.01198876  0.49914492  -0.00557271  1
  K  K3  1  0.01245299  0.50260696  0.50834576  1
  K  K4  1  0.33321591  0.00158299  0.00220498  1
  K  K5  1  0.33793178  0.00016725  0.50071341  1
  K  K6  1  0.33390252  0.49672111  -0.00065753  1
  K  K7  1  0.33109598  0.50357474  0.49906612  1
  K  K8  1  0.66982129  -0.00528895  -0.00501784  1
  K  K9  1  0.65836903  0.00377636  0.50367258  1
  K  K10  1  0.65305018  0.50172670  -0.00964219  1
  K  K11  1  0.66327417  0.49438825  0.50422514  1
  K  K12  1  0.17540214  0.24376312  -0.00342139  1
  K  K13  1  0.17399405  0.24271347  0.50414190  1
  K  K14  1  0.17122882  0.75329688  0.00073353  1
  K  K15  1  0.17645787  0.75183116  0.49922278  1
  K  K16  1  0.49182326  0.25304724  -0.00330411  1
  K  K17  1  0.49917130  0.24809124  0.49781246  1
  K  K18  1  0.50963307  0.75438162  -0.00277030  1
  K  K19  1  0.49873990  0.75085685  0.50075139  1
  K  K20  1  0.82246132  0.24631489  -0.00853706  1
  K  K21  1  0.83477958  0.24328525  0.50462745  1
  K  K22  1  0.81986009  0.75375730  -0.00416370  1
  K  K23  1  0.83376264  0.74818355  0.50403045  1
  Na  Na24  1  0.33565221  0.25057973  0.25304518  1
  Na  Na25  1  0.50098542  0.33404756  0.75353178  1
  Na  Na26  1  0.16543248  0.16808832  0.74348784  1
  Li  Li27  1  0.49964789  0.49667692  0.75326652  1
  Li  Li28  1  0.49667591  0.49994060  0.25708641  1
  Li  Li29  1  0.33637001  0.91864642  0.74691522  1
  Li  Li30  1  0.66484835  0.91780652  0.75033050  1
  Li  Li31  1  0.66427614  0.91419089  0.24329609  1
  Mg  Mg32  1  0.50279983  -0.00218265  0.74698209  1
  Mg  Mg33  1  0.82908050  0.00048353  0.75025216  1
  Mg  Mg34  1  0.33522607  0.75195204  0.75091364  1
  Mg  Mg35  1  0.17020509  0.00071089  0.74509721  1
  Mg  Mg36  1  0.66590596  0.75267750  0.24556117  1
  Mg  Mg37  1  0.66400342  0.24877460  0.25201051  1
  Mg  Mg38  1  0.16687826  0.50154295  0.25606609  1
  Mg  Mg39  1  0.16444962  0.50181629  0.75082521  1
  Mg  Mg40  1  0.83347901  0.49979323  0.75394601  1
  Mg  Mg41  1  0.33248272  0.75008674  0.25161754  1
  Mg  Mg42  1  0.33334470  0.24988909  0.74813500  1
  Mg  Mg43  1  -0.00098318  0.25045981  0.25040775  1
  Mg  Mg44  1  -0.00098695  0.74875267  0.24970669  1
  Mg  Mg45  1  0.16785612  -0.00005221  0.24866957  1
  Mg  Mg46  1  0.83038615  -0.00265673  0.24668299  1
  Mg  Mg47  1  0.66506696  0.75025146  0.75269723  1
  Mg  Mg48  1  0.50236058  -0.00056678  0.24675019  1
  Mg  Mg49  1  0.66613782  0.25006427  0.75333749  1
  Mg  Mg50  1  0.00032333  0.75093352  0.74847037  1
  Mg  Mg51  1  0.00094811  0.25012659  0.75065358  1
  Mg  Mg52  1  0.83073565  0.50018060  0.24965577  1
  Mg  Mg53  1  0.49874099  0.33576215  0.25096082  1
  Mg  Mg54  1  0.33475309  0.08422476  0.24811430  1
  Mg  Mg55  1  0.50114107  0.83484052  0.74943689  1
  Mg  Mg56  1  0.83030610  0.33360287  0.25034921  1
  Mg  Mg57  1  0.83399702  0.16472310  0.75012664  1
  Mg  Mg58  1  0.16967983  0.66528200  0.25670011  1
  Mg  Mg59  1  0.66654383  0.08121379  0.75069834  1
  Mg  Mg60  1  0.16951882  0.83426149  0.25097451  1
  Mg  Mg61  1  -0.00015029  0.08383681  0.24995686  1
  Mg  Mg62  1  0.83046839  0.66580382  0.24755613  1
  Mg  Mg63  1  0.33509548  0.58326819  0.75303478  1
  Mg  Mg64  1  0.66581815  0.41800937  0.75525275  1
  Mg  Mg65  1  0.16667551  0.33532544  0.75031915  1
  Mg  Mg66  1  0.00045825  0.08435547  0.74770895  1
  Mg  Mg67  1  0.00221400  0.41614456  0.75234259  1
  Mg  Mg68  1  0.16996446  0.83601303  0.74628860  1
  Mg  Mg69  1  -0.00024564  0.91720428  0.74731495  1
  Mg  Mg70  1  0.66195021  0.58303601  0.24845303  1
  Mg  Mg71  1  0.66248124  0.41696191  0.25208062  1
  Mg  Mg72  1  0.66559197  0.58233850  0.75560023  1
  Mg  Mg73  1  0.50105599  0.16584776  0.24931979  1
  Mg  Mg74  1  0.33430639  0.41824719  0.75112685  1
  Mg  Mg75  1  0.49925356  0.66436682  0.25107321  1
  Mg  Mg76  1  0.82939232  0.83414384  0.24562268  1
  Mg  Mg77  1  0.33267453  0.91439119  0.24876486  1
  Mg  Mg78  1  0.33733426  0.41838742  0.25372214  1
  Mg  Mg79  1  0.83324761  0.33458753  0.75511368  1
  Mg  Mg80  1  0.83028368  0.83534007  0.75119362  1
  Mg  Mg81  1  0.50215795  0.66293219  0.75431509  1
  Mg  Mg82  1  0.00235734  0.58637486  0.75001712  1
  Mg  Mg83  1  0.00016711  0.41595126  0.25392525  1
  Mg  Mg84  1  0.16986221  0.33419558  0.25529436  1
  Mg  Mg85  1  0.00136880  0.58340299  0.25366441  1
  Mg  Mg86  1  0.83354024  0.66569344  0.75291853  1
  Mg  Mg87  1  0.33459735  0.08072490  0.74428428  1
  Mg  Mg88  1  0.66547148  0.08035993  0.24690694  1
  Mg  Mg89  1  0.33669933  0.58477116  0.25653872  1
  Mg  Mg90  1  0.16786455  0.16620445  0.24797241  1
  Mg  Mg91  1  0.83069124  0.16417874  0.25023746  1
  Mg  Mg92  1  0.16532297  0.66671382  0.75042526  1
  Mg  Mg93  1  0.50078264  0.16532006  0.74868079  1
  Mg  Mg94  1  0.50178619  0.83521325  0.24553255  1
  Mg  Mg95  1  -0.00004528  0.91475075  0.24756205  1
  Fe  Fe96  1  0.13751530  0.58018493  0.39579095  1
  Fe  Fe97  1  0.63898308  0.66273926  0.89320822  1
  Fe  Fe98  1  0.64554929  0.16586718  0.38823001  1
  Fe  Fe99  1  0.69272793  0.83511236  0.10632276  1
  Fe  Fe100  1  0.47886712  0.41706150  0.39253669  1
  Fe  Fe101  1  0.31344270  0.84162256  0.39240585  1
  Fe  Fe102  1  0.31394537  0.66785207  0.39646257  1
  Fe  Fe103  1  0.35752205  0.16854897  0.10661705  1
  Fe  Fe104  1  0.02482176  0.67093921  0.60752538  1
  Fe  Fe105  1  0.81200442  0.41492520  0.89383512  1
  Fe  Fe106  1  0.02326863  0.16526295  0.60614961  1
  Fe  Fe107  1  0.80856407  0.08717888  0.89153595  1
  Fe  Fe108  1  0.52588569  0.08139596  0.60915529  1
  Fe  Fe109  1  0.30964905  0.16030529  0.38970441  1
  Fe  Fe110  1  0.18866067  0.91327172  0.10771266  1
  Fe  Fe111  1  0.14296526  0.58759972  0.89268974  1
  Fe  Fe112  1  0.14597764  0.41544678  0.89186382  1
  Si  Si113  1  0.52867661  0.58175371  0.61774501  1
  Si  Si114  1  0.13969783  0.40837367  0.39154496  1
  Si  Si115  1  0.47787080  0.91945214  0.88268416  1
  Si  Si116  1  0.52677283  0.41431439  0.11483366  1
  Si  Si117  1  0.85738719  0.57853089  0.11486255  1
  Si  Si118  1  0.02620272  0.33727003  0.11742154  1
  Si  Si119  1  0.46486966  0.58277719  0.89127812  1
  Si  Si120  1  0.31291368  0.83726809  0.88205567  1
  Si  Si121  1  0.01997974  0.66408480  0.11600564  1
  Si  Si122  1  0.02363139  0.82732035  0.11247155  1
  Si  Si123  1  0.02575728  0.17217232  0.11503637  1
  Si  Si124  1  0.52639416  0.08434291  0.10852060  1
  Si  Si125  1  0.52693690  0.41843615  0.61784028  1
  Si  Si126  1  0.48461348  0.91984813  0.38407384  1
  Si  Si127  1  0.64974361  0.33310392  0.39011840  1
  Si  Si128  1  0.47304414  0.08201600  0.88324660  1
  Si  Si129  1  0.96593751  0.16678395  0.38390490  1
  Si  Si130  1  0.30699732  0.67485549  0.88748061  1
  Si  Si131  1  0.18385195  0.08240381  0.10736714  1
  Si  Si132  1  0.97763428  0.83492579  0.88409601  1
  Si  Si133  1  0.48289460  0.58498235  0.39076487  1
  Si  Si134  1  0.69010304  0.66242613  0.11120443  1
  Si  Si135  1  0.35991715  0.66344331  0.11510892  1
  Si  Si136  1  0.35995216  0.17140970  0.60988696  1
  Si  Si137  1  0.35880966  0.82745363  0.61517854  1
  Si  Si138  1  0.46669463  0.41792584  0.88681132  1
  Si  Si139  1  0.64080084  0.67069257  0.38366624  1
  Si  Si140  1  0.85206946  0.91858378  0.61446884  1
  Si  Si141  1  0.69046865  0.33002985  0.11489882  1
  Si  Si142  1  0.52302892  0.91012826  0.61126734  1
  Si  Si143  1  0.85643731  0.58173206  0.61384191  1
  Si  Si144  1  0.19087128  0.42260795  0.11860892  1
  Si  Si145  1  0.31051856  0.16068426  0.87999180  1
  Si  Si146  1  0.96583660  0.66565296  0.38599103  1
  Si  Si147  1  0.69494943  0.16915935  0.61407660  1
  Si  Si148  1  0.36232554  0.83007499  0.10927191  1
  Si  Si149  1  0.80781115  0.07521970  0.38592447  1
  Si  Si150  1  0.63874211  0.33735205  0.89169874  1
  Si  Si151  1  0.52307241  0.91877111  0.10856337  1
  Si  Si152  1  0.64213300  0.83441322  0.88620132  1
  Si  Si153  1  0.86488572  0.91964043  0.10983599  1
  Si  Si154  1  0.02104410  0.84221548  0.60922355  1
  Si  Si155  1  0.19908785  0.07935986  0.60736548  1
  Si  Si156  1  0.85657902  0.41694219  0.61665113  1
  Si  Si157  1  0.81338235  0.58417000  0.89094674  1
  Si  Si158  1  0.63514149  0.17055222  0.89013066  1
  Si  Si159  1  0.19779664  0.58471157  0.61425340  1
  Si  Si160  1  0.18982771  0.58744541  0.11774383  1
  Si  Si161  1  0.96807137  0.33250245  0.38625540  1
  Si  Si162  1  0.69182076  0.82882249  0.61581552  1
  Si  Si163  1  0.47876132  0.08017100  0.38526277  1
  Si  Si164  1  0.13264794  0.91796765  0.38684608  1
  Si  Si165  1  0.97101647  0.67051262  0.88795792  1
  Si  Si166  1  0.98292249  0.16564976  0.88772461  1
  Si  Si167  1  0.35588304  0.34126718  0.11250241  1
  Si  Si168  1  0.36437381  0.66311256  0.61790465  1
  Si  Si169  1  0.69260653  0.66458463  0.61636081  1
  Si  Si170  1  0.52517318  0.57965540  0.11598809  1
  Si  Si171  1  0.86281503  0.08648324  0.11433549  1
  Si  Si172  1  0.80731833  0.42233504  0.38528115  1
  Si  Si173  1  0.69048183  0.33416801  0.61686530  1
  Si  Si174  1  0.13319275  0.08493679  0.38630285  1
  Si  Si175  1  0.85626524  0.08166455  0.61215430  1
  Si  Si176  1  0.19440332  0.91543720  0.61119597  1
  Si  Si177  1  0.69454254  0.16370132  0.11358354  1
  Si  Si178  1  0.97006894  0.83028675  0.38285182  1
  Si  Si179  1  0.02283219  0.33748066  0.61108171  1
  Si  Si180  1  0.97693768  0.32871920  0.88918105  1
  Si  Si181  1  0.30974340  0.32537740  0.88775057  1
  Si  Si182  1  0.64370762  0.83330555  0.38150964  1
  Si  Si183  1  0.14359735  0.07875391  0.88175914  1
  Si  Si184  1  0.80966916  0.91348148  0.38174413  1
  Si  Si185  1  0.85690923  0.41374923  0.11579241  1
  Si  Si186  1  0.81170046  0.91605765  0.88696561  1
  Si  Si187  1  0.30779350  0.33557350  0.39098378  1
  Si  Si188  1  0.35606683  0.33731329  0.61562471  1
  Si  Si189  1  0.80153777  0.58669332  0.38298164  1
  Si  Si190  1  0.19237922  0.41922338  0.61515877  1
  Si  Si191  1  0.14496956  0.91566277  0.88261424  1
  O  O192  1  0.26117887  0.11179843  0.07329989  1
  O  O193  1  0.27576956  0.12291780  0.58016160  1
  O  O194  1  0.26873600  0.62306857  0.08699791  1
  O  O195  1  0.28423967  0.61185402  0.58852192  1
  O  O196  1  0.61511340  0.11187917  0.08335443  1
  O  O197  1  0.61817376  0.12090894  0.57671850  1
  O  O198  1  0.60374029  0.61506106  0.08496433  1
  O  O199  1  0.60669837  0.61923102  0.58649319  1
  O  O200  1  0.93862851  0.12814613  0.08532949  1
  O  O201  1  0.93148564  0.10320885  0.57297134  1
  O  O202  1  0.93923186  0.61134691  0.08658471  1
  O  O203  1  0.92931346  0.61239752  0.57619041  1
  O  O204  1  0.10433495  0.37611128  0.08913068  1
  O  O205  1  0.10251590  0.37910148  0.58482968  1
  O  O206  1  0.10260683  0.84571941  0.07714736  1
  O  O207  1  0.10078561  0.88054131  0.58042797  1
  O  O208  1  0.43683365  0.37684591  0.08187742  1
  O  O209  1  0.43802437  0.37466717  0.58961460  1
  O  O210  1  0.44183062  0.86593568  0.07961567  1
  O  O211  1  0.43705402  0.86135435  0.58311218  1
  O  O212  1  0.77203839  0.36615912  0.08757656  1
  O  O213  1  0.77067971  0.37047964  0.58757120  1
  O  O214  1  0.78324760  0.87771478  0.07199496  1
  O  O215  1  0.77151108  0.86537855  0.58545413  1
  O  O216  1  0.27122892  0.39315227  0.08730533  1
  O  O217  1  0.26968070  0.38247971  0.58333732  1
  O  O218  1  0.27954556  0.87289082  0.07289669  1
  O  O219  1  0.26899019  0.86824497  0.58471902  1
  O  O220  1  0.60416639  0.37428770  0.08333647  1
  O  O221  1  0.60405516  0.37915894  0.58583002  1
  O  O222  1  0.59891986  0.89165262  0.07213047  1
  O  O223  1  0.60339054  0.86926088  0.58431545  1
  O  O224  1  0.93809429  0.38038336  0.08755107  1
  O  O225  1  0.93647780  0.38666753  0.58432015  1
  O  O226  1  0.94764367  0.88468810  0.08402852  1
  O  O227  1  0.93625497  0.89370644  0.58430441  1
  O  O228  1  0.10263258  0.13874918  0.08317053  1
  O  O229  1  0.11267182  0.11893068  0.57357353  1
  O  O230  1  0.10377890  0.63442364  0.08791406  1
  O  O231  1  0.12024456  0.63340439  0.57765320  1
  O  O232  1  0.45327053  0.13686773  0.07145360  1
  O  O233  1  0.43549377  0.14239658  0.57466005  1
  O  O234  1  0.43476449  0.61958275  0.08545274  1
  O  O235  1  0.44473292  0.63008615  0.58809077  1
  O  O236  1  0.77639402  0.13118460  0.08474776  1
  O  O237  1  0.77984855  0.13949109  0.58711495  1
  O  O238  1  0.77092276  0.62207563  0.08537552  1
  O  O239  1  0.76912319  0.62721688  0.58498896  1
  O  O240  1  0.05038789  0.12127906  0.41266679  1
  O  O241  1  0.06620188  0.11339889  0.91422153  1
  O  O242  1  0.03415424  0.60929627  0.42152311  1
  O  O243  1  0.04418526  0.61807909  0.92428325  1
  O  O244  1  0.39356012  0.09017098  0.41665938  1
  O  O245  1  0.38976311  0.10877785  0.91326285  1
  O  O246  1  0.40457712  0.60478024  0.42756157  1
  O  O247  1  0.38232597  0.61806452  0.91833372  1
  O  O248  1  0.72988472  0.09691177  0.42115369  1
  O  O249  1  0.71815854  0.12806713  0.92736036  1
  O  O250  1  0.71852512  0.61443357  0.41238661  1
  O  O251  1  0.73209061  0.60380746  0.92482237  1
  O  O252  1  0.21627794  0.35174828  0.41751648  1
  O  O253  1  0.23326425  0.34938580  0.92413129  1
  O  O254  1  0.21536997  0.87665473  0.42341229  1
  O  O255  1  0.23005241  0.86818161  0.91194267  1
  O  O256  1  0.57039236  0.35429995  0.42489303  1
  O  O257  1  0.55543115  0.37540125  0.91543601  1
  O  O258  1  0.56360788  0.86356440  0.41305604  1
  O  O259  1  0.56295598  0.87425437  0.91502657  1
  O  O260  1  0.89051363  0.37280481  0.41461644  1
  O  O261  1  0.89147665  0.34144459  0.92020820  1
  O  O262  1  0.88693690  0.85797715  0.41256759  1
  O  O263  1  0.89738093  0.86620612  0.91495256  1
  O  O264  1  0.05515068  0.37354028  0.41707080  1
  O  O265  1  0.04779638  0.38565231  0.92301117  1
  O  O266  1  0.04924019  0.88220906  0.41292913  1
  O  O267  1  0.06371217  0.88222090  0.91203913  1
  O  O268  1  0.37816540  0.39395260  0.42492174  1
  O  O269  1  0.39478201  0.37282035  0.91886268  1
  O  O270  1  0.40616732  0.90355789  0.42100899  1
  O  O271  1  0.39467564  0.88843825  0.91154206  1
  O  O272  1  0.72618862  0.39459013  0.41547597  1
  O  O273  1  0.71897381  0.38165325  0.93151380  1
  O  O274  1  0.72605258  0.88459501  0.41017083  1
  O  O275  1  0.72966016  0.88024201  0.91329748  1
  O  O276  1  0.21324669  0.12867657  0.42402648  1
  O  O277  1  0.22787035  0.12807073  0.90833336  1
  O  O278  1  0.22139798  0.64065110  0.43419795  1
  O  O279  1  0.22520957  0.65956559  0.92076860  1
  O  O280  1  0.54640758  0.14081714  0.41824288  1
  O  O281  1  0.55155832  0.13456159  0.91503577  1
  O  O282  1  0.55859259  0.64738375  0.41475217  1
  O  O283  1  0.54753041  0.62508617  0.92900059  1
  O  O284  1  0.88826111  0.12948505  0.41306460  1
  O  O285  1  0.90800231  0.13940917  0.92580079  1
  O  O286  1  0.87552851  0.64501621  0.41054497  1
  O  O287  1  0.88252580  0.65040355  0.91382806  1
  O  O288  1  0.15274340  0.00476775  0.07483305  1
  O  O289  1  0.19721116  -0.00447430  0.57750626  1
  O  O290  1  0.17241240  0.50496732  0.08935595  1
  O  O291  1  0.18213351  0.50158076  0.58600657  1
  O  O292  1  0.50211545  0.00198140  0.08076720  1
  O  O293  1  0.51006437  -0.01303511  0.57399285  1
  O  O294  1  0.51956274  0.49730546  0.08606140  1
  O  O295  1  0.51600776  0.50049243  0.58502024  1
  O  O296  1  0.85876733  0.00482063  0.08446854  1
  O  O297  1  0.82417676  -0.00075052  0.58663401  1
  O  O298  1  0.84274085  0.49579645  0.08692726  1
  O  O299  1  0.83559799  0.49840063  0.58744070  1
  O  O300  1  0.01287605  0.25538300  0.08782282  1
  O  O301  1  0.00874763  0.26119676  0.57275810  1
  O  O302  1  -0.00755970  0.74467070  0.08747350  1
  O  O303  1  0.00075031  0.76527099  0.57326861  1
  O  O304  1  0.33539179  0.26457731  0.07635256  1
  O  O305  1  0.34123555  0.25581576  0.58419179  1
  O  O306  1  0.35516714  0.74471449  0.08317918  1
  O  O307  1  0.34592702  0.74420870  0.58708376  1
  O  O308  1  0.68011282  0.24723834  0.08527791  1
  O  O309  1  0.68125366  0.25286494  0.58586514  1
  O  O310  1  0.67807945  0.73912138  0.07481248  1
  O  O311  1  0.68247818  0.74635699  0.58463595  1
  O  O312  1  0.13387738  0.00154992  0.41370889  1
  O  O313  1  0.16176724  -0.00295347  0.91381314  1
  O  O314  1  0.15828398  0.48472300  0.42816717  1
  O  O315  1  0.17871885  0.50215125  0.93395735  1
  O  O316  1  0.52206061  0.00016278  0.40705631  1
  O  O317  1  0.49419854  0.00091992  0.91392772  1
  O  O318  1  0.52312653  0.50884043  0.41952633  1
  O  O319  1  0.47168074  0.49895872  0.92083419  1
  O  O320  1  0.83803414  -0.00673179  0.41242003  1
  O  O321  1  0.82874468  -0.00731667  0.92451820  1
  O  O322  1  0.82771473  0.50552816  0.41211391  1
  O  O323  1  0.85280756  0.50786430  0.92116793  1
  O  O324  1  0.33759086  0.25558106  0.41809656  1
  O  O325  1  0.33204572  0.24100876  0.91201821  1
  O  O326  1  0.34606658  0.75623827  0.43418457  1
  O  O327  1  0.33920512  0.75710300  0.91294042  1
  O  O328  1  0.69011052  0.25648560  0.41794565  1
  O  O329  1  0.63955863  0.25345762  0.92025623  1
  O  O330  1  0.66879154  0.75181627  0.41262794  1
  O  O331  1  0.65596745  0.75784673  0.92424151  1
  O  O332  1  0.97312846  0.24929958  0.41339195  1
  O  O333  1  1.01343515  0.24706351  0.91244281  1
  O  O334  1  0.98922453  0.74862095  0.41184668  1
  O  O335  1  0.99591108  0.75379319  0.91391416  1
  O  O336  1  0.20274089  0.08194135  0.18877533  1
  O  O337  1  0.21563128  0.07529940  0.68701452  1
  O  O338  1  0.20811312  0.58525419  0.19751736  1
  O  O339  1  0.21181023  0.58592451  0.69493094  1
  O  O340  1  0.54422414  0.08271280  0.18914938  1
  O  O341  1  0.54641911  0.08273774  0.70052612  1
  O  O342  1  0.54365052  0.58470014  0.19548416  1
  O  O343  1  0.54616996  0.58400057  0.69710093  1
  O  O344  1  0.87831903  0.08522521  0.19479014  1
  O  O345  1  0.87696551  0.08127411  0.69296676  1
  O  O346  1  0.87586934  0.58086916  0.19560199  1
  O  O347  1  0.87589782  0.58466832  0.69478334  1
  O  O348  1  0.04058284  0.33602626  0.19790950  1
  O  O349  1  0.03967158  0.33459833  0.69161005  1
  O  O350  1  0.04162913  0.83072736  0.19371128  1
  O  O351  1  0.04138894  0.83715897  0.69024072  1
  O  O352  1  0.37845763  0.34230687  0.19196385  1
  O  O353  1  0.36787659  0.33573765  0.69468684  1
  O  O354  1  0.37751011  0.83177588  0.19015184  1
  O  O355  1  0.37887288  0.82917162  0.69464289  1
  O  O356  1  0.70955463  0.33218466  0.19539522  1
  O  O357  1  0.70906470  0.33375331  0.69697617  1
  O  O358  1  0.71302437  0.83077159  0.19663633  1
  O  O359  1  0.71159700  0.82823227  0.69530455  1
  O  O360  1  0.20690925  0.41967893  0.19886781  1
  O  O361  1  0.21037455  0.41912622  0.69521077  1
  O  O362  1  0.20836886  0.91637747  0.19914217  1
  O  O363  1  0.20634339  0.91618579  0.69070878  1
  O  O364  1  0.54860917  0.41171263  0.19397789  1
  O  O365  1  0.55148092  0.42217740  0.69612205  1
  O  O366  1  0.53875023  0.91647781  0.18876682  1
  O  O367  1  0.53973297  0.91330920  0.69117965  1
  O  O368  1  0.87505572  0.41509355  0.19644225  1
  O  O369  1  0.87751836  0.41611058  0.69676811  1
  O  O370  1  0.87842081  0.91687690  0.19086906  1
  O  O371  1  0.87400517  0.91569735  0.69473987  1
  O  O372  1  0.04042674  0.16821556  0.19558215  1
  O  O373  1  0.03074304  0.16771756  0.69571589  1
  O  O374  1  0.03859988  0.66486041  0.19633279  1
  O  O375  1  0.04295628  0.67049735  0.69897616  1
  O  O376  1  0.38434703  0.15913796  0.19592619  1
  O  O377  1  0.37722399  0.16759229  0.69048538  1
  O  O378  1  0.37796280  0.66554718  0.19516052  1
  O  O379  1  0.37977368  0.66566545  0.69825929  1
  O  O380  1  0.71332707  0.16627227  0.19371791  1
  O  O381  1  0.71048978  0.16819684  0.69478722  1
  O  O382  1  0.70904725  0.66407521  0.19234991  1
  O  O383  1  0.71210794  0.66600227  0.69645204  1
  O  O384  1  0.11847526  0.08410105  0.30497989  1
  O  O385  1  0.12028622  0.07386859  0.80278963  1
  O  O386  1  0.11956406  0.58296630  0.30279486  1
  O  O387  1  0.12238467  0.58484334  0.80018341  1
  O  O388  1  0.46038550  0.08095159  0.30377968  1
  O  O389  1  0.45623515  0.08118217  0.80336011  1
  O  O390  1  0.45859412  0.58896386  0.30994584  1
  O  O391  1  0.45230636  0.58757674  0.81133128  1
  O  O392  1  0.79137674  0.07989791  0.30476536  1
  O  O393  1  0.78909130  0.08421849  0.80005106  1
  O  O394  1  0.78636409  0.58395720  0.30241716  1
  O  O395  1  0.79278365  0.58438682  0.80892147  1
  O  O396  1  0.28571573  0.34299774  0.31038443  1
  O  O397  1  0.29080970  0.33196988  0.80724870  1
  O  O398  1  0.29045951  0.83309636  0.30004581  1
  O  O399  1  0.28991028  0.83379579  0.80264897  1
  O  O400  1  0.62984378  0.33458841  0.30833457  1
  O  O401  1  0.63512752  0.33404443  0.81256073  1
  O  O402  1  0.62176133  0.82971017  0.30215556  1
  O  O403  1  0.62171562  0.83054585  0.80626233  1
  O  O404  1  0.95222295  0.33324062  0.30549076  1
  O  O405  1  0.95744252  0.33321800  0.80732852  1
  O  O406  1  0.95381092  0.83181591  0.30206440  1
  O  O407  1  0.95833592  0.83523925  0.80335939  1
  O  O408  1  0.11967528  0.41464883  0.31011219  1
  O  O409  1  0.12238966  0.41850867  0.79915934  1
  O  O410  1  0.11840819  0.91631223  0.30571781  1
  O  O411  1  0.12455852  0.91557459  0.80229194  1
  O  O412  1  0.45620232  0.41497010  0.30192395  1
  O  O413  1  0.44723859  0.42292694  0.80847409  1
  O  O414  1  0.46065221  0.91480445  0.30302370  1
  O  O415  1  0.46188988  0.91719562  0.80331999  1
  O  O416  1  0.79046460  0.41813122  0.30456090  1
  O  O417  1  0.78984242  0.41749779  0.80195155  1
  O  O418  1  0.79636204  0.91555908  0.30227193  1
  O  O419  1  0.79717388  0.91697667  0.80692669  1
  O  O420  1  0.28096934  0.15654360  0.29960954  1
  O  O421  1  0.29783632  0.16297376  0.80091162  1
  O  O422  1  0.29038751  0.66792378  0.30296759  1
  O  O423  1  0.28989558  0.67042913  0.80633280  1
  O  O424  1  0.62533592  0.16352397  0.29634852  1
  O  O425  1  0.62435113  0.16840490  0.80971346  1
  O  O426  1  0.62476181  0.66842539  0.30317274  1
  O  O427  1  0.62255100  0.66641507  0.80171903  1
  O  O428  1  0.95212822  0.16752882  0.30328308  1
  O  O429  1  0.95741144  0.16381980  0.80709982  1
  O  O430  1  0.95186912  0.66537796  0.30470245  1
  O  O431  1  0.95586015  0.66917000  0.80669665  1
  F  F432  1  0.04351794  0.00054242  0.20169108  1
  F  F433  1  0.04488567  -0.00166961  0.69850043  1
  F  F434  1  0.04246488  0.49743346  0.20397799  1
  F  F435  1  0.04167802  0.50133958  0.69820932  1
  F  F436  1  0.37874336  -0.00280033  0.20146842  1
  F  F437  1  0.38326962  0.00155727  0.69718229  1
  F  F438  1  0.37062303  0.50458896  0.20332324  1
  F  F439  1  0.37215970  0.50247882  0.70136550  1
  F  F440  1  0.71741459  0.00627688  0.19457568  1
  F  F441  1  0.71197509  -0.00003242  0.69976179  1
  F  F442  1  0.71202710  0.49867126  0.19973913  1
  F  F443  1  0.71321252  0.50364973  0.70348169  1
  F  F444  1  0.19498023  0.25398868  0.19904958  1
  F  F445  1  0.21528942  0.26136181  0.69702699  1
  F  F446  1  0.20805112  0.74777433  0.20129404  1
  F  F447  1  0.21303052  0.75021779  0.70082755  1
  F  F448  1  0.54797289  0.25377124  0.19853159  1
  F  F449  1  0.55169604  0.24278599  0.70072878  1
  F  F450  1  0.54425602  0.74745239  0.19877831  1
  F  F451  1  0.54428293  0.74921550  0.70153136  1
  F  F452  1  0.87732819  0.25068876  0.20133914  1
  F  F453  1  0.87700523  0.25183986  0.70498918  1
  F  F454  1  0.87798125  0.74774378  0.20004502  1
  F  F455  1  0.87725806  0.75088382  0.70316876  1
  F  F456  1  0.28767704  -0.00041266  0.29587852  1
  F  F457  1  0.28719022  0.00230333  0.79591703  1
  F  F458  1  0.28621269  0.50236392  0.30168713  1
  F  F459  1  0.28537195  0.50168964  0.79912548  1
  F  F460  1  0.62235790  -0.00144375  0.29172968  1
  F  F461  1  0.62147583  -0.00004594  0.80039216  1
  F  F462  1  0.62969311  0.50128638  0.29924913  1
  F  F463  1  0.62817642  0.50054898  0.80543419  1
  F  F464  1  0.95294101  -0.00079939  0.29503682  1
  F  F465  1  0.95495634  -0.00108829  0.79539421  1
  F  F466  1  0.95085057  0.49877217  0.29913608  1
  F  F467  1  0.95598427  0.50207868  0.79635179  1
  F  F468  1  0.11612160  0.24999574  0.29990374  1
  F  F469  1  0.11805140  0.25911657  0.79962384  1
  F  F470  1  0.11816994  0.75097303  0.29822257  1
  F  F471  1  0.12183726  0.75629153  0.79609772  1
  F  F472  1  0.47174004  0.25037610  0.30017488  1
  F  F473  1  0.45040316  0.23982749  0.79978065  1
  F  F474  1  0.45636587  0.75173239  0.29437372  1
  F  F475  1  0.45615357  0.75093067  0.79925874  1
  F  F476  1  0.78945817  0.24952323  0.29731671  1
  F  F477  1  0.78871833  0.24786446  0.79917077  1
  F  F478  1  0.78860900  0.74742611  0.29665073  1
  F  F479  1  0.78885466  0.75061551  0.79941261  1
