# generated using pymatgen
data_K24Na3Li5Mg64Fe17Si79(O5F)48
_symmetry_space_group_name_H-M   'P 1'
_cell_length_a   16.08198671
_cell_length_b   18.57602927
_cell_length_c   20.54231595
_cell_angle_alpha   89.98946821
_cell_angle_beta   100.00448180
_cell_angle_gamma   90.01194087
_symmetry_Int_Tables_number   1
_chemical_formula_structural   K24Na3Li5Mg64Fe17Si79(O5F)48
_chemical_formula_sum   'K24 Na3 Li5 Mg64 Fe17 Si79 O240 F48'
_cell_volume   6043.48492714
_cell_formula_units_Z   1
loop_
 _symmetry_equiv_pos_site_id
 _symmetry_equiv_pos_as_xyz
  1  'x, y, z'
loop_
 _atom_site_type_symbol
 _atom_site_label
 _atom_site_symmetry_multiplicity
 _atom_site_fract_x
 _atom_site_fract_y
 _atom_site_fract_z
 _atom_site_occupancy
  K  K0  1  -0.01047667  -0.00520359  -0.00103321  1
  K  K1  1  -0.00284103  0.00024391  0.49480153  1
  K  K2  1  -0.00402885  0.50102244  0.00459655  1
  K  K3  1  -0.00738724  0.49094170  0.49342087  1
  K  K4  1  0.34193875  -0.00971859  0.00437143  1
  K  K5  1  0.34198532  -0.00408374  0.49881352  1
  K  K6  1  0.33425312  0.50553610  0.01136893  1
  K  K7  1  0.33439475  0.49654122  0.49294141  1
  K  K8  1  0.67051478  0.00118066  -0.00165241  1
  K  K9  1  0.66190834  -0.00030093  0.50259650  1
  K  K10  1  0.67133889  0.49919489  0.00079657  1
  K  K11  1  0.67223930  0.49925825  0.49927462  1
  K  K12  1  0.17117438  0.24992770  0.00406881  1
  K  K13  1  0.17187619  0.25506238  0.49145797  1
  K  K14  1  0.15934378  0.76324270  0.00986754  1
  K  K15  1  0.17467382  0.74948511  0.48928786  1
  K  K16  1  0.50411344  0.24835872  0.00433523  1
  K  K17  1  0.50471712  0.24697403  0.49966840  1
  K  K18  1  0.50465325  0.74757336  0.00365147  1
  K  K19  1  0.49297663  0.75136697  0.49343061  1
  K  K20  1  0.83376892  0.25340697  0.00040788  1
  K  K21  1  0.81649307  0.25814313  0.49966795  1
  K  K22  1  0.84109961  0.74963459  -0.00003392  1
  K  K23  1  0.82985812  0.74928288  0.50210913  1
  Na  Na24  1  0.49890996  -0.00179228  0.74110236  1
  Na  Na25  1  0.49887630  0.33302413  0.25149151  1
  Na  Na26  1  0.33233910  0.58119551  0.24444684  1
  Li  Li27  1  0.83330762  0.00139201  0.24534343  1
  Li  Li28  1  0.33421831  0.74954495  0.74973905  1
  Li  Li29  1  0.67356843  0.58671625  0.75286580  1
  Li  Li30  1  0.16974140  0.83196284  0.25162226  1
  Li  Li31  1  0.82707288  0.66554207  0.75459872  1
  Mg  Mg32  1  0.83519450  0.49938693  0.25124886  1
  Mg  Mg33  1  -0.00531800  0.74958131  0.75373437  1
  Mg  Mg34  1  0.33343735  0.25039432  0.25202367  1
  Mg  Mg35  1  -0.00051772  0.24938526  0.24982226  1
  Mg  Mg36  1  0.00569182  0.75272745  0.25055717  1
  Mg  Mg37  1  0.66695800  0.25018218  0.74741197  1
  Mg  Mg38  1  0.33112752  0.75104371  0.24867609  1
  Mg  Mg39  1  0.00023962  0.24977069  0.75338131  1
  Mg  Mg40  1  0.16603408  0.50166478  0.74833275  1
  Mg  Mg41  1  0.66584064  0.25032790  0.24950273  1
  Mg  Mg42  1  0.83104486  -0.00036044  0.75238298  1
  Mg  Mg43  1  0.50092193  -0.00376235  0.24826051  1
  Mg  Mg44  1  0.82974719  0.50499788  0.75395673  1
  Mg  Mg45  1  0.16781943  -0.00341739  0.25260457  1
  Mg  Mg46  1  0.16760546  0.49962029  0.24966479  1
  Mg  Mg47  1  0.66842084  0.75128745  0.24894682  1
  Mg  Mg48  1  0.50037498  0.49999299  0.24874902  1
  Mg  Mg49  1  0.33419952  0.24980710  0.74287389  1
  Mg  Mg50  1  0.50217929  0.50261901  0.74738567  1
  Mg  Mg51  1  0.66807354  0.74661484  0.75160017  1
  Mg  Mg52  1  0.16658520  -0.00189118  0.75165970  1
  Mg  Mg53  1  -0.00083979  0.41493248  0.25194552  1
  Mg  Mg54  1  0.66606091  0.58462981  0.25098522  1
  Mg  Mg55  1  0.83441710  0.83726413  0.24966154  1
  Mg  Mg56  1  0.50030624  0.16486584  0.24967849  1
  Mg  Mg57  1  -0.00261637  0.58566325  0.75261820  1
  Mg  Mg58  1  0.33386445  0.08280222  0.25162579  1
  Mg  Mg59  1  0.49830682  0.66635595  0.24737152  1
  Mg  Mg60  1  0.16582314  0.16502328  0.25249471  1
  Mg  Mg61  1  0.83400950  0.83137080  0.75317632  1
  Mg  Mg62  1  0.33368069  0.08138261  0.74392632  1
  Mg  Mg63  1  0.33297944  0.41627612  0.74481772  1
  Mg  Mg64  1  0.66764929  0.41656154  0.25051700  1
  Mg  Mg65  1  -0.00154908  0.91469461  0.75345280  1
  Mg  Mg66  1  0.16860545  0.33475123  0.25040734  1
  Mg  Mg67  1  0.49874017  0.33556434  0.74583691  1
  Mg  Mg68  1  0.66615196  0.08472258  0.74720049  1
  Mg  Mg69  1  0.83538179  0.66709522  0.24994830  1
  Mg  Mg70  1  0.49717454  0.83096256  0.74895210  1
  Mg  Mg71  1  0.00077027  0.91781241  0.25178378  1
  Mg  Mg72  1  0.16611254  0.83142181  0.75027374  1
  Mg  Mg73  1  0.49927031  0.16472997  0.74254351  1
  Mg  Mg74  1  0.66765948  0.91741702  0.24765103  1
  Mg  Mg75  1  0.00027530  0.41697310  0.75284811  1
  Mg  Mg76  1  0.66633702  0.91514504  0.74955425  1
  Mg  Mg77  1  0.33312778  0.58617148  0.74860619  1
  Mg  Mg78  1  0.16718780  0.66834264  0.74979352  1
  Mg  Mg79  1  0.49988769  0.66651078  0.74934013  1
  Mg  Mg80  1  0.00152512  0.58564377  0.24896324  1
  Mg  Mg81  1  0.33247242  0.41577150  0.25091365  1
  Mg  Mg82  1  0.83226620  0.33521516  0.25160126  1
  Mg  Mg83  1  0.33153958  0.91248325  0.74701124  1
  Mg  Mg84  1  0.83390590  0.16704643  0.75108659  1
  Mg  Mg85  1  0.83371641  0.33703725  0.75297203  1
  Mg  Mg86  1  0.16730022  0.66838510  0.25090775  1
  Mg  Mg87  1  0.66837722  0.42072619  0.75061387  1
  Mg  Mg88  1  0.66827842  0.08227543  0.24744578  1
  Mg  Mg89  1  -0.00400278  0.08105272  0.25060612  1
  Mg  Mg90  1  0.16751997  0.16511495  0.75005204  1
  Mg  Mg91  1  -0.00045086  0.08427324  0.75116179  1
  Mg  Mg92  1  0.49809201  0.83408392  0.24873797  1
  Mg  Mg93  1  0.16695311  0.33441109  0.74715162  1
  Mg  Mg94  1  0.83238228  0.16361371  0.24887080  1
  Mg  Mg95  1  0.33108008  0.91293033  0.24937401  1
  Fe  Fe96  1  0.30848542  0.82985460  0.39167063  1
  Fe  Fe97  1  0.80838079  0.41775267  0.89251924  1
  Fe  Fe98  1  0.80318493  0.91676821  0.89141297  1
  Fe  Fe99  1  0.98016529  0.83269546  0.89456398  1
  Fe  Fe100  1  0.52541727  0.58188191  0.10858505  1
  Fe  Fe101  1  0.02897358  0.67067061  0.11075220  1
  Fe  Fe102  1  0.52975956  0.91334088  0.10763904  1
  Fe  Fe103  1  0.98121387  0.16634787  0.89126023  1
  Fe  Fe104  1  0.35251750  0.83147475  0.10680177  1
  Fe  Fe105  1  0.85723658  0.41602004  0.11187067  1
  Fe  Fe106  1  0.80612135  0.41818272  0.39274256  1
  Fe  Fe107  1  0.31129391  0.33500072  0.39238395  1
  Fe  Fe108  1  0.35648445  0.33493031  0.60535789  1
  Fe  Fe109  1  0.19460646  0.41441622  0.10875834  1
  Fe  Fe110  1  0.69496051  0.16901708  0.60711376  1
  Fe  Fe111  1  0.52489910  0.07954468  0.60217516  1
  Fe  Fe112  1  0.85474196  0.08189112  0.11002191  1
  Si  Si113  1  0.64443430  0.83557931  0.38652011  1
  Si  Si114  1  0.47726729  0.42182318  0.38818576  1
  Si  Si115  1  0.35410152  0.66418553  0.61311470  1
  Si  Si116  1  0.85930930  0.58231436  0.61691236  1
  Si  Si117  1  0.85849038  0.58528062  0.11465414  1
  Si  Si118  1  0.63318274  0.33213310  0.88541528  1
  Si  Si119  1  0.14581173  0.58188028  0.88492363  1
  Si  Si120  1  0.18989188  0.58341653  0.11137378  1
  Si  Si121  1  0.14541333  0.41865907  0.88345618  1
  Si  Si122  1  0.48257326  0.58365959  0.38601896  1
  Si  Si123  1  0.81006272  0.58891268  0.88923720  1
  Si  Si124  1  0.47437306  0.58246322  0.88434791  1
  Si  Si125  1  0.80486350  0.09029421  0.88852083  1
  Si  Si126  1  0.69699683  0.66783456  0.11473041  1
  Si  Si127  1  0.47626299  0.08118799  0.38392137  1
  Si  Si128  1  0.63919799  0.66771729  0.88520143  1
  Si  Si129  1  0.86422904  0.41817788  0.61663641  1
  Si  Si130  1  0.19169360  0.07868119  0.61373671  1
  Si  Si131  1  0.69287506  0.66440751  0.61636966  1
  Si  Si132  1  0.14873647  0.08009510  0.88675179  1
  Si  Si133  1  0.70044648  0.83194232  0.11394002  1
  Si  Si134  1  0.13557490  0.41715595  0.38930070  1
  Si  Si135  1  0.36162847  0.33098747  0.11283881  1
  Si  Si136  1  0.18644111  0.42137071  0.61070457  1
  Si  Si137  1  0.13870563  0.91791228  0.38975104  1
  Si  Si138  1  0.02322471  0.83347159  0.61476868  1
  Si  Si139  1  0.30980762  0.16208190  0.38866337  1
  Si  Si140  1  0.13979214  0.58269931  0.38685737  1
  Si  Si141  1  0.30606885  0.33293485  0.88185879  1
  Si  Si142  1  0.31061658  0.66053217  0.38868821  1
  Si  Si143  1  0.86566505  0.08266640  0.61174074  1
  Si  Si144  1  0.46920334  0.41769092  0.88255348  1
  Si  Si145  1  0.80691546  0.91793736  0.38532266  1
  Si  Si146  1  0.64363182  0.67131172  0.38727797  1
  Si  Si147  1  0.30869029  0.16796618  0.88210092  1
  Si  Si148  1  0.98420469  0.33557834  0.88978679  1
  Si  Si149  1  0.97298147  0.83693003  0.38708516  1
  Si  Si150  1  0.35837587  0.16677769  0.11545255  1
  Si  Si151  1  0.97500617  0.16436627  0.38724025  1
  Si  Si152  1  0.30845107  0.66629771  0.88372493  1
  Si  Si153  1  0.19205274  0.08828366  0.11702337  1
  Si  Si154  1  0.64034154  0.33193354  0.38841046  1
  Si  Si155  1  0.68688489  0.16863020  0.11271584  1
  Si  Si156  1  0.35476258  0.82878443  0.61371104  1
  Si  Si157  1  0.02164912  0.66913996  0.61543256  1
  Si  Si158  1  0.14732725  0.91839984  0.88712007  1
  Si  Si159  1  0.97388428  0.32861394  0.39046506  1
  Si  Si160  1  0.03133123  0.16486331  0.61451015  1
  Si  Si161  1  0.69364234  0.34137644  0.61314843  1
  Si  Si162  1  0.69428555  0.82833067  0.61309934  1
  Si  Si163  1  0.46500518  0.91503821  0.88145702  1
  Si  Si164  1  0.52677639  0.41459339  0.11346914  1
  Si  Si165  1  0.35145650  0.16418394  0.60624154  1
  Si  Si166  1  0.80634331  0.08401509  0.38557000  1
  Si  Si167  1  0.63273638  0.16641012  0.88299687  1
  Si  Si168  1  0.02579412  0.33093630  0.61487084  1
  Si  Si169  1  0.02594432  0.16484073  0.11598932  1
  Si  Si170  1  0.18980907  0.92587106  0.11347120  1
  Si  Si171  1  0.97746783  0.67201244  0.38730254  1
  Si  Si172  1  0.98248352  0.66273629  0.88895462  1
  Si  Si173  1  0.30472060  0.83091991  0.88279776  1
  Si  Si174  1  0.85818425  0.91717938  0.61406504  1
  Si  Si175  1  0.68879666  0.33100640  0.11331449  1
  Si  Si176  1  0.46870662  0.08249780  0.88066011  1
  Si  Si177  1  0.52925994  0.42247075  0.61124687  1
  Si  Si178  1  0.18552929  0.58577574  0.61320589  1
  Si  Si179  1  0.02749401  0.32917936  0.11395502  1
  Si  Si180  1  0.02486198  0.84134299  0.11640760  1
  Si  Si181  1  0.52209309  0.58806277  0.61299566  1
  Si  Si182  1  0.64110431  0.16555751  0.38507460  1
  Si  Si183  1  0.18918376  0.91353815  0.61381644  1
  Si  Si184  1  0.63065474  0.83286934  0.88710971  1
  Si  Si185  1  0.81173588  0.59000246  0.39002070  1
  Si  Si186  1  0.35542101  0.66717565  0.11110942  1
  Si  Si187  1  0.52240892  0.08363275  0.11274284  1
  Si  Si188  1  0.52431907  0.90342365  0.60954592  1
  Si  Si189  1  0.14076208  0.08190686  0.38748930  1
  Si  Si190  1  0.47878230  0.91721459  0.38869258  1
  Si  Si191  1  0.85904457  0.91489019  0.11683317  1
  O  O192  1  0.27568516  0.11616007  0.08685003  1
  O  O193  1  0.27276423  0.10539565  0.58315235  1
  O  O194  1  0.28531551  0.60114539  0.09475992  1
  O  O195  1  0.26749648  0.61683959  0.58346650  1
  O  O196  1  0.60352254  0.11832829  0.08464239  1
  O  O197  1  0.61053506  0.11296133  0.56025118  1
  O  O198  1  0.62443688  0.61396588  0.07865408  1
  O  O199  1  0.60069061  0.62736025  0.58385930  1
  O  O200  1  0.95671967  0.10781385  0.08096672  1
  O  O201  1  0.95370712  0.11019129  0.58613912  1
  O  O202  1  0.94044969  0.60515936  0.08207337  1
  O  O203  1  0.93375249  0.62590400  0.58544826  1
  O  O204  1  0.11196581  0.34349715  0.08257055  1
  O  O205  1  0.10252922  0.36996571  0.58446137  1
  O  O206  1  0.10539559  0.87676589  0.08758011  1
  O  O207  1  0.10251910  0.86808505  0.58355534  1
  O  O208  1  0.45369846  0.35151132  0.09172957  1
  O  O209  1  0.45413903  0.37017678  0.57651386  1
  O  O210  1  0.44481338  0.85391847  0.06694799  1
  O  O211  1  0.43690129  0.85518682  0.58224997  1
  O  O212  1  0.76947654  0.35078844  0.07992612  1
  O  O213  1  0.77674457  0.37693483  0.58663826  1
  O  O214  1  0.79276900  0.84774642  0.09230007  1
  O  O215  1  0.77045789  0.87275569  0.58413182  1
  O  O216  1  0.28980568  0.38280622  0.07228898  1
  O  O217  1  0.26446821  0.39814035  0.57644018  1
  O  O218  1  0.26460015  0.89897097  0.07605249  1
  O  O219  1  0.26926278  0.87787444  0.58467511  1
  O  O220  1  0.60998299  0.38491713  0.08360288  1
  O  O221  1  0.61773759  0.39958714  0.58654283  1
  O  O222  1  0.63170452  0.88870855  0.07821817  1
  O  O223  1  0.60289003  0.86326344  0.57908616  1
  O  O224  1  0.95460438  0.38533498  0.08116230  1
  O  O225  1  0.93948813  0.37608828  0.58588577  1
  O  O226  1  0.94683615  0.89747417  0.08930110  1
  O  O227  1  0.93634597  0.87789570  0.58379907  1
  O  O228  1  0.11697572  0.14654035  0.09109143  1
  O  O229  1  0.11190290  0.13206923  0.58417994  1
  O  O230  1  0.12428126  0.64416483  0.07523372  1
  O  O231  1  0.10188679  0.63538876  0.58492407  1
  O  O232  1  0.44062974  0.13731801  0.08627693  1
  O  O233  1  0.42759371  0.13666486  0.57098164  1
  O  O234  1  0.43504551  0.64312186  0.07550868  1
  O  O235  1  0.43376608  0.63189332  0.58074976  1
  O  O236  1  0.76439925  0.14547763  0.07681082  1
  O  O237  1  0.79304582  0.13515186  0.57534192  1
  O  O238  1  0.78711855  0.64905696  0.09110467  1
  O  O239  1  0.76740285  0.61914240  0.58619558  1
  O  O240  1  0.06168516  0.11927012  0.41722680  1
  O  O241  1  0.07017722  0.10006738  0.92226320  1
  O  O242  1  0.06689934  0.63020536  0.41709856  1
  O  O243  1  0.06100150  0.60367762  0.91383825  1
  O  O244  1  0.39371500  0.11036699  0.41317273  1
  O  O245  1  0.39176191  0.11991300  0.91344354  1
  O  O246  1  0.39856045  0.61265555  0.41449204  1
  O  O247  1  0.39479277  0.61991959  0.91283601  1
  O  O248  1  0.72825383  0.12110346  0.41691486  1
  O  O249  1  0.71786397  0.12199338  0.91277452  1
  O  O250  1  0.73336402  0.63137726  0.41858298  1
  O  O251  1  0.73065263  0.63162188  0.91608207  1
  O  O252  1  0.22070889  0.37817165  0.42533112  1
  O  O253  1  0.22408368  0.36359763  0.91109304  1
  O  O254  1  0.21873151  0.87297124  0.42723010  1
  O  O255  1  0.22401068  0.86074475  0.91388488  1
  O  O256  1  0.55550969  0.36462174  0.41255219  1
  O  O257  1  0.54953768  0.36679992  0.91210855  1
  O  O258  1  0.56858193  0.87434270  0.41701890  1
  O  O259  1  0.54569005  0.86543639  0.91283510  1
  O  O260  1  0.90019982  0.36004936  0.42678679  1
  O  O261  1  0.90459557  0.36073353  0.92251035  1
  O  O262  1  0.89349304  0.87297495  0.41720321  1
  O  O263  1  0.89090325  0.85995223  0.93348811  1
  O  O264  1  0.05867604  0.37639681  0.41933423  1
  O  O265  1  0.06188188  0.39554416  0.91269269  1
  O  O266  1  0.05502427  0.88539391  0.41859715  1
  O  O267  1  0.06909362  0.90024299  0.92312738  1
  O  O268  1  0.40175014  0.39604365  0.42554946  1
  O  O269  1  0.38744031  0.38374284  0.91089379  1
  O  O270  1  0.40803894  0.88325760  0.42627957  1
  O  O271  1  0.38431198  0.88377123  0.91251016  1
  O  O272  1  0.71882847  0.37642039  0.43024900  1
  O  O273  1  0.71474900  0.37502767  0.92218777  1
  O  O274  1  0.73142152  0.87951625  0.41856162  1
  O  O275  1  0.70786022  0.88088871  0.92353140  1
  O  O276  1  0.22897988  0.12431202  0.41717363  1
  O  O277  1  0.22788798  0.13687443  0.91211630  1
  O  O278  1  0.23335422  0.61583199  0.41766843  1
  O  O279  1  0.22823333  0.63237536  0.91432761  1
  O  O280  1  0.56006044  0.12989121  0.41223560  1
  O  O281  1  0.55515682  0.12615844  0.91232303  1
  O  O282  1  0.56528815  0.63498647  0.41800811  1
  O  O283  1  0.56305845  0.62341383  0.91422957  1
  O  O284  1  0.89593016  0.12599592  0.41654327  1
  O  O285  1  0.87912761  0.14674599  0.91918137  1
  O  O286  1  0.89849614  0.63765362  0.41866219  1
  O  O287  1  0.89782345  0.63509067  0.91713971  1
  O  O288  1  0.16467408  0.00932368  0.08565422  1
  O  O289  1  0.17045274  -0.00382449  0.58528181  1
  O  O290  1  0.16285972  0.50615466  0.07504113  1
  O  O291  1  0.15956516  0.50453399  0.58529884  1
  O  O292  1  0.49967667  0.00786523  0.07622218  1
  O  O293  1  0.50704422  -0.01889143  0.57503612  1
  O  O294  1  0.49687416  0.48846832  0.07408128  1
  O  O295  1  0.51095914  0.50589304  0.58284590  1
  O  O296  1  0.82019323  -0.01165702  0.08181817  1
  O  O297  1  0.85073239  -0.00122508  0.58236132  1
  O  O298  1  0.81941437  0.50885575  0.08525559  1
  O  O299  1  0.85899317  0.50021336  0.58545805  1
  O  O300  1  -0.00398137  0.24611810  0.09038788  1
  O  O301  1  0.01470608  0.24787035  0.58591426  1
  O  O302  1  0.00150810  0.76485939  0.08007009  1
  O  O303  1  0.00839699  0.75119892  0.58512832  1
  O  O304  1  0.34041626  0.24728978  0.08372543  1
  O  O305  1  0.31679611  0.24259002  0.57859614  1
  O  O306  1  0.31354978  0.74005526  0.07542353  1
  O  O307  1  0.33319492  0.74649020  0.58482613  1
  O  O308  1  0.65521021  0.25009601  0.08787962  1
  O  O309  1  0.67426131  0.26565417  0.57556445  1
  O  O310  1  0.67208295  0.75012778  0.08775491  1
  O  O311  1  0.69509693  0.74586176  0.58267212  1
  O  O312  1  0.14828023  0.00133003  0.42013333  1
  O  O313  1  0.18612599  -0.00063608  0.90913381  1
  O  O314  1  0.13430547  0.50130841  0.41740773  1
  O  O315  1  0.17402822  0.49964195  0.91020845  1
  O  O316  1  0.49752520  0.00094174  0.41526327  1
  O  O317  1  0.47879719  -0.00089765  0.90803475  1
  O  O318  1  0.50736350  0.50344737  0.41828130  1
  O  O319  1  0.48306459  0.49943734  0.91292786  1
  O  O320  1  0.81840217  0.00081209  0.41513206  1
  O  O321  1  0.82330600  0.01215083  0.92257748  1
  O  O322  1  0.82505127  0.51307570  0.42699541  1
  O  O323  1  0.82092780  0.51166020  0.92715198  1
  O  O324  1  0.32681964  0.23901143  0.42461698  1
  O  O325  1  0.32558781  0.25085356  0.91068467  1
  O  O326  1  0.32306312  0.73567684  0.42983465  1
  O  O327  1  0.32522260  0.74876071  0.91135243  1
  O  O328  1  0.65035564  0.24705068  0.41558348  1
  O  O329  1  0.63690972  0.24835507  0.91366976  1
  O  O330  1  0.65480127  0.75369697  0.41805717  1
  O  O331  1  0.63826305  0.74927191  0.91609752  1
  O  O332  1  0.99183054  0.24510369  0.41892828  1
  O  O333  1  1.02230192  0.25862746  0.91816539  1
  O  O334  1  0.98801192  0.75474806  0.41778689  1
  O  O335  1  1.01421768  0.73839294  0.92288950  1
  O  O336  1  0.21156257  0.08490396  0.19770944  1
  O  O337  1  0.20695351  0.08140833  0.69426243  1
  O  O338  1  0.19445930  0.58242306  0.19151313  1
  O  O339  1  0.20699991  0.58496252  0.69355127  1
  O  O340  1  0.54167287  0.08158199  0.19387807  1
  O  O341  1  0.55003628  0.09130588  0.69236996  1
  O  O342  1  0.54706369  0.58482728  0.20035525  1
  O  O343  1  0.53549342  0.58614465  0.69241641  1
  O  O344  1  0.87865748  0.08558428  0.20076175  1
  O  O345  1  0.87881654  0.08162380  0.69247263  1
  O  O346  1  0.87774713  0.58469098  0.19689164  1
  O  O347  1  0.87954736  0.58084926  0.69615785  1
  O  O348  1  0.04342210  0.33145987  0.19611880  1
  O  O349  1  0.04416343  0.33267659  0.69538234  1
  O  O350  1  0.04105131  0.83702435  0.19685001  1
  O  O351  1  0.04298813  0.83429677  0.69462843  1
  O  O352  1  0.36633701  0.32962069  0.19194092  1
  O  O353  1  0.37673332  0.33488995  0.69751164  1
  O  O354  1  0.37941237  0.83522806  0.19894970  1
  O  O355  1  0.37454246  0.83250709  0.69296619  1
  O  O356  1  0.70855455  0.33236174  0.19442473  1
  O  O357  1  0.70998198  0.33619388  0.69391149  1
  O  O358  1  0.71233619  0.83334896  0.19537906  1
  O  O359  1  0.71009353  0.83003401  0.69295900  1
  O  O360  1  0.20908239  0.41673371  0.20029775  1
  O  O361  1  0.20646410  0.41859274  0.69188613  1
  O  O362  1  0.21248708  0.92537599  0.19353779  1
  O  O363  1  0.20558433  0.91412854  0.69400298  1
  O  O364  1  0.55091550  0.42336898  0.19299224  1
  O  O365  1  0.54271274  0.42006540  0.69239553  1
  O  O366  1  0.54629901  0.91520619  0.20056874  1
  O  O367  1  0.54725281  0.90274369  0.68937620  1
  O  O368  1  0.88036458  0.41549746  0.20360833  1
  O  O369  1  0.88232145  0.41779592  0.69657156  1
  O  O370  1  0.87918254  0.91604281  0.19743206  1
  O  O371  1  0.87769313  0.91783429  0.69371397  1
  O  O372  1  0.04347688  0.16416597  0.19751196  1
  O  O373  1  0.04786414  0.16645658  0.69479142  1
  O  O374  1  0.04419672  0.66887946  0.20258202  1
  O  O375  1  0.04169228  0.66685045  0.69546377  1
  O  O376  1  0.37550490  0.16498892  0.19587609  1
  O  O377  1  0.37244652  0.16476199  0.68829514  1
  O  O378  1  0.38235535  0.67619108  0.19114382  1
  O  O379  1  0.37528781  0.66233968  0.69255699  1
  O  O380  1  0.70881582  0.16585923  0.19383026  1
  O  O381  1  0.71476581  0.16869362  0.69968755  1
  O  O382  1  0.71176057  0.66728015  0.19638761  1
  O  O383  1  0.70772499  0.66786881  0.69495217  1
  O  O384  1  0.12334787  0.08277888  0.30727809  1
  O  O385  1  0.12628811  0.08334457  0.80526120  1
  O  O386  1  0.12257259  0.58264708  0.30716084  1
  O  O387  1  0.12604863  0.58361370  0.80394005  1
  O  O388  1  0.45789789  0.08067789  0.30355458  1
  O  O389  1  0.44853792  0.08928358  0.80151140  1
  O  O390  1  0.46870469  0.58496097  0.30700548  1
  O  O391  1  0.45511406  0.58289284  0.80396108  1
  O  O392  1  0.78661159  0.08709010  0.30649559  1
  O  O393  1  0.79109783  0.08567876  0.80673621  1
  O  O394  1  0.79276973  0.58734519  0.30934787  1
  O  O395  1  0.79309228  0.58347887  0.80977206  1
  O  O396  1  0.28918418  0.33041282  0.30166901  1
  O  O397  1  0.28782799  0.33354555  0.80143410  1
  O  O398  1  0.29085388  0.83357201  0.30204644  1
  O  O399  1  0.28505054  0.83379135  0.80297136  1
  O  O400  1  0.63531640  0.33228359  0.30906138  1
  O  O401  1  0.61960292  0.33398206  0.80431022  1
  O  O402  1  0.62753596  0.83355528  0.30670499  1
  O  O403  1  0.61936012  0.83221761  0.80605998  1
  O  O404  1  0.95687525  0.32942194  0.30980679  1
  O  O405  1  0.96181771  0.33531511  0.80760025  1
  O  O406  1  0.95605545  0.83509288  0.30736118  1
  O  O407  1  0.95625249  0.83376357  0.80162288  1
  O  O408  1  0.11897269  0.41518469  0.30884502  1
  O  O409  1  0.12636294  0.41723854  0.80248225  1
  O  O410  1  0.12197394  0.92013758  0.31000390  1
  O  O411  1  0.12459235  0.91580336  0.80561262  1
  O  O412  1  0.45353727  0.42541871  0.30876627  1
  O  O413  1  0.45362922  0.41908783  0.80223522  1
  O  O414  1  0.45878087  0.91680366  0.30832993  1
  O  O415  1  0.44809646  0.91007774  0.80208229  1
  O  O416  1  0.78845041  0.41775353  0.30188504  1
  O  O417  1  0.78934133  0.41831392  0.80055853  1
  O  O418  1  0.78731146  0.91410903  0.30623475  1
  O  O419  1  0.78805233  0.91552699  0.79860281  1
  O  O420  1  0.28917811  0.16324649  0.30781407  1
  O  O421  1  0.29020782  0.16745674  0.80144473  1
  O  O422  1  0.28800785  0.67016394  0.30964800  1
  O  O423  1  0.28732630  0.66269003  0.80387681  1
  O  O424  1  0.62486577  0.16430630  0.30488493  1
  O  O425  1  0.61799137  0.16906997  0.80301322  1
  O  O426  1  0.62809132  0.67031638  0.30739699  1
  O  O427  1  0.61954383  0.66822939  0.80552324  1
  O  O428  1  0.95759815  0.16630814  0.30740706  1
  O  O429  1  0.95751390  0.16639520  0.79864240  1
  O  O430  1  0.95668611  0.66922942  0.30768148  1
  O  O431  1  0.96471853  0.66518407  0.80847480  1
  F  F432  1  0.04777438  0.00067381  0.20472557  1
  F  F433  1  0.04573677  -0.00099487  0.70338338  1
  F  F434  1  0.04340140  0.49821841  0.20594481  1
  F  F435  1  0.04472426  0.50108049  0.70244894  1
  F  F436  1  0.37866966  0.00039619  0.20372250  1
  F  F437  1  0.36072566  -0.00348474  0.69309972  1
  F  F438  1  0.38427202  0.48827750  0.19787645  1
  F  F439  1  0.37690714  0.50199825  0.69965729  1
  F  F440  1  0.70823381  0.00035847  0.20131349  1
  F  F441  1  0.71321133  0.00043295  0.69782025  1
  F  F442  1  0.71411083  0.50381533  0.20455967  1
  F  F443  1  0.71322549  0.50080703  0.70001760  1
  F  F444  1  0.21046606  0.24515214  0.20425935  1
  F  F445  1  0.20961377  0.24949966  0.69946476  1
  F  F446  1  0.21169497  0.74642760  0.20187029  1
  F  F447  1  0.20293747  0.74925823  0.69802013  1
  F  F448  1  0.54908460  0.24019899  0.20087070  1
  F  F449  1  0.54490832  0.25363452  0.69912820  1
  F  F450  1  0.54918563  0.75108219  0.20380640  1
  F  F451  1  0.54518338  0.74796768  0.70055875  1
  F  F452  1  0.87851946  0.24996104  0.20490261  1
  F  F453  1  0.88038914  0.25502525  0.70258185  1
  F  F454  1  0.88094530  0.75154954  0.20624811  1
  F  F455  1  0.87963118  0.75239826  0.69934887  1
  F  F456  1  0.28942128  0.00055363  0.30066249  1
  F  F457  1  0.28777465  -0.00037304  0.79589388  1
  F  F458  1  0.28282808  0.49347090  0.30364752  1
  F  F459  1  0.28762914  0.49963621  0.79452595  1
  F  F460  1  0.62300175  0.00161312  0.29987824  1
  F  F461  1  0.63161190  -0.00033162  0.79756187  1
  F  F462  1  0.62571266  0.49986157  0.30135311  1
  F  F463  1  0.61650740  0.49727146  0.79906188  1
  F  F464  1  0.96243326  -0.00055979  0.30472219  1
  F  F465  1  0.95474126  0.00084722  0.79755165  1
  F  F466  1  0.95654305  0.50346003  0.30245016  1
  F  F467  1  0.95709066  0.50024150  0.79957209  1
  F  F468  1  0.12041324  0.24862633  0.30002614  1
  F  F469  1  0.12493104  0.25084206  0.79676330  1
  F  F470  1  0.12042985  0.74800575  0.30575044  1
  F  F471  1  0.12033334  0.74932790  0.79764201  1
  F  F472  1  0.45084541  0.23752758  0.30273180  1
  F  F473  1  0.45353460  0.24878723  0.79386132  1
  F  F474  1  0.45940072  0.74949414  0.30036839  1
  F  F475  1  0.45527397  0.74724431  0.79671818  1
  F  F476  1  0.78812692  0.24805662  0.29784132  1
  F  F477  1  0.78827304  0.25380500  0.79861017  1
  F  F478  1  0.78956509  0.75143704  0.29945404  1
  F  F479  1  0.78506060  0.75257760  0.80031423  1
