# generated using pymatgen
data_K24Na3Li5Mg64Fe17Si79(O5F)48
_symmetry_space_group_name_H-M   'P 1'
_cell_length_a   16.07731446
_cell_length_b   18.56730756
_cell_length_c   20.53460417
_cell_angle_alpha   90.00860526
_cell_angle_beta   100.01713584
_cell_angle_gamma   89.98105888
_symmetry_Int_Tables_number   1
_chemical_formula_structural   K24Na3Li5Mg64Fe17Si79(O5F)48
_chemical_formula_sum   'K24 Na3 Li5 Mg64 Fe17 Si79 O240 F48'
_cell_volume   6036.38990207
_cell_formula_units_Z   1
loop_
 _symmetry_equiv_pos_site_id
 _symmetry_equiv_pos_as_xyz
  1  'x, y, z'
loop_
 _atom_site_type_symbol
 _atom_site_label
 _atom_site_symmetry_multiplicity
 _atom_site_fract_x
 _atom_site_fract_y
 _atom_site_fract_z
 _atom_site_occupancy
  K  K0  1  0.00140436  0.00509199  -0.00262665  1
  K  K1  1  -0.00239544  0.01304595  0.50837604  1
  K  K2  1  0.00010776  0.49738318  -0.00602155  1
  K  K3  1  -0.00252052  0.49517674  0.50462818  1
  K  K4  1  0.32794978  -0.00158679  0.00332704  1
  K  K5  1  0.33387701  0.00477983  0.49376918  1
  K  K6  1  0.33880496  0.49903074  -0.00192959  1
  K  K7  1  0.33532795  0.49687854  0.50461280  1
  K  K8  1  0.67460878  0.00197947  0.00044448  1
  K  K9  1  0.66811614  0.00070083  0.50262156  1
  K  K10  1  0.65995250  0.49761412  -0.00120105  1
  K  K11  1  0.66389564  0.50106755  0.50300992  1
  K  K12  1  0.15888795  0.24841695  -0.00645256  1
  K  K13  1  0.16989732  0.24662253  0.50469358  1
  K  K14  1  0.15989750  0.75403514  -0.00119913  1
  K  K15  1  0.17330158  0.75089485  0.50265927  1
  K  K16  1  0.49925935  0.25049627  -0.00023409  1
  K  K17  1  0.50573863  0.25013545  0.50361043  1
  K  K18  1  0.50412863  0.74622238  0.00243853  1
  K  K19  1  0.49999814  0.74638193  0.49452669  1
  K  K20  1  0.83975107  0.24717544  -0.00865939  1
  K  K21  1  0.83984586  0.24757493  0.50365913  1
  K  K22  1  0.83532492  0.74874348  -0.00612525  1
  K  K23  1  0.83224223  0.75803564  0.50533447  1
  Na  Na24  1  0.16684354  0.00220505  0.24673906  1
  Na  Na25  1  0.83146380  0.83368801  0.75036591  1
  Na  Na26  1  0.50010552  0.82926295  0.25508511  1
  Li  Li27  1  0.33251961  0.24683392  0.24730957  1
  Li  Li28  1  0.83679909  0.00192846  0.75633262  1
  Li  Li29  1  0.33423303  0.57990826  0.74692611  1
  Li  Li30  1  0.83698472  0.16208100  0.75658529  1
  Li  Li31  1  0.50229007  0.33535430  0.74373095  1
  Mg  Mg32  1  0.83124597  0.49979778  0.25152213  1
  Mg  Mg33  1  0.66584728  0.74971892  0.24983191  1
  Mg  Mg34  1  0.00019810  0.24991366  0.25347049  1
  Mg  Mg35  1  0.49935772  0.49982359  0.25023059  1
  Mg  Mg36  1  -0.00125223  0.74964528  0.75066575  1
  Mg  Mg37  1  0.16454262  0.00075924  0.75328796  1
  Mg  Mg38  1  0.83550785  0.49908618  0.75089749  1
  Mg  Mg39  1  0.66888601  0.24919376  0.75021789  1
  Mg  Mg40  1  0.66701805  0.24899305  0.24887628  1
  Mg  Mg41  1  0.33582759  0.25237930  0.74781282  1
  Mg  Mg42  1  0.49825344  0.00209701  0.75116200  1
  Mg  Mg43  1  0.49856131  -0.00119591  0.25112162  1
  Mg  Mg44  1  0.17261236  0.50064490  0.74960614  1
  Mg  Mg45  1  0.66754076  0.74969738  0.74738023  1
  Mg  Mg46  1  0.33363232  0.74914558  0.25128348  1
  Mg  Mg47  1  0.49940093  0.49726999  0.74528837  1
  Mg  Mg48  1  0.00047859  0.75011653  0.24533996  1
  Mg  Mg49  1  0.33397540  0.74756432  0.75006936  1
  Mg  Mg50  1  -0.00342517  0.24938590  0.75275550  1
  Mg  Mg51  1  0.83499341  0.00331575  0.25041259  1
  Mg  Mg52  1  0.16614777  0.49993588  0.24700997  1
  Mg  Mg53  1  0.83036422  0.66550633  0.74648119  1
  Mg  Mg54  1  0.16466840  0.66490625  0.24687205  1
  Mg  Mg55  1  0.16766196  0.33342384  0.24970011  1
  Mg  Mg56  1  0.83291382  0.83568936  0.24888094  1
  Mg  Mg57  1  0.66644812  0.41349996  0.74934416  1
  Mg  Mg58  1  0.83307785  0.66645147  0.24656945  1
  Mg  Mg59  1  0.32969225  0.08521656  0.74977181  1
  Mg  Mg60  1  0.49750080  0.33114983  0.25013683  1
  Mg  Mg61  1  0.16685347  0.83414812  0.24692579  1
  Mg  Mg62  1  -0.00115067  0.41659813  0.25248977  1
  Mg  Mg63  1  0.33559416  0.41772206  0.74615089  1
  Mg  Mg64  1  0.33007302  0.91572276  0.75006922  1
  Mg  Mg65  1  0.00245504  0.08682746  0.24959469  1
  Mg  Mg66  1  0.83403374  0.16742164  0.25085097  1
  Mg  Mg67  1  0.33354609  0.41251815  0.25041153  1
  Mg  Mg68  1  0.66549021  0.58369066  0.74411666  1
  Mg  Mg69  1  0.17022310  0.16852612  0.24920073  1
  Mg  Mg70  1  0.16757597  0.33578337  0.74954268  1
  Mg  Mg71  1  0.66635498  0.41548853  0.25008209  1
  Mg  Mg72  1  0.16944802  0.66489267  0.74706467  1
  Mg  Mg73  1  0.83271942  0.33517768  0.25314896  1
  Mg  Mg74  1  0.67223023  0.08261682  0.75441590  1
  Mg  Mg75  1  0.16422379  0.16575991  0.75137904  1
  Mg  Mg76  1  -0.00145422  0.58344811  0.74785636  1
  Mg  Mg77  1  0.66558041  0.58430117  0.25094730  1
  Mg  Mg78  1  0.16453678  0.83416330  0.75052075  1
  Mg  Mg79  1  -0.00198782  0.91761913  0.75443138  1
  Mg  Mg80  1  0.50007886  0.16953291  0.75091489  1
  Mg  Mg81  1  0.33300645  0.08592549  0.24946620  1
  Mg  Mg82  1  0.50028890  0.66313424  0.25118395  1
  Mg  Mg83  1  0.66696413  0.08459911  0.24892209  1
  Mg  Mg84  1  0.66521084  0.91623888  0.25176891  1
  Mg  Mg85  1  0.49818651  0.16584476  0.24818202  1
  Mg  Mg86  1  0.66724554  0.91845731  0.74974956  1
  Mg  Mg87  1  0.00057659  0.91814162  0.24684917  1
  Mg  Mg88  1  0.83605591  0.33074270  0.75230843  1
  Mg  Mg89  1  -0.00011526  0.41486114  0.75195325  1
  Mg  Mg90  1  -0.00123899  0.58539265  0.24617575  1
  Mg  Mg91  1  0.49919231  0.83400781  0.74958792  1
  Mg  Mg92  1  -0.00474480  0.08352365  0.75507252  1
  Mg  Mg93  1  0.49801204  0.66337156  0.74656134  1
  Mg  Mg94  1  0.33475507  0.58303682  0.24845750  1
  Mg  Mg95  1  0.33364660  0.91783837  0.25043135  1
  Fe  Fe96  1  0.98116131  0.16401270  0.39166322  1
  Fe  Fe97  1  0.18849472  0.08187472  0.61083113  1
  Fe  Fe98  1  0.69247518  0.16491635  0.10924277  1
  Fe  Fe99  1  0.19500853  0.41819476  0.60853611  1
  Fe  Fe100  1  0.52735676  0.58722097  0.10950441  1
  Fe  Fe101  1  0.47554181  0.58004393  0.39105823  1
  Fe  Fe102  1  0.68830545  0.67460043  0.60475593  1
  Fe  Fe103  1  0.97867097  0.33859409  0.89625986  1
  Fe  Fe104  1  0.14387650  0.91255855  0.89197966  1
  Fe  Fe105  1  0.80834613  0.41728726  0.39161738  1
  Fe  Fe106  1  0.85852953  0.58449226  0.60713307  1
  Fe  Fe107  1  0.19358832  0.08788715  0.10689446  1
  Fe  Fe108  1  0.97447198  0.16282441  0.89593988  1
  Fe  Fe109  1  0.52915680  0.41206896  0.60952264  1
  Fe  Fe110  1  0.02525417  0.66263502  0.10563994  1
  Fe  Fe111  1  0.47558295  0.91882788  0.39260680  1
  Fe  Fe112  1  0.85759438  0.41312735  0.61180449  1
  Si  Si113  1  0.35999050  0.32933957  0.11488270  1
  Si  Si114  1  0.63843545  0.16519668  0.88795677  1
  Si  Si115  1  0.31362235  0.66490906  0.88281868  1
  Si  Si116  1  0.69698920  0.32422840  0.61196234  1
  Si  Si117  1  0.80338239  0.58565173  0.88501144  1
  Si  Si118  1  0.63809668  0.33050668  0.38521406  1
  Si  Si119  1  0.52726373  0.07635242  0.11211901  1
  Si  Si120  1  0.80194344  0.42071844  0.89049144  1
  Si  Si121  1  0.97665484  0.83638564  0.38342068  1
  Si  Si122  1  0.68756914  0.33390104  0.11220217  1
  Si  Si123  1  0.85935843  0.92009871  0.61709589  1
  Si  Si124  1  0.47527739  0.09012314  0.38824129  1
  Si  Si125  1  0.64177663  0.33100906  0.88542976  1
  Si  Si126  1  0.85721711  0.57983456  0.11159563  1
  Si  Si127  1  0.98087675  0.33361864  0.38994371  1
  Si  Si128  1  0.65072968  0.83150453  0.38850714  1
  Si  Si129  1  0.02062772  0.33762270  0.11657725  1
  Si  Si130  1  0.47327550  0.91900774  0.88605751  1
  Si  Si131  1  0.81095152  0.91725473  0.38611174  1
  Si  Si132  1  0.52451226  0.08588251  0.61822777  1
  Si  Si133  1  0.30625133  0.16923964  0.38509109  1
  Si  Si134  1  0.52072561  0.58236257  0.60840824  1
  Si  Si135  1  0.85862215  0.92137385  0.11394036  1
  Si  Si136  1  0.14552210  0.07978367  0.38698054  1
  Si  Si137  1  0.14596549  0.58879104  0.88468603  1
  Si  Si138  1  0.19253577  0.41182993  0.11344806  1
  Si  Si139  1  0.69083921  0.16032790  0.61895715  1
  Si  Si140  1  0.03006768  0.66719209  0.61277422  1
  Si  Si141  1  0.31276503  0.33638861  0.88544036  1
  Si  Si142  1  0.35741262  0.66883467  0.11114432  1
  Si  Si143  1  0.64125976  0.16658917  0.38427650  1
  Si  Si144  1  0.97401908  0.66428854  0.88584811  1
  Si  Si145  1  0.36098204  0.32870128  0.61058453  1
  Si  Si146  1  0.02764597  0.17369987  0.11428819  1
  Si  Si147  1  0.97277924  0.67187540  0.38254950  1
  Si  Si148  1  0.30160318  0.66436411  0.38562874  1
  Si  Si149  1  0.18938687  0.91403896  0.11137200  1
  Si  Si150  1  0.30826334  0.17159742  0.88591810  1
  Si  Si151  1  0.85381326  0.41669477  0.11567425  1
  Si  Si152  1  0.51967275  0.92291576  0.61591031  1
  Si  Si153  1  0.80137003  0.07743631  0.89247450  1
  Si  Si154  1  0.35727075  0.83452990  0.61434484  1
  Si  Si155  1  0.13548697  0.58591034  0.38317030  1
  Si  Si156  1  0.47327215  0.40824943  0.38659799  1
  Si  Si157  1  0.30403409  0.83076775  0.38732504  1
  Si  Si158  1  0.63688188  0.83312207  0.88570644  1
  Si  Si159  1  0.31405851  0.82770672  0.88775522  1
  Si  Si160  1  0.52173822  0.41718697  0.11273909  1
  Si  Si161  1  0.36675047  0.16339315  0.11065745  1
  Si  Si162  1  0.80625847  0.08307346  0.38837779  1
  Si  Si163  1  0.02945233  0.33284839  0.61437221  1
  Si  Si164  1  0.36102686  0.66991061  0.61414950  1
  Si  Si165  1  0.14956951  0.42299133  0.88941606  1
  Si  Si166  1  0.69194246  0.83759070  0.11354135  1
  Si  Si167  1  0.63728183  0.66792294  0.88372645  1
  Si  Si168  1  0.68332348  0.84343407  0.61170353  1
  Si  Si169  1  0.69818575  0.67074881  0.11074367  1
  Si  Si170  1  0.52138009  0.91346707  0.11539333  1
  Si  Si171  1  0.14050396  0.42188435  0.38496496  1
  Si  Si172  1  0.80132290  0.91377394  0.88735680  1
  Si  Si173  1  0.85813315  0.08217339  0.61936747  1
  Si  Si174  1  0.81253167  0.58784344  0.38539268  1
  Si  Si175  1  0.47701838  0.41554165  0.88291100  1
  Si  Si176  1  0.19758568  0.57872144  0.10957305  1
  Si  Si177  1  0.01905006  0.16932721  0.61614423  1
  Si  Si178  1  0.97225099  0.83132212  0.89016252  1
  Si  Si179  1  0.14043131  0.91329707  0.38212370  1
  Si  Si180  1  0.19338769  0.58926442  0.61166061  1
  Si  Si181  1  0.47674557  0.57929387  0.88225622  1
  Si  Si182  1  0.02077237  0.83345911  0.10999834  1
  Si  Si183  1  0.64709561  0.66786289  0.38765012  1
  Si  Si184  1  0.86529580  0.08686722  0.11286287  1
  Si  Si185  1  0.01970670  0.83110668  0.61493918  1
  Si  Si186  1  0.35949352  0.16473180  0.61359416  1
  Si  Si187  1  0.14860367  0.08255933  0.89099834  1
  Si  Si188  1  0.35188090  0.83197356  0.11473429  1
  Si  Si189  1  0.47066772  0.08537455  0.88629516  1
  Si  Si190  1  0.30191333  0.33454329  0.38521841  1
  Si  Si191  1  0.18657478  0.91184379  0.61215452  1
  O  O192  1  0.28951345  0.11647747  0.07144907  1
  O  O193  1  0.28829448  0.10830448  0.57961934  1
  O  O194  1  0.28191718  0.61010288  0.08346313  1
  O  O195  1  0.27698496  0.62275813  0.58397222  1
  O  O196  1  0.60883609  0.09535687  0.07896468  1
  O  O197  1  0.60870967  0.10841607  0.58797667  1
  O  O198  1  0.61851597  0.62563438  0.07303474  1
  O  O199  1  0.59859537  0.61083090  0.57488591  1
  O  O200  1  0.95155743  0.11531870  0.08829824  1
  O  O201  1  0.93387878  0.12099580  0.58710610  1
  O  O202  1  0.93672398  0.59749211  0.07611009  1
  O  O203  1  0.96217950  0.60959537  0.57810905  1
  O  O204  1  0.10279236  0.36914135  0.08657916  1
  O  O205  1  0.11315206  0.34732957  0.58133816  1
  O  O206  1  0.10614412  0.86183883  0.08409523  1
  O  O207  1  0.10398503  0.85906611  0.58613385  1
  O  O208  1  0.43916532  0.36512298  0.08421259  1
  O  O209  1  0.44633128  0.34242741  0.58035541  1
  O  O210  1  0.43871885  0.86144409  0.08876026  1
  O  O211  1  0.43691613  0.87239938  0.58633560  1
  O  O212  1  0.77301867  0.36537477  0.08608792  1
  O  O213  1  0.78311457  0.33720327  0.58292520  1
  O  O214  1  0.76897923  0.87899746  0.08450886  1
  O  O215  1  0.76878589  0.87885857  0.58818859  1
  O  O216  1  0.26996917  0.37142314  0.08455396  1
  O  O217  1  0.28859257  0.38401382  0.57434109  1
  O  O218  1  0.27164256  0.88206227  0.08031719  1
  O  O219  1  0.26895239  0.87629390  0.58418447  1
  O  O220  1  0.60710488  0.38832725  0.08553286  1
  O  O221  1  0.62370935  0.37826574  0.57551398  1
  O  O222  1  0.60182244  0.87847591  0.08367786  1
  O  O223  1  0.60317793  0.90028213  0.58518280  1
  O  O224  1  0.93909566  0.38994908  0.08762018  1
  O  O225  1  0.95931817  0.39139068  0.58280079  1
  O  O226  1  0.93800855  0.88661972  0.08425213  1
  O  O227  1  0.93540170  0.87924875  0.58374726  1
  O  O228  1  0.10602180  0.15500017  0.07840230  1
  O  O229  1  0.09475063  0.14072804  0.57951693  1
  O  O230  1  0.11870630  0.62551119  0.07247407  1
  O  O231  1  0.12026421  0.65149880  0.58652293  1
  O  O232  1  0.45218271  0.13410912  0.08278258  1
  O  O233  1  0.44911346  0.14234706  0.58825949  1
  O  O234  1  0.43666391  0.64850110  0.07595278  1
  O  O235  1  0.44084437  0.63948323  0.58337863  1
  O  O236  1  0.78928415  0.13672145  0.07610168  1
  O  O237  1  0.76974562  0.12530474  0.58789075  1
  O  O238  1  0.78242396  0.63882678  0.08419434  1
  O  O239  1  0.78296422  0.65403168  0.56941626  1
  O  O240  1  0.07080347  0.10179247  0.42688627  1
  O  O241  1  0.07181723  0.10660207  0.92739170  1
  O  O242  1  0.05221446  0.61780996  0.41081980  1
  O  O243  1  0.06483888  0.62293453  0.91468828  1
  O  O244  1  0.39710054  0.13147255  0.41628480  1
  O  O245  1  0.39297522  0.12315011  0.91637251  1
  O  O246  1  0.37694078  0.61320434  0.42116244  1
  O  O247  1  0.39506711  0.61256511  0.91166828  1
  O  O248  1  0.71857944  0.11062397  0.41322216  1
  O  O249  1  0.71837291  0.11476365  0.92042940  1
  O  O250  1  0.72838140  0.61479429  0.41339598  1
  O  O251  1  0.73100376  0.63412262  0.91428870  1
  O  O252  1  0.22448288  0.37447585  0.41526573  1
  O  O253  1  0.23901655  0.37841072  0.91688661  1
  O  O254  1  0.21680672  0.85813069  0.41344820  1
  O  O255  1  0.23681818  0.85054484  0.92338939  1
  O  O256  1  0.54728892  0.34706899  0.40946828  1
  O  O257  1  0.56175482  0.36859088  0.91401791  1
  O  O258  1  0.57273709  0.86014778  0.42125851  1
  O  O259  1  0.56215880  0.87692884  0.91567303  1
  O  O260  1  0.89952500  0.35576949  0.42227214  1
  O  O261  1  0.89007852  0.38852794  0.92858345  1
  O  O262  1  0.89614590  0.86893018  0.41371569  1
  O  O263  1  0.88686184  0.86564371  0.91443175  1
  O  O264  1  0.05779049  0.39375748  0.41333354  1
  O  O265  1  0.07893746  0.39277948  0.92892852  1
  O  O266  1  0.05757581  0.88688100  0.41432612  1
  O  O267  1  0.05279358  0.87496149  0.92979478  1
  O  O268  1  0.38948601  0.37740051  0.41493470  1
  O  O269  1  0.40073413  0.37905015  0.91639289  1
  O  O270  1  0.38177470  0.87817132  0.42501689  1
  O  O271  1  0.39799858  0.87864443  0.91640440  1
  O  O272  1  0.70846461  0.38667664  0.41986664  1
  O  O273  1  0.72474768  0.37816200  0.91966860  1
  O  O274  1  0.73506116  0.88145922  0.41864398  1
  O  O275  1  0.72635362  0.87016619  0.91941457  1
  O  O276  1  0.23319145  0.12526666  0.41632498  1
  O  O277  1  0.22804394  0.14063753  0.91547270  1
  O  O278  1  0.21354810  0.63949975  0.41212001  1
  O  O279  1  0.23048569  0.63783133  0.91411599  1
  O  O280  1  0.55873823  0.14174874  0.41521436  1
  O  O281  1  0.55611274  0.13111048  0.91650531  1
  O  O282  1  0.56739462  0.64267600  0.42000958  1
  O  O283  1  0.56321266  0.62478468  0.91487069  1
  O  O284  1  0.88337669  0.13210992  0.42432920  1
  O  O285  1  0.88434931  0.11815383  0.93026297  1
  O  O286  1  0.88820681  0.64800814  0.41069962  1
  O  O287  1  0.89735606  0.62114957  0.91458351  1
  O  O288  1  0.16579167  -0.00798516  0.07896387  1
  O  O289  1  0.16453372  -0.01190242  0.57610901  1
  O  O290  1  0.18578204  0.49395766  0.08299642  1
  O  O291  1  0.16873958  0.51331232  0.57455261  1
  O  O292  1  0.49750331  -0.00596482  0.08379595  1
  O  O293  1  0.49453736  0.00507319  0.58952607  1
  O  O294  1  0.49913281  0.49390325  0.07663482  1
  O  O295  1  0.49009804  0.50418318  0.57839015  1
  O  O296  1  0.84707786  0.00321987  0.08492895  1
  O  O297  1  0.84843682  0.00126783  0.58336047  1
  O  O298  1  0.82545326  0.49762927  0.08738225  1
  O  O299  1  0.81747524  0.49791158  0.57083667  1
  O  O300  1  -0.00511788  0.25637392  0.08998387  1
  O  O301  1  -0.00615542  0.25137259  0.59018424  1
  O  O302  1  -0.00482168  0.75646991  0.07521902  1
  O  O303  1  0.00160237  0.74951740  0.58500038  1
  O  O304  1  0.35225504  0.24797088  0.08410136  1
  O  O305  1  0.33106130  0.24512363  0.58571706  1
  O  O306  1  0.32846037  0.75079277  0.08390440  1
  O  O307  1  0.34518256  0.75285619  0.58388327  1
  O  O308  1  0.66181117  0.25784370  0.07629530  1
  O  O309  1  0.66713503  0.24020967  0.58752396  1
  O  O310  1  0.68778304  0.75551551  0.08349612  1
  O  O311  1  0.65857284  0.76945621  0.57225349  1
  O  O312  1  0.16931920  -0.00562921  0.40754890  1
  O  O313  1  0.18389393  0.00431871  0.91947706  1
  O  O314  1  0.15707654  0.50488420  0.41302339  1
  O  O315  1  0.16807824  0.50795458  0.91518796  1
  O  O316  1  0.49254369  0.01413651  0.42693394  1
  O  O317  1  0.48199109  0.00198390  0.91521995  1
  O  O318  1  0.50008293  0.48466664  0.42130135  1
  O  O319  1  0.49133258  0.49782417  0.91449396  1
  O  O320  1  0.82387887  -0.00084898  0.41591102  1
  O  O321  1  0.80667453  -0.00669698  0.92354708  1
  O  O322  1  0.84457126  0.51154178  0.41693703  1
  O  O323  1  0.79767332  0.50559477  0.91762662  1
  O  O324  1  0.30811897  0.25208973  0.41503838  1
  O  O325  1  0.32493685  0.25391470  0.91608620  1
  O  O326  1  0.31728664  0.74700390  0.41422464  1
  O  O327  1  0.34291665  0.74502950  0.91310492  1
  O  O328  1  0.66658449  0.24797387  0.41181980  1
  O  O329  1  0.65123443  0.24828623  0.91681059  1
  O  O330  1  0.67746950  0.74917356  0.41438637  1
  O  O331  1  0.63699312  0.75025302  0.91465402  1
  O  O332  1  1.01787496  0.25674128  0.41922534  1
  O  O333  1  0.99158414  0.25102159  0.93927604  1
  O  O334  1  0.99714776  0.75371524  0.41146586  1
  O  O335  1  0.97741543  0.74572001  0.91775389  1
  O  O336  1  0.21693968  0.09342090  0.19675922  1
  O  O337  1  0.21025493  0.08216728  0.70277285  1
  O  O338  1  0.20957406  0.58102433  0.19084048  1
  O  O339  1  0.20805760  0.58467368  0.69192744  1
  O  O340  1  0.54456511  0.08004846  0.19332119  1
  O  O341  1  0.54128526  0.08410454  0.69857011  1
  O  O342  1  0.54706603  0.58219034  0.20064522  1
  O  O343  1  0.54140793  0.58424650  0.69028501  1
  O  O344  1  0.87556004  0.08458789  0.19371987  1
  O  O345  1  0.87753259  0.08055609  0.69802682  1
  O  O346  1  0.87602807  0.58299271  0.19288097  1
  O  O347  1  0.87831134  0.58236060  0.70060732  1
  O  O348  1  0.04186250  0.33766986  0.19708867  1
  O  O349  1  0.04745460  0.33417510  0.69598775  1
  O  O350  1  0.03919253  0.83309428  0.19120120  1
  O  O351  1  0.04020682  0.83215134  0.69512063  1
  O  O352  1  0.37755408  0.33441982  0.19442222  1
  O  O353  1  0.37251153  0.33180748  0.69135428  1
  O  O354  1  0.36589742  0.83118332  0.19408667  1
  O  O355  1  0.37558708  0.83459484  0.69512356  1
  O  O356  1  0.70734379  0.33247151  0.19315239  1
  O  O357  1  0.71091955  0.33014418  0.69349316  1
  O  O358  1  0.71033450  0.83600158  0.19394200  1
  O  O359  1  0.69449325  0.83606449  0.69138868  1
  O  O360  1  0.20932263  0.41550341  0.19380519  1
  O  O361  1  0.21281199  0.41761000  0.70038923  1
  O  O362  1  0.21245570  0.90877619  0.19126181  1
  O  O363  1  0.20965343  0.91410076  0.69308667  1
  O  O364  1  0.54084797  0.41589943  0.19387988  1
  O  O365  1  0.54913861  0.41754514  0.69990764  1
  O  O366  1  0.54858996  0.92004948  0.19413284  1
  O  O367  1  0.53747157  0.91853431  0.69639080  1
  O  O368  1  0.87610571  0.41703966  0.19610762  1
  O  O369  1  0.87816250  0.41707928  0.70409867  1
  O  O370  1  0.87470186  0.91772635  0.19450669  1
  O  O371  1  0.88401714  0.92112527  0.69538761  1
  O  O372  1  0.04541337  0.17124686  0.19517178  1
  O  O373  1  0.04285939  0.16574237  0.69674306  1
  O  O374  1  0.04393723  0.66586844  0.19758657  1
  O  O375  1  0.04571903  0.66701579  0.69401563  1
  O  O376  1  0.38261737  0.16155098  0.19084056  1
  O  O377  1  0.37663341  0.16435132  0.69483878  1
  O  O378  1  0.37405967  0.66678692  0.19203186  1
  O  O379  1  0.37883617  0.67186532  0.69390930  1
  O  O380  1  0.71288982  0.16615074  0.20128480  1
  O  O381  1  0.70609375  0.16274444  0.69838842  1
  O  O382  1  0.71215291  0.66843972  0.19174815  1
  O  O383  1  0.70847462  0.66792123  0.69753274  1
  O  O384  1  0.11941618  0.09192182  0.30804352  1
  O  O385  1  0.12577831  0.08419659  0.80975004  1
  O  O386  1  0.12074678  0.58278424  0.30262141  1
  O  O387  1  0.12607017  0.58685131  0.80458545  1
  O  O388  1  0.45915960  0.08612545  0.30725613  1
  O  O389  1  0.45372321  0.08365839  0.80603761  1
  O  O390  1  0.45256355  0.58014643  0.29928814  1
  O  O391  1  0.46226586  0.58204153  0.80305044  1
  O  O392  1  0.79134951  0.08226971  0.30742529  1
  O  O393  1  0.78467207  0.07939149  0.81332611  1
  O  O394  1  0.79202309  0.58677111  0.30361587  1
  O  O395  1  0.78729584  0.58310841  0.80541123  1
  O  O396  1  0.28471720  0.33777948  0.30558794  1
  O  O397  1  0.29360218  0.33386569  0.80565908  1
  O  O398  1  0.28836301  0.83224575  0.30639132  1
  O  O399  1  0.29375842  0.83203124  0.80663539  1
  O  O400  1  0.62256373  0.33184416  0.30373927  1
  O  O401  1  0.62909588  0.33091250  0.80640200  1
  O  O402  1  0.63815046  0.83320609  0.30824005  1
  O  O403  1  0.61962058  0.83395791  0.80557363  1
  O  O404  1  0.95875839  0.33537502  0.30783994  1
  O  O405  1  0.95964243  0.33375393  0.80481329  1
  O  O406  1  0.95579952  0.83467110  0.30283484  1
  O  O407  1  0.96729737  0.83082183  0.81094932  1
  O  O408  1  0.12344296  0.41991750  0.30416747  1
  O  O409  1  0.12725017  0.41901539  0.80911810  1
  O  O410  1  0.11701998  0.90778542  0.30280421  1
  O  O411  1  0.12379538  0.91460333  0.80018707  1
  O  O412  1  0.45480505  0.41339265  0.30527811  1
  O  O413  1  0.45518029  0.41825920  0.80400641  1
  O  O414  1  0.45230259  0.92320913  0.30280986  1
  O  O415  1  0.45529280  0.91710345  0.80565106  1
  O  O416  1  0.78716237  0.41735218  0.29911371  1
  O  O417  1  0.78718751  0.41830837  0.81006664  1
  O  O418  1  0.79282308  0.91747860  0.30542791  1
  O  O419  1  0.77856617  0.91908183  0.80914111  1
  O  O420  1  0.29007814  0.16812914  0.30567005  1
  O  O421  1  0.29251075  0.16929817  0.80585991  1
  O  O422  1  0.28536897  0.66338775  0.30429484  1
  O  O423  1  0.29046000  0.66797084  0.80344822  1
  O  O424  1  0.62212466  0.16536878  0.30374308  1
  O  O425  1  0.62147606  0.16435347  0.80799602  1
  O  O426  1  0.62790887  0.66753715  0.30636435  1
  O  O427  1  0.61892815  0.66736111  0.80387544  1
  O  O428  1  0.95424490  0.16643706  0.29965371  1
  O  O429  1  0.96026001  0.16672748  0.80576082  1
  O  O430  1  0.95538196  0.66979554  0.30195982  1
  O  O431  1  0.95832585  0.66597575  0.80604868  1
  F  F432  1  0.03083349  0.00172184  0.19777441  1
  F  F433  1  0.04497150  0.00213171  0.70411085  1
  F  F434  1  0.04404151  0.49909572  0.20040911  1
  F  F435  1  0.04878787  0.50000754  0.70623585  1
  F  F436  1  0.37922833  0.00137976  0.19890934  1
  F  F437  1  0.37724515  -0.00081097  0.70329954  1
  F  F438  1  0.37572798  0.49583424  0.19985611  1
  F  F439  1  0.37990305  0.49861150  0.69864965  1
  F  F440  1  0.71416989  -0.00108000  0.20336354  1
  F  F441  1  0.69907988  0.00065460  0.69981064  1
  F  F442  1  0.71043725  0.50234833  0.20083590  1
  F  F443  1  0.71316642  0.49836372  0.70338072  1
  F  F444  1  0.20750287  0.25436135  0.20015198  1
  F  F445  1  0.21283204  0.24896925  0.70428204  1
  F  F446  1  0.21100352  0.74751095  0.20195725  1
  F  F447  1  0.21331250  0.75237742  0.70183347  1
  F  F448  1  0.54570872  0.24956332  0.20027709  1
  F  F449  1  0.54853321  0.24501143  0.70303010  1
  F  F450  1  0.55043029  0.74070001  0.19963913  1
  F  F451  1  0.54222121  0.75131179  0.70217065  1
  F  F452  1  0.87794588  0.25453942  0.20316624  1
  F  F453  1  0.87958754  0.25137099  0.70290319  1
  F  F454  1  0.87730512  0.75238181  0.19901931  1
  F  F455  1  0.88361021  0.74254946  0.70023344  1
  F  F456  1  0.29969126  0.00134633  0.30097864  1
  F  F457  1  0.29106059  -0.00247012  0.80007501  1
  F  F458  1  0.28561361  0.49953421  0.29538081  1
  F  F459  1  0.29104634  0.49951565  0.80050542  1
  F  F460  1  0.62345012  0.00103500  0.29878936  1
  F  F461  1  0.61566258  -0.00097781  0.80137444  1
  F  F462  1  0.62248569  0.49775145  0.29864848  1
  F  F463  1  0.62208787  0.50408414  0.79799042  1
  F  F464  1  0.95420180  -0.00083157  0.29872790  1
  F  F465  1  0.96222858  -0.00143267  0.80612382  1
  F  F466  1  0.95510619  0.50309864  0.29643097  1
  F  F467  1  0.95965837  0.50231095  0.80363711  1
  F  F468  1  0.12201296  0.25349757  0.29876366  1
  F  F469  1  0.12434455  0.25147628  0.79906740  1
  F  F470  1  0.12037849  0.75023018  0.29622271  1
  F  F471  1  0.12335074  0.74793724  0.79668242  1
  F  F472  1  0.45782940  0.24804837  0.29662853  1
  F  F473  1  0.45167248  0.24496907  0.80111502  1
  F  F474  1  0.44838628  0.73715410  0.30243373  1
  F  F475  1  0.45553605  0.75073364  0.79858649  1
  F  F476  1  0.78799515  0.25184976  0.29967757  1
  F  F477  1  0.78520456  0.25402103  0.80266733  1
  F  F478  1  0.79036375  0.75087702  0.29464697  1
  F  F479  1  0.78259214  0.74155308  0.80333044  1
