# generated using pymatgen
data_K24Na3Li5Mg64Fe17Si79(O5F)48
_symmetry_space_group_name_H-M   'P 1'
_cell_length_a   16.10047388
_cell_length_b   18.58748498
_cell_length_c   20.56611971
_cell_angle_alpha   89.99684121
_cell_angle_beta   100.02099232
_cell_angle_gamma   90.01661163
_symmetry_Int_Tables_number   1
_chemical_formula_structural   K24Na3Li5Mg64Fe17Si79(O5F)48
_chemical_formula_sum   'K24 Na3 Li5 Mg64 Fe17 Si79 O240 F48'
_cell_volume   6060.87046880
_cell_formula_units_Z   1
loop_
 _symmetry_equiv_pos_site_id
 _symmetry_equiv_pos_as_xyz
  1  'x, y, z'
loop_
 _atom_site_type_symbol
 _atom_site_label
 _atom_site_symmetry_multiplicity
 _atom_site_fract_x
 _atom_site_fract_y
 _atom_site_fract_z
 _atom_site_occupancy
  K  K0  1  -0.00521522  0.00383840  -0.00387223  1
  K  K1  1  0.00466678  -0.00266267  0.50470464  1
  K  K2  1  0.00130910  0.48916903  -0.00512069  1
  K  K3  1  -0.00026109  0.50130357  0.50044988  1
  K  K4  1  0.34159670  -0.00544738  -0.00260260  1
  K  K5  1  0.33536509  -0.01380684  0.50882760  1
  K  K6  1  0.32393308  0.50170893  -0.00555938  1
  K  K7  1  0.33092771  0.49805853  0.49954012  1
  K  K8  1  0.65174460  -0.00463286  -0.00401228  1
  K  K9  1  0.65802340  -0.00439841  0.50105266  1
  K  K10  1  0.67843901  0.49500117  -0.00590642  1
  K  K11  1  0.66961443  0.50816374  0.50786894  1
  K  K12  1  0.15355375  0.24828918  0.00971927  1
  K  K13  1  0.16485757  0.25073068  0.49599514  1
  K  K14  1  0.16621084  0.74807900  -0.00139845  1
  K  K15  1  0.17037167  0.75274038  0.50454677  1
  K  K16  1  0.50073360  0.24874298  -0.00714641  1
  K  K17  1  0.49282111  0.25037655  0.49947177  1
  K  K18  1  0.49214846  0.75633481  0.00044783  1
  K  K19  1  0.50644573  0.75012686  0.50245162  1
  K  K20  1  0.84875915  0.25293884  -0.00664624  1
  K  K21  1  0.83973871  0.25678052  0.50945772  1
  K  K22  1  0.83892848  0.75598386  -0.00674935  1
  K  K23  1  0.83161377  0.74388396  0.50403916  1
  Na  Na24  1  0.32520508  0.24806921  0.24634085  1
  Na  Na25  1  0.83584622  0.32771794  0.74795556  1
  Na  Na26  1  0.00068022  0.58114007  0.25548410  1
  Li  Li27  1  0.33551510  0.75100793  0.25200699  1
  Li  Li28  1  0.16698308  -0.00137158  0.74977988  1
  Li  Li29  1  0.33006826  0.41797894  0.74650471  1
  Li  Li30  1  0.16376648  0.17195603  0.24125362  1
  Li  Li31  1  0.83557831  0.16895458  0.74950186  1
  Mg  Mg32  1  0.16477879  0.50127619  0.25166184  1
  Mg  Mg33  1  0.67037408  0.25020136  0.75192898  1
  Mg  Mg34  1  -0.00101498  0.75171435  0.75196088  1
  Mg  Mg35  1  0.16804932  0.00157029  0.24557116  1
  Mg  Mg36  1  0.83365299  -0.00024919  0.25080726  1
  Mg  Mg37  1  0.83290867  0.00243249  0.75425333  1
  Mg  Mg38  1  0.33293656  0.25327806  0.74814483  1
  Mg  Mg39  1  0.49717757  0.50038587  0.25244792  1
  Mg  Mg40  1  0.83342064  0.49946359  0.25082818  1
  Mg  Mg41  1  0.00603786  0.24904035  0.24773951  1
  Mg  Mg42  1  0.66744890  0.25137811  0.24842637  1
  Mg  Mg43  1  0.00001828  0.74813792  0.25367975  1
  Mg  Mg44  1  0.50069026  0.00085163  0.24964804  1
  Mg  Mg45  1  0.49875478  -0.00142336  0.74860246  1
  Mg  Mg46  1  0.66248344  0.74961996  0.25424611  1
  Mg  Mg47  1  0.16980261  0.49790875  0.74861983  1
  Mg  Mg48  1  0.33377572  0.74963177  0.74833334  1
  Mg  Mg49  1  0.83580130  0.49881371  0.74912246  1
  Mg  Mg50  1  -0.00170736  0.24757619  0.74532684  1
  Mg  Mg51  1  0.49857224  0.49882198  0.75012034  1
  Mg  Mg52  1  0.66654209  0.75148738  0.75364226  1
  Mg  Mg53  1  0.83759035  0.66586215  0.75462914  1
  Mg  Mg54  1  0.83783859  0.16626088  0.24825793  1
  Mg  Mg55  1  0.00210877  0.41400732  0.25071458  1
  Mg  Mg56  1  0.49853502  0.66762454  0.25466784  1
  Mg  Mg57  1  0.49970959  0.33552027  0.75101324  1
  Mg  Mg58  1  0.66402305  0.91636103  0.75430767  1
  Mg  Mg59  1  0.00180912  0.91792032  0.75346639  1
  Mg  Mg60  1  0.49779609  0.16822555  0.24740536  1
  Mg  Mg61  1  0.66832117  0.08648349  0.74893935  1
  Mg  Mg62  1  0.16350819  0.33210590  0.24714513  1
  Mg  Mg63  1  0.49974674  0.66552765  0.75052060  1
  Mg  Mg64  1  0.16901439  0.66843181  0.25208336  1
  Mg  Mg65  1  0.17005445  0.83209239  0.24900724  1
  Mg  Mg66  1  0.49933140  0.16671096  0.74895596  1
  Mg  Mg67  1  0.00116505  0.91511608  0.25115828  1
  Mg  Mg68  1  0.16671484  0.83699934  0.75041037  1
  Mg  Mg69  1  0.16531717  0.66527839  0.74823364  1
  Mg  Mg70  1  0.50089925  0.83451586  0.25201403  1
  Mg  Mg71  1  0.66664456  0.08564922  0.24770781  1
  Mg  Mg72  1  0.66516505  0.58468082  0.25412495  1
  Mg  Mg73  1  0.83502736  0.83584345  0.75666096  1
  Mg  Mg74  1  0.16583901  0.16405561  0.74604687  1
  Mg  Mg75  1  0.66634391  0.41610234  0.25001426  1
  Mg  Mg76  1  0.83736823  0.33404169  0.24821624  1
  Mg  Mg77  1  0.67032359  0.41585611  0.75083542  1
  Mg  Mg78  1  0.49687355  0.33327671  0.24929777  1
  Mg  Mg79  1  0.33550943  0.91410972  0.24782015  1
  Mg  Mg80  1  0.83237387  0.66573755  0.25437161  1
  Mg  Mg81  1  0.67065417  0.58330203  0.75442564  1
  Mg  Mg82  1  0.66415519  0.91491195  0.25320533  1
  Mg  Mg83  1  0.49941295  0.83600022  0.74980109  1
  Mg  Mg84  1  0.16570609  0.33339461  0.74519132  1
  Mg  Mg85  1  0.00411574  0.08397634  0.24818244  1
  Mg  Mg86  1  0.32979093  0.08451322  0.24551022  1
  Mg  Mg87  1  0.32944930  0.41560334  0.24825230  1
  Mg  Mg88  1  0.83151290  0.83349152  0.25392686  1
  Mg  Mg89  1  0.33094437  0.57995986  0.74739986  1
  Mg  Mg90  1  0.33170250  0.58723244  0.25372767  1
  Mg  Mg91  1  0.33291289  0.91544716  0.74826617  1
  Mg  Mg92  1  0.00029467  0.08208902  0.74772549  1
  Mg  Mg93  1  0.33153901  0.08275014  0.74920308  1
  Mg  Mg94  1  -0.00107490  0.41353286  0.74634430  1
  Mg  Mg95  1  -0.00043296  0.58520108  0.75093684  1
  Fe  Fe96  1  0.64218194  0.82885029  0.89433465  1
  Fe  Fe97  1  0.97856381  0.33112796  0.38832789  1
  Fe  Fe98  1  0.86115945  0.58684379  0.61097212  1
  Fe  Fe99  1  0.02257749  0.33509764  0.10635836  1
  Fe  Fe100  1  0.64347610  0.83467868  0.39592729  1
  Fe  Fe101  1  0.02240460  0.32655563  0.60641280  1
  Fe  Fe102  1  0.97796105  0.66893219  0.89485700  1
  Fe  Fe103  1  0.52539505  0.92130858  0.11061771  1
  Fe  Fe104  1  0.64006590  0.66040440  0.39490907  1
  Fe  Fe105  1  0.14596763  0.59065356  0.39245632  1
  Fe  Fe106  1  0.19013465  0.57938203  0.60999958  1
  Fe  Fe107  1  0.02484972  0.15843102  0.10651096  1
  Fe  Fe108  1  0.81558953  0.41385886  0.88922579  1
  Fe  Fe109  1  0.35653944  0.82560459  0.60718291  1
  Fe  Fe110  1  0.46805502  0.91393199  0.89064444  1
  Fe  Fe111  1  0.52654889  0.91919794  0.60747268  1
  Fe  Fe112  1  0.97714828  0.84148565  0.89443442  1
  Si  Si113  1  0.63909578  0.33513068  0.88834879  1
  Si  Si114  1  0.02415353  0.84081346  0.61618079  1
  Si  Si115  1  0.01939444  0.15670775  0.60973171  1
  Si  Si116  1  0.47332430  0.08874988  0.38329807  1
  Si  Si117  1  0.98327965  0.16276908  0.88224221  1
  Si  Si118  1  0.14668363  0.41338063  0.88384754  1
  Si  Si119  1  0.69248546  0.67112783  0.61881042  1
  Si  Si120  1  0.14795602  0.08355826  0.88195373  1
  Si  Si121  1  0.02468517  0.67049207  0.11711126  1
  Si  Si122  1  0.47228298  0.58324500  0.88579207  1
  Si  Si123  1  0.98125055  0.16203557  0.38607668  1
  Si  Si124  1  0.35809965  0.33704267  0.11334225  1
  Si  Si125  1  0.85507500  0.41944022  0.60794635  1
  Si  Si126  1  0.30943797  0.33333351  0.88235168  1
  Si  Si127  1  0.97369498  0.83539548  0.38798538  1
  Si  Si128  1  0.85694787  0.91531569  0.61855967  1
  Si  Si129  1  0.30943450  0.17008712  0.88348620  1
  Si  Si130  1  0.47569429  0.08597303  0.88563460  1
  Si  Si131  1  0.19517524  0.91119267  0.11261013  1
  Si  Si132  1  0.52482615  0.09355764  0.11055734  1
  Si  Si133  1  0.64173465  0.16943741  0.88446148  1
  Si  Si134  1  0.81154682  0.92449545  0.38954757  1
  Si  Si135  1  0.81021660  0.09100752  0.88404941  1
  Si  Si136  1  0.19308120  0.08505981  0.61299106  1
  Si  Si137  1  0.14204527  0.07412574  0.38417206  1
  Si  Si138  1  0.80808391  0.57602172  0.38786961  1
  Si  Si139  1  0.03013452  0.67537083  0.61090572  1
  Si  Si140  1  0.47055421  0.92306346  0.38748718  1
  Si  Si141  1  0.36127781  0.66285816  0.11689755  1
  Si  Si142  1  0.69281728  0.33537045  0.11369392  1
  Si  Si143  1  0.69460691  0.83101569  0.11641297  1
  Si  Si144  1  0.52155777  0.09030698  0.61048993  1
  Si  Si145  1  0.85729755  0.91079994  0.11770275  1
  Si  Si146  1  0.46654625  0.57811076  0.39057309  1
  Si  Si147  1  0.19156736  0.58787526  0.11491262  1
  Si  Si148  1  0.30618974  0.66479607  0.88475838  1
  Si  Si149  1  0.31014213  0.67445892  0.38693908  1
  Si  Si150  1  0.14174763  0.92204496  0.88592460  1
  Si  Si151  1  0.52468758  0.41374936  0.11382162  1
  Si  Si152  1  0.53182239  0.58205270  0.61778112  1
  Si  Si153  1  0.14380813  0.91066031  0.38476415  1
  Si  Si154  1  0.36034208  0.82886612  0.11389976  1
  Si  Si155  1  0.20012218  0.07597674  0.10700425  1
  Si  Si156  1  0.80656954  0.41175071  0.38488769  1
  Si  Si157  1  0.47364865  0.41766738  0.88468497  1
  Si  Si158  1  0.85426064  0.58957101  0.11673542  1
  Si  Si159  1  0.80827644  0.58261808  0.89060289  1
  Si  Si160  1  0.36174983  0.65579874  0.61222071  1
  Si  Si161  1  0.29754789  0.83064396  0.88753201  1
  Si  Si162  1  0.46699504  0.41122730  0.38508124  1
  Si  Si163  1  0.85330307  0.42428011  0.11105776  1
  Si  Si164  1  0.98648241  0.32677869  0.88544732  1
  Si  Si165  1  0.18989232  0.41099371  0.61045215  1
  Si  Si166  1  0.85339293  0.07739446  0.61607738  1
  Si  Si167  1  0.19211203  0.91811546  0.61240325  1
  Si  Si168  1  0.68829277  0.66690149  0.11686926  1
  Si  Si169  1  0.80380898  0.92603397  0.89296249  1
  Si  Si170  1  0.85261843  0.07490575  0.11218505  1
  Si  Si171  1  0.02573845  0.83529707  0.11586489  1
  Si  Si172  1  0.69647643  0.83505545  0.61853666  1
  Si  Si173  1  0.35942577  0.16971609  0.11199018  1
  Si  Si174  1  0.36039742  0.33755003  0.61507989  1
  Si  Si175  1  0.68959937  0.33201362  0.61374492  1
  Si  Si176  1  0.64229426  0.65931637  0.88919084  1
  Si  Si177  1  0.52471156  0.57934625  0.11574483  1
  Si  Si178  1  0.35569199  0.17259162  0.61327679  1
  Si  Si179  1  0.96649937  0.67030224  0.39049467  1
  Si  Si180  1  0.30186625  0.16119293  0.38158676  1
  Si  Si181  1  0.14256403  0.57840525  0.88772698  1
  Si  Si182  1  0.14742448  0.42027132  0.38978774  1
  Si  Si183  1  0.69520115  0.16948505  0.11330735  1
  Si  Si184  1  0.52764187  0.41582841  0.61441459  1
  Si  Si185  1  0.19421803  0.42212146  0.11112582  1
  Si  Si186  1  0.31090096  0.83640340  0.38254669  1
  Si  Si187  1  0.64129193  0.17043350  0.38324906  1
  Si  Si188  1  0.69106446  0.16770962  0.61364644  1
  Si  Si189  1  0.63771560  0.33680289  0.38390499  1
  Si  Si190  1  0.80984757  0.09010631  0.38442860  1
  Si  Si191  1  0.30128088  0.32853036  0.38298775  1
  O  O192  1  0.28013302  0.11793379  0.08018888  1
  O  O193  1  0.26990264  0.12658535  0.58223010  1
  O  O194  1  0.26899652  0.62736050  0.08482833  1
  O  O195  1  0.29528753  0.59286194  0.58457576  1
  O  O196  1  0.60346157  0.13443555  0.08289908  1
  O  O197  1  0.60160726  0.12773542  0.58110216  1
  O  O198  1  0.60314536  0.61870624  0.08774400  1
  O  O199  1  0.61262463  0.61647506  0.59045943  1
  O  O200  1  0.92768829  0.09941008  0.07546291  1
  O  O201  1  0.93670036  0.10273902  0.58455518  1
  O  O202  1  0.93570440  0.62683376  0.09043600  1
  O  O203  1  0.95214873  0.62553769  0.57587329  1
  O  O204  1  0.11313323  0.38019056  0.07301800  1
  O  O205  1  0.12498517  0.34794504  0.57904135  1
  O  O206  1  0.10224990  0.87436060  0.08559228  1
  O  O207  1  0.09859400  0.88105347  0.58420170  1
  O  O208  1  0.43882189  0.36938616  0.08168272  1
  O  O209  1  0.44154226  0.37015062  0.58421772  1
  O  O210  1  0.42683997  0.86987314  0.07633002  1
  O  O211  1  0.44183661  0.85990905  0.56555337  1
  O  O212  1  0.76138992  0.38340371  0.08349722  1
  O  O213  1  0.76854367  0.36782092  0.58575892  1
  O  O214  1  0.78398214  0.85174065  0.09087434  1
  O  O215  1  0.78557800  0.85442511  0.59146974  1
  O  O216  1  0.27816782  0.38859782  0.08330044  1
  O  O217  1  0.28156304  0.38962450  0.58606137  1
  O  O218  1  0.26384995  0.85944523  0.08531285  1
  O  O219  1  0.25829420  0.88016282  0.57287513  1
  O  O220  1  0.60024654  0.37165239  0.08461049  1
  O  O221  1  0.60255888  0.37702526  0.58130206  1
  O  O222  1  0.62281367  0.88572123  0.08229040  1
  O  O223  1  0.62952992  0.89261339  0.58213238  1
  O  O224  1  0.92397476  0.39042132  0.07441919  1
  O  O225  1  0.92828711  0.38366314  0.57252102  1
  O  O226  1  0.94117659  0.88387916  0.08875310  1
  O  O227  1  0.94081109  0.89088404  0.58844379  1
  O  O228  1  0.11416506  0.11295875  0.07096372  1
  O  O229  1  0.10192230  0.12199196  0.58122230  1
  O  O230  1  0.10253230  0.63111514  0.08711740  1
  O  O231  1  0.11474381  0.65486635  0.58184813  1
  O  O232  1  0.44351306  0.14617251  0.08141968  1
  O  O233  1  0.43806217  0.14279261  0.58401003  1
  O  O234  1  0.43478532  0.61883881  0.08466253  1
  O  O235  1  0.45111989  0.63134617  0.58715192  1
  O  O236  1  0.76716320  0.12378392  0.08441719  1
  O  O237  1  0.76998301  0.12768280  0.58561418  1
  O  O238  1  0.76838613  0.63567890  0.08539335  1
  O  O239  1  0.76896523  0.64864588  0.58222975  1
  O  O240  1  0.05819017  0.10329072  0.41280425  1
  O  O241  1  0.06471732  0.11060902  0.91305793  1
  O  O242  1  0.04784389  0.62445904  0.42272464  1
  O  O243  1  0.06968640  0.60523877  0.92653845  1
  O  O244  1  0.39565848  0.12604276  0.41369485  1
  O  O245  1  0.39786940  0.12849406  0.91361373  1
  O  O246  1  0.38537621  0.61584914  0.41573263  1
  O  O247  1  0.39410810  0.62111096  0.91558092  1
  O  O248  1  0.72837046  0.12580757  0.41249428  1
  O  O249  1  0.73284427  0.13151035  0.91433060  1
  O  O250  1  0.72771289  0.59354944  0.42157417  1
  O  O251  1  0.71489824  0.59805090  0.91317528  1
  O  O252  1  0.22747046  0.36370912  0.41785153  1
  O  O253  1  0.23341498  0.36914591  0.91498204  1
  O  O254  1  0.22622385  0.86081756  0.41316166  1
  O  O255  1  0.21273008  0.85991291  0.91449156  1
  O  O256  1  0.55612602  0.36846426  0.41331352  1
  O  O257  1  0.55781854  0.37143459  0.91758353  1
  O  O258  1  0.54852164  0.87683949  0.42492144  1
  O  O259  1  0.55141829  0.85427730  0.93287495  1
  O  O260  1  0.87551252  0.35355880  0.41671242  1
  O  O261  1  0.91025664  0.35518789  0.92022801  1
  O  O262  1  0.90272016  0.88367992  0.41668647  1
  O  O263  1  0.88382661  0.87866501  0.92800648  1
  O  O264  1  0.06636319  0.39442047  0.42118797  1
  O  O265  1  0.07168803  0.37520480  0.91597050  1
  O  O266  1  0.06481612  0.87509518  0.41525590  1
  O  O267  1  0.06220054  0.91058905  0.92270156  1
  O  O268  1  0.39409511  0.36561949  0.41423954  1
  O  O269  1  0.39464872  0.37990716  0.91320485  1
  O  O270  1  0.38234474  0.89689563  0.41142023  1
  O  O271  1  0.37356847  0.87960534  0.92428668  1
  O  O272  1  0.71736013  0.38924378  0.41193239  1
  O  O273  1  0.72187915  0.37659527  0.92461950  1
  O  O274  1  0.73863246  0.89494598  0.42628575  1
  O  O275  1  0.72192831  0.90146603  0.92354023  1
  O  O276  1  0.22702893  0.12157670  0.41527579  1
  O  O277  1  0.22901891  0.13623781  0.91254902  1
  O  O278  1  0.23107542  0.65892146  0.42337320  1
  O  O279  1  0.23182831  0.62294861  0.91546725  1
  O  O280  1  0.56100030  0.13477496  0.41191818  1
  O  O281  1  0.56403658  0.13093465  0.91406556  1
  O  O282  1  0.55045697  0.61580121  0.42914156  1
  O  O283  1  0.55751283  0.62787774  0.91686612  1
  O  O284  1  0.89451404  0.13620235  0.41410636  1
  O  O285  1  0.89912211  0.13482611  0.91154892  1
  O  O286  1  0.88391868  0.63354699  0.41575522  1
  O  O287  1  0.87455928  0.64456002  0.92171608  1
  O  O288  1  0.20154160  -0.00891542  0.07990229  1
  O  O289  1  0.18548574  0.00260204  0.58439321  1
  O  O290  1  0.18695611  0.50659088  0.08346497  1
  O  O291  1  0.15671324  0.48744066  0.57729329  1
  O  O292  1  0.50913300  0.01604772  0.07640027  1
  O  O293  1  0.50197768  0.01449629  0.57376735  1
  O  O294  1  0.51772285  0.49666161  0.08505641  1
  O  O295  1  0.51823452  0.49929132  0.58688092  1
  O  O296  1  0.82671436  -0.00937714  0.08923184  1
  O  O297  1  0.82911181  -0.00471176  0.58623356  1
  O  O298  1  0.83786447  0.50861767  0.08529550  1
  O  O299  1  0.82877753  0.49680534  0.57308012  1
  O  O300  1  0.00550654  0.24656016  0.06467391  1
  O  O301  1  -0.00372527  0.23234516  0.57342459  1
  O  O302  1  0.01251176  0.75306856  0.08602226  1
  O  O303  1  0.00662562  0.76015098  0.58548319  1
  O  O304  1  0.33940731  0.25378513  0.08643041  1
  O  O305  1  0.34165944  0.25534202  0.58380737  1
  O  O306  1  0.35876325  0.74447555  0.08730835  1
  O  O307  1  0.33188882  0.73123893  0.57666713  1
  O  O308  1  0.69305198  0.25271289  0.08499740  1
  O  O309  1  0.68113314  0.24976797  0.58185632  1
  O  O310  1  0.66961213  0.74874988  0.08894557  1
  O  O311  1  0.66426898  0.75354374  0.59419356  1
  O  O312  1  0.15978690  -0.00785361  0.41610178  1
  O  O313  1  0.17898636  0.00343579  0.91002396  1
  O  O314  1  0.18033741  0.49748986  0.42108205  1
  O  O315  1  0.16455216  0.49474272  0.91406345  1
  O  O316  1  0.48612226  0.00765723  0.41361229  1
  O  O317  1  0.48639300  0.00963659  0.92214070  1
  O  O318  1  0.46799835  0.49235070  0.41571141  1
  O  O319  1  0.48187427  0.50017716  0.91556833  1
  O  O320  1  0.82799533  0.00911477  0.41421352  1
  O  O321  1  0.82319476  0.01115976  0.91786928  1
  O  O322  1  0.83708287  0.49296345  0.41084045  1
  O  O323  1  0.83938240  0.50626168  0.92519566  1
  O  O324  1  0.30992185  0.24460065  0.40964842  1
  O  O325  1  0.32503129  0.25191774  0.91403058  1
  O  O326  1  0.34393564  0.75707503  0.41053636  1
  O  O327  1  0.31240835  0.74636184  0.91582999  1
  O  O328  1  0.65341869  0.25346802  0.41219164  1
  O  O329  1  0.64343334  0.25096149  0.91534430  1
  O  O330  1  0.66768460  0.74708720  0.43690565  1
  O  O331  1  0.67223435  0.73396661  0.92552810  1
  O  O332  1  1.01117213  0.23761825  0.41967776  1
  O  O333  1  1.00823549  0.24323636  0.91256229  1
  O  O334  1  0.97394952  0.75482658  0.41990694  1
  O  O335  1  1.01117650  0.75550035  0.93592625  1
  O  O336  1  0.21440126  0.07566355  0.18702373  1
  O  O337  1  0.21401955  0.08846789  0.69224065  1
  O  O338  1  0.21217264  0.58617396  0.19464336  1
  O  O339  1  0.21008182  0.58232103  0.70185201  1
  O  O340  1  0.54475788  0.08933382  0.19179835  1
  O  O341  1  0.54107740  0.08774316  0.69142065  1
  O  O342  1  0.54114588  0.57927925  0.19585026  1
  O  O343  1  0.54594414  0.58117004  0.69813706  1
  O  O344  1  0.87314687  0.07995801  0.19335830  1
  O  O345  1  0.87541002  0.07786868  0.69521579  1
  O  O346  1  0.86544356  0.58595655  0.19604885  1
  O  O347  1  0.87830360  0.58405233  0.70245731  1
  O  O348  1  0.04378262  0.33420412  0.19790333  1
  O  O349  1  0.04459492  0.33111388  0.69773105  1
  O  O350  1  0.04319707  0.83430573  0.19632026  1
  O  O351  1  0.04458712  0.83715796  0.69609926  1
  O  O352  1  0.38100653  0.34097319  0.19256831  1
  O  O353  1  0.38132318  0.33179603  0.69448942  1
  O  O354  1  0.38050614  0.83560653  0.19371698  1
  O  O355  1  0.37696243  0.83094571  0.69942537  1
  O  O356  1  0.70863763  0.33416301  0.19412684  1
  O  O357  1  0.69685708  0.33141695  0.69251912  1
  O  O358  1  0.71170094  0.83286902  0.19739068  1
  O  O359  1  0.71364179  0.83629023  0.69936342  1
  O  O360  1  0.21093726  0.41981244  0.19173976  1
  O  O361  1  0.20644333  0.41427342  0.69123281  1
  O  O362  1  0.21052784  0.91496482  0.19300998  1
  O  O363  1  0.21245162  0.91400423  0.69231468  1
  O  O364  1  0.54232566  0.41533689  0.19423898  1
  O  O365  1  0.54409864  0.41555150  0.69454643  1
  O  O366  1  0.54513257  0.92009612  0.20214038  1
  O  O367  1  0.54525502  0.91916000  0.69924329  1
  O  O368  1  0.87039908  0.41914038  0.19149091  1
  O  O369  1  0.88068247  0.42365175  0.68788725  1
  O  O370  1  0.87674017  0.91398165  0.19845199  1
  O  O371  1  0.87476432  0.91881961  0.69859098  1
  O  O372  1  0.04049523  0.16339680  0.19761775  1
  O  O373  1  0.04362381  0.16091494  0.69001384  1
  O  O374  1  0.04606247  0.67503153  0.19611636  1
  O  O375  1  0.04410326  0.67075587  0.69235250  1
  O  O376  1  0.38099272  0.16162159  0.19111355  1
  O  O377  1  0.37534877  0.16934022  0.69361684  1
  O  O378  1  0.38108511  0.65982014  0.19624756  1
  O  O379  1  0.37859981  0.66247811  0.69394079  1
  O  O380  1  0.71091715  0.16823075  0.19389685  1
  O  O381  1  0.70321137  0.16786554  0.69283146  1
  O  O382  1  0.70779082  0.66570326  0.19718228  1
  O  O383  1  0.71056414  0.66742674  0.69972754  1
  O  O384  1  0.12264302  0.07259815  0.30490611  1
  O  O385  1  0.12554163  0.08635367  0.80250703  1
  O  O386  1  0.13427123  0.58604076  0.30236847  1
  O  O387  1  0.12269498  0.58289876  0.80738995  1
  O  O388  1  0.45733114  0.08699519  0.30295633  1
  O  O389  1  0.45665694  0.08622656  0.80457620  1
  O  O390  1  0.45555182  0.58051463  0.30941214  1
  O  O391  1  0.45577795  0.58242627  0.80571839  1
  O  O392  1  0.79002342  0.08724745  0.30380492  1
  O  O393  1  0.78760295  0.08469275  0.80487019  1
  O  O394  1  0.78842499  0.58060358  0.30660516  1
  O  O395  1  0.79088043  0.58307532  0.80909768  1
  O  O396  1  0.28457238  0.33914214  0.30422288  1
  O  O397  1  0.28923958  0.33082056  0.80304578  1
  O  O398  1  0.28884136  0.83811528  0.30293612  1
  O  O399  1  0.28642531  0.83153363  0.80704144  1
  O  O400  1  0.62115203  0.33418774  0.30331502  1
  O  O401  1  0.62154029  0.33490369  0.80760305  1
  O  O402  1  0.62332596  0.83316817  0.30318248  1
  O  O403  1  0.62106034  0.83187827  0.80207783  1
  O  O404  1  0.95397382  0.32967508  0.29700826  1
  O  O405  1  0.97018109  0.33011929  0.80605091  1
  O  O406  1  0.95624449  0.83499289  0.30733336  1
  O  O407  1  0.95636946  0.83570180  0.80212213  1
  O  O408  1  0.12759104  0.41809267  0.30832187  1
  O  O409  1  0.12823756  0.41478536  0.80401326  1
  O  O410  1  0.12392014  0.91379036  0.30443293  1
  O  O411  1  0.12266799  0.91628853  0.80591357  1
  O  O412  1  0.45403518  0.41424575  0.30479549  1
  O  O413  1  0.46162689  0.41706301  0.80550020  1
  O  O414  1  0.45605683  0.92051245  0.30670910  1
  O  O415  1  0.45274141  0.91868244  0.79937524  1
  O  O416  1  0.78602292  0.41286323  0.30362317  1
  O  O417  1  0.78634539  0.42226531  0.79970093  1
  O  O418  1  0.79141656  0.91950610  0.30834843  1
  O  O419  1  0.78917922  0.92118221  0.81127481  1
  O  O420  1  0.28482058  0.15525012  0.30323221  1
  O  O421  1  0.29193505  0.16831039  0.80327469  1
  O  O422  1  0.29121253  0.66871992  0.30668251  1
  O  O423  1  0.29124583  0.66596584  0.80487379  1
  O  O424  1  0.62435467  0.16908907  0.30280947  1
  O  O425  1  0.62117881  0.16755425  0.80424895  1
  O  O426  1  0.61933635  0.66476764  0.30181822  1
  O  O427  1  0.62198358  0.66389110  0.80813561  1
  O  O428  1  0.95737199  0.16194119  0.30531795  1
  O  O429  1  0.96548105  0.16378371  0.80290400  1
  O  O430  1  0.94936432  0.67571613  0.31048993  1
  O  O431  1  0.96005016  0.66882530  0.80263850  1
  F  F432  1  0.04472870  -0.00416070  0.20056580  1
  F  F433  1  0.04043362  -0.00134677  0.70089767  1
  F  F434  1  0.04888549  0.49130316  0.19916485  1
  F  F435  1  0.04723443  0.50079066  0.70416952  1
  F  F436  1  0.38076114  0.00020366  0.20123590  1
  F  F437  1  0.37814550  0.00473290  0.69760932  1
  F  F438  1  0.37927119  0.50088497  0.20270869  1
  F  F439  1  0.38289514  0.50069736  0.70146381  1
  F  F440  1  0.71234074  0.00033042  0.20466490  1
  F  F441  1  0.71155250  0.00087898  0.70467248  1
  F  F442  1  0.70793613  0.50002714  0.20315488  1
  F  F443  1  0.70792398  0.50233856  0.70051604  1
  F  F444  1  0.19826473  0.25574286  0.19000374  1
  F  F445  1  0.21420221  0.24811683  0.69880733  1
  F  F446  1  0.20769957  0.75036129  0.20036297  1
  F  F447  1  0.21188839  0.75075713  0.70313929  1
  F  F448  1  0.54658818  0.25207232  0.19900389  1
  F  F449  1  0.54436682  0.25122308  0.70384445  1
  F  F450  1  0.54304156  0.74862439  0.20022843  1
  F  F451  1  0.54530491  0.74661839  0.70326518  1
  F  F452  1  0.87430029  0.24734402  0.19806115  1
  F  F453  1  0.88436082  0.23900432  0.69368865  1
  F  F454  1  0.87754972  0.75102543  0.20507858  1
  F  F455  1  0.87604337  0.75221391  0.70377286  1
  F  F456  1  0.28867983  -0.00169462  0.29428022  1
  F  F457  1  0.29264271  0.00057716  0.79591898  1
  F  F458  1  0.29015726  0.49977860  0.29645311  1
  F  F459  1  0.28963889  0.49943282  0.80056568  1
  F  F460  1  0.62268939  0.00742234  0.29978248  1
  F  F461  1  0.61962041  0.00684207  0.79827385  1
  F  F462  1  0.61793110  0.49678480  0.29844631  1
  F  F463  1  0.61949857  0.49844097  0.79851168  1
  F  F464  1  0.95483459  -0.00071342  0.29719710  1
  F  F465  1  0.95516979  0.00209731  0.80044973  1
  F  F466  1  0.94764253  0.48809877  0.30054439  1
  F  F467  1  0.95861864  0.49588843  0.79882184  1
  F  F468  1  0.12378042  0.25209208  0.30034498  1
  F  F469  1  0.12534921  0.24657524  0.79400554  1
  F  F470  1  0.12104186  0.75398658  0.30031515  1
  F  F471  1  0.12278919  0.75030404  0.79674955  1
  F  F472  1  0.46615268  0.25010426  0.30009800  1
  F  F473  1  0.45433464  0.25027862  0.79865512  1
  F  F474  1  0.45802217  0.75152596  0.29894009  1
  F  F475  1  0.45390707  0.74587679  0.79931985  1
  F  F476  1  0.78678429  0.24903048  0.29547088  1
  F  F477  1  0.78074082  0.24312897  0.80509424  1
  F  F478  1  0.78610918  0.75043613  0.30022120  1
  F  F479  1  0.78828270  0.75086891  0.80104892  1
