# generated using pymatgen
data_K24Na3Li5Mg64Fe17Si79(O5F)48
_symmetry_space_group_name_H-M   'P 1'
_cell_length_a   16.10632195
_cell_length_b   18.61037381
_cell_length_c   20.57282766
_cell_angle_alpha   89.99563786
_cell_angle_beta   99.99336008
_cell_angle_gamma   90.00648470
_symmetry_Int_Tables_number   1
_chemical_formula_structural   K24Na3Li5Mg64Fe17Si79(O5F)48
_chemical_formula_sum   'K24 Na3 Li5 Mg64 Fe17 Si79 O240 F48'
_cell_volume   6073.03504833
_cell_formula_units_Z   1
loop_
 _symmetry_equiv_pos_site_id
 _symmetry_equiv_pos_as_xyz
  1  'x, y, z'
loop_
 _atom_site_type_symbol
 _atom_site_label
 _atom_site_symmetry_multiplicity
 _atom_site_fract_x
 _atom_site_fract_y
 _atom_site_fract_z
 _atom_site_occupancy
  K  K0  1  -0.01134001  -0.00962242  -0.01394720  1
  K  K1  1  0.00386623  -0.01230193  0.50662426  1
  K  K2  1  -0.01051172  0.49952291  -0.01068467  1
  K  K3  1  0.00118024  0.50653726  0.50601244  1
  K  K4  1  0.33596667  -0.00672286  -0.00920193  1
  K  K5  1  0.34135214  -0.00752125  0.50529407  1
  K  K6  1  0.34330329  0.51219748  -0.00292859  1
  K  K7  1  0.35226558  0.50158512  0.50136002  1
  K  K8  1  0.67087539  -0.01287793  -0.00780360  1
  K  K9  1  0.67733336  0.00203642  0.51404665  1
  K  K10  1  0.65716572  0.49935882  -0.01082616  1
  K  K11  1  0.65719650  0.49886597  0.50279809  1
  K  K12  1  0.16051234  0.25337750  -0.00727597  1
  K  K13  1  0.17260328  0.25048088  0.50990989  1
  K  K14  1  0.17094821  0.75310952  -0.00793507  1
  K  K15  1  0.16438721  0.75582171  0.50705554  1
  K  K16  1  0.50891683  0.25141856  -0.00667625  1
  K  K17  1  0.51909064  0.25856898  0.51420360  1
  K  K18  1  0.49971417  0.75087530  -0.00354059  1
  K  K19  1  0.52116757  0.75134809  0.51080316  1
  K  K20  1  0.81829383  0.25290873  -0.02238815  1
  K  K21  1  0.82852832  0.24424341  0.51164373  1
  K  K22  1  0.81571826  0.75332297  -0.00844942  1
  K  K23  1  0.82396619  0.75369436  0.50796747  1
  Na  Na24  1  0.66537589  0.75131505  0.74263077  1
  Na  Na25  1  0.66798933  0.91916804  0.24424965  1
  Na  Na26  1  0.66406757  0.58018158  0.25046431  1
  Li  Li27  1  0.66813734  0.24317779  0.76051782  1
  Li  Li28  1  0.33505500  0.75316133  0.73997690  1
  Li  Li29  1  0.50242956  0.33712134  0.25621436  1
  Li  Li30  1  -0.00345845  0.91350108  0.24790473  1
  Li  Li31  1  0.67049956  0.08523967  0.75872853  1
  Mg  Mg32  1  0.00019453  0.24895995  0.24990002  1
  Mg  Mg33  1  -0.00172331  0.25033676  0.75751928  1
  Mg  Mg34  1  0.83702375  -0.00243764  0.24647791  1
  Mg  Mg35  1  0.50113791  -0.00039810  0.74791286  1
  Mg  Mg36  1  0.16610778  0.00011609  0.75283010  1
  Mg  Mg37  1  0.66567032  0.75054835  0.24713428  1
  Mg  Mg38  1  0.00306081  0.74969745  0.74930050  1
  Mg  Mg39  1  0.33432608  0.25040497  0.75173880  1
  Mg  Mg40  1  0.49853361  0.49699200  0.25213701  1
  Mg  Mg41  1  0.83484381  0.49899685  0.75257611  1
  Mg  Mg42  1  0.82985797  -0.00082234  0.75359789  1
  Mg  Mg43  1  0.16370695  -0.00163302  0.24851278  1
  Mg  Mg44  1  0.33288917  0.75049479  0.24417752  1
  Mg  Mg45  1  0.50027089  0.00163451  0.24780303  1
  Mg  Mg46  1  0.16609872  0.50088401  0.24715141  1
  Mg  Mg47  1  0.83134868  0.49880764  0.25158595  1
  Mg  Mg48  1  0.66530171  0.25011283  0.25127823  1
  Mg  Mg49  1  0.16925257  0.50096231  0.74937750  1
  Mg  Mg50  1  0.50506826  0.50042433  0.74957889  1
  Mg  Mg51  1  -0.00117663  0.75177538  0.24935346  1
  Mg  Mg52  1  0.33566058  0.25244846  0.25321379  1
  Mg  Mg53  1  0.49992050  0.66582924  0.24756158  1
  Mg  Mg54  1  -0.00042161  0.41552228  0.24980317  1
  Mg  Mg55  1  -0.00028599  0.08411327  0.75816993  1
  Mg  Mg56  1  0.00070264  0.08094041  0.24850698  1
  Mg  Mg57  1  0.33152863  0.91437039  0.74644890  1
  Mg  Mg58  1  -0.00076735  0.41599216  0.75346343  1
  Mg  Mg59  1  0.33323693  0.91662882  0.24675773  1
  Mg  Mg60  1  0.16555752  0.66645641  0.24585035  1
  Mg  Mg61  1  0.83366088  0.33381319  0.75510316  1
  Mg  Mg62  1  0.49816242  0.66844706  0.74313592  1
  Mg  Mg63  1  0.50051204  0.16980170  0.25063744  1
  Mg  Mg64  1  0.16508653  0.16623502  0.75306106  1
  Mg  Mg65  1  0.83248227  0.83385323  0.24645395  1
  Mg  Mg66  1  0.33299856  0.08539404  0.24996051  1
  Mg  Mg67  1  0.66768159  0.08370549  0.24895201  1
  Mg  Mg68  1  -0.00236486  0.58455218  0.24914382  1
  Mg  Mg69  1  0.50504304  0.16551729  0.75383437  1
  Mg  Mg70  1  0.66394953  0.91945848  0.74949848  1
  Mg  Mg71  1  0.83567742  0.83326219  0.75333605  1
  Mg  Mg72  1  0.66564471  0.58387531  0.74785912  1
  Mg  Mg73  1  0.83376252  0.16453698  0.24911620  1
  Mg  Mg74  1  0.16999146  0.83416058  0.74769658  1
  Mg  Mg75  1  0.33132766  0.08398867  0.75077835  1
  Mg  Mg76  1  0.16381921  0.83484356  0.24816210  1
  Mg  Mg77  1  0.33742755  0.41682935  0.75080469  1
  Mg  Mg78  1  0.83457719  0.66625189  0.74884037  1
  Mg  Mg79  1  0.33529260  0.58621249  0.74504803  1
  Mg  Mg80  1  0.82921631  0.16640114  0.75921630  1
  Mg  Mg81  1  0.33572838  0.41543230  0.25182867  1
  Mg  Mg82  1  0.50255438  0.83581732  0.24592814  1
  Mg  Mg83  1  0.00172472  0.91483544  0.75209532  1
  Mg  Mg84  1  0.66316179  0.41346484  0.25302318  1
  Mg  Mg85  1  0.16738966  0.33397219  0.25131646  1
  Mg  Mg86  1  0.49582467  0.83274519  0.74327012  1
  Mg  Mg87  1  0.33510150  0.58542168  0.24792998  1
  Mg  Mg88  1  0.16964933  0.66807568  0.74657087  1
  Mg  Mg89  1  0.66761713  0.41114834  0.75191777  1
  Mg  Mg90  1  0.00193185  0.58428296  0.74880961  1
  Mg  Mg91  1  0.82894722  0.66538971  0.24958797  1
  Mg  Mg92  1  0.50550902  0.33184100  0.75025862  1
  Mg  Mg93  1  0.16667139  0.16533145  0.25068047  1
  Mg  Mg94  1  0.16672766  0.33519293  0.75222138  1
  Mg  Mg95  1  0.83213758  0.33327059  0.25077716  1
  Fe  Fe96  1  0.86065418  0.41737606  0.61335605  1
  Fe  Fe97  1  0.52841547  0.58604457  0.60673475  1
  Fe  Fe98  1  0.68835275  0.82890186  0.10543820  1
  Fe  Fe99  1  0.64220865  0.67279683  0.38829094  1
  Fe  Fe100  1  0.47698816  0.41459212  0.39009876  1
  Fe  Fe101  1  0.97886887  0.82666933  0.89063428  1
  Fe  Fe102  1  0.80321030  0.07886241  0.89462069  1
  Fe  Fe103  1  0.35353985  0.82847122  0.60355956  1
  Fe  Fe104  1  0.97849379  0.33739508  0.89519801  1
  Fe  Fe105  1  0.19020581  0.92145209  0.60867223  1
  Fe  Fe106  1  0.69828607  0.84145969  0.61050304  1
  Fe  Fe107  1  0.63768190  0.33079585  0.89226486  1
  Fe  Fe108  1  0.52116165  0.92007949  0.60400173  1
  Fe  Fe109  1  0.14406026  0.08372867  0.89321775  1
  Fe  Fe110  1  0.02720223  0.66592291  0.61006059  1
  Fe  Fe111  1  0.52924008  0.41227481  0.61095158  1
  Fe  Fe112  1  0.35969793  0.66679902  0.10577858  1
  Si  Si113  1  0.85904340  0.58108982  0.11409077  1
  Si  Si114  1  0.14859832  0.91482228  0.89097848  1
  Si  Si115  1  0.86048957  0.08824075  0.62025993  1
  Si  Si116  1  0.35359772  0.16928439  0.61738234  1
  Si  Si117  1  0.69249316  0.33219183  0.11633098  1
  Si  Si118  1  0.30242797  0.66805303  0.38171369  1
  Si  Si119  1  0.02641970  0.83254838  0.11451013  1
  Si  Si120  1  0.03109477  0.33776810  0.61548301  1
  Si  Si121  1  0.30807217  0.17206136  0.88871880  1
  Si  Si122  1  0.30843775  0.83034801  0.88250133  1
  Si  Si123  1  0.81248335  0.57896822  0.38757485  1
  Si  Si124  1  0.46982063  0.91626751  0.88404733  1
  Si  Si125  1  0.02463813  0.83405036  0.61217881  1
  Si  Si126  1  0.18933619  0.41524309  0.11453252  1
  Si  Si127  1  0.64839626  0.32776333  0.38913174  1
  Si  Si128  1  0.69416186  0.16691046  0.11535983  1
  Si  Si129  1  0.81312521  0.08248772  0.38506639  1
  Si  Si130  1  0.02280503  0.66683953  0.11319485  1
  Si  Si131  1  0.14887074  0.58079307  0.88450719  1
  Si  Si132  1  0.47442140  0.08561233  0.38420106  1
  Si  Si133  1  0.30228014  0.33120420  0.38916498  1
  Si  Si134  1  0.47424133  0.58569403  0.88358897  1
  Si  Si135  1  0.19610021  0.57851271  0.61038783  1
  Si  Si136  1  0.13900551  0.58431320  0.38278484  1
  Si  Si137  1  0.81164875  0.41288725  0.38756321  1
  Si  Si138  1  0.47059280  0.42071259  0.88878444  1
  Si  Si139  1  0.51836717  0.92408046  0.10922311  1
  Si  Si140  1  0.47086916  0.58829276  0.38681341  1
  Si  Si141  1  0.18672671  0.58113523  0.11014068  1
  Si  Si142  1  0.35586982  0.16891984  0.11463926  1
  Si  Si143  1  0.18613190  0.08959532  0.61382003  1
  Si  Si144  1  0.30855525  0.66674605  0.88106313  1
  Si  Si145  1  0.97396798  0.16541505  0.89672742  1
  Si  Si146  1  0.13974110  0.91424301  0.38227701  1
  Si  Si147  1  0.02530869  0.16683876  0.11529594  1
  Si  Si148  1  0.63182558  0.83424180  0.88208737  1
  Si  Si149  1  0.14131769  0.07970776  0.38535254  1
  Si  Si150  1  0.70174760  0.32825036  0.61482305  1
  Si  Si151  1  0.02441107  0.33180031  0.11573635  1
  Si  Si152  1  0.63243288  0.16028896  0.89501352  1
  Si  Si153  1  0.69108514  0.16434878  0.62332728  1
  Si  Si154  1  0.63755318  0.66808421  0.88266152  1
  Si  Si155  1  0.52477088  0.57520059  0.11121490  1
  Si  Si156  1  0.98168761  0.65852626  0.88798804  1
  Si  Si157  1  0.46619850  0.08110694  0.88671241  1
  Si  Si158  1  0.97324281  0.66569470  0.38485368  1
  Si  Si159  1  0.64578075  0.16243123  0.38569084  1
  Si  Si160  1  0.13855339  0.41807368  0.38461669  1
  Si  Si161  1  0.52415574  0.41094214  0.11612151  1
  Si  Si162  1  0.85888083  0.41532895  0.11608261  1
  Si  Si163  1  0.69133596  0.65987729  0.11037200  1
  Si  Si164  1  0.35543080  0.66158347  0.60778726  1
  Si  Si165  1  0.86094952  0.91653465  0.11080406  1
  Si  Si166  1  0.35856450  0.33145403  0.61603651  1
  Si  Si167  1  0.19077091  0.08449047  0.11502885  1
  Si  Si168  1  0.80501656  0.42254527  0.89423732  1
  Si  Si169  1  0.52367806  0.08975914  0.11383498  1
  Si  Si170  1  0.35464416  0.84025492  0.10821687  1
  Si  Si171  1  0.80689165  0.58848753  0.88584386  1
  Si  Si172  1  0.85920662  0.58154192  0.61364919  1
  Si  Si173  1  0.02280647  0.17457073  0.61883229  1
  Si  Si174  1  0.51763294  0.09000219  0.61442409  1
  Si  Si175  1  0.80607789  0.90857865  0.89188574  1
  Si  Si176  1  0.30745189  0.83395219  0.38124629  1
  Si  Si177  1  0.47350684  0.91929754  0.38208981  1
  Si  Si178  1  0.35399156  0.33298917  0.11529933  1
  Si  Si179  1  0.31033256  0.33544510  0.88582606  1
  Si  Si180  1  0.97600841  0.33190169  0.38549994  1
  Si  Si181  1  0.30619493  0.16496304  0.38616843  1
  Si  Si182  1  0.64339865  0.84061672  0.38446753  1
  Si  Si183  1  0.14862765  0.41873458  0.88907691  1
  Si  Si184  1  0.70172908  0.66506868  0.61237301  1
  Si  Si185  1  0.18865051  0.91921889  0.11328099  1
  Si  Si186  1  0.81396213  0.91909368  0.38328453  1
  Si  Si187  1  0.86711120  0.92376538  0.61550878  1
  Si  Si188  1  0.19620892  0.41465630  0.61634403  1
  Si  Si189  1  0.97347360  0.83096222  0.38350895  1
  Si  Si190  1  0.86021527  0.08332204  0.11427327  1
  Si  Si191  1  0.97783256  0.16650025  0.38510888  1
  O  O192  1  0.27154106  0.11989974  0.08696071  1
  O  O193  1  0.27014686  0.12081734  0.58550354  1
  O  O194  1  0.25953802  0.61318974  0.07423677  1
  O  O195  1  0.28468208  0.59546654  0.58427446  1
  O  O196  1  0.60327715  0.12814745  0.08644229  1
  O  O197  1  0.60341044  0.12237326  0.58973397  1
  O  O198  1  0.61365080  0.60172791  0.08889031  1
  O  O199  1  0.62846470  0.61113037  0.57636933  1
  O  O200  1  0.93836137  0.12387295  0.08674693  1
  O  O201  1  0.93614391  0.12974480  0.58839419  1
  O  O202  1  0.93585992  0.62200215  0.08527437  1
  O  O203  1  0.94402977  0.59691787  0.58257856  1
  O  O204  1  0.10382209  0.36758926  0.08712975  1
  O  O205  1  0.12038921  0.35742561  0.58847354  1
  O  O206  1  0.10610548  0.86949860  0.08571311  1
  O  O207  1  0.10198814  0.85779741  0.57558980  1
  O  O208  1  0.43582861  0.36630503  0.08758662  1
  O  O209  1  0.43688732  0.34936096  0.58076968  1
  O  O210  1  0.42721820  0.88585153  0.07839375  1
  O  O211  1  0.44081253  0.85674082  0.56141127  1
  O  O212  1  0.76949414  0.37435613  0.08841875  1
  O  O213  1  0.78373463  0.34593037  0.58041148  1
  O  O214  1  0.77940881  0.87423590  0.07278259  1
  O  O215  1  0.79139722  0.87730949  0.57440201  1
  O  O216  1  0.26817443  0.37968702  0.08417286  1
  O  O217  1  0.27888545  0.38616468  0.58731064  1
  O  O218  1  0.26765786  0.88780450  0.08238540  1
  O  O219  1  0.27205261  0.89300006  0.56271548  1
  O  O220  1  0.60165721  0.36975649  0.08674254  1
  O  O221  1  0.62241567  0.37565053  0.57812463  1
  O  O222  1  0.59174314  0.88768611  0.07637371  1
  O  O223  1  0.61272382  0.89716662  0.56523027  1
  O  O224  1  0.93681856  0.37510038  0.08802205  1
  O  O225  1  0.96149198  0.39366357  0.58028766  1
  O  O226  1  0.94468598  0.88166825  0.08499496  1
  O  O227  1  0.95354535  0.89790451  0.58997037  1
  O  O228  1  0.10631117  0.13248044  0.08751535  1
  O  O229  1  0.10607588  0.14644554  0.58924826  1
  O  O230  1  0.09786885  0.62541454  0.08355314  1
  O  O231  1  0.12155935  0.63059812  0.57444747  1
  O  O232  1  0.43753479  0.13670785  0.08595924  1
  O  O233  1  0.43684321  0.14626848  0.58632814  1
  O  O234  1  0.44756954  0.62205545  0.07013720  1
  O  O235  1  0.43589017  0.64506589  0.57212139  1
  O  O236  1  0.77130220  0.12614053  0.08744832  1
  O  O237  1  0.76986718  0.12740667  0.59035057  1
  O  O238  1  0.77167038  0.62033352  0.08187349  1
  O  O239  1  0.79215219  0.64633200  0.58733810  1
  O  O240  1  0.06449405  0.12140946  0.41414726  1
  O  O241  1  0.04703944  0.10694458  0.92687865  1
  O  O242  1  0.06014088  0.61973168  0.41199536  1
  O  O243  1  0.06321186  0.60280662  0.91365716  1
  O  O244  1  0.39819684  0.12772176  0.41351936  1
  O  O245  1  0.38606980  0.11625478  0.91638435  1
  O  O246  1  0.38172771  0.61726761  0.40999696  1
  O  O247  1  0.39534678  0.62273976  0.91326511  1
  O  O248  1  0.73112717  0.11436884  0.41411367  1
  O  O249  1  0.70817191  0.10790184  0.92954857  1
  O  O250  1  0.73481461  0.60944867  0.41833553  1
  O  O251  1  0.73089852  0.63265890  0.91430798  1
  O  O252  1  0.21906221  0.36794197  0.41466846  1
  O  O253  1  0.22735537  0.36225926  0.91567468  1
  O  O254  1  0.22911329  0.87277846  0.41010085  1
  O  O255  1  0.23021990  0.85983982  0.91656196  1
  O  O256  1  0.57274571  0.35752098  0.42271456  1
  O  O257  1  0.54785575  0.37477046  0.92793781  1
  O  O258  1  0.56335706  0.88202008  0.41114254  1
  O  O259  1  0.55648201  0.87277679  0.91598945  1
  O  O260  1  0.89650117  0.36392653  0.41523118  1
  O  O261  1  0.89283349  0.38497613  0.93004113  1
  O  O262  1  0.89770177  0.87040017  0.41555296  1
  O  O263  1  0.88208990  0.85429656  0.92363678  1
  O  O264  1  0.05818446  0.38252688  0.41317336  1
  O  O265  1  0.07340662  0.39704167  0.92744528  1
  O  O266  1  0.06266776  0.87429673  0.41140467  1
  O  O267  1  0.07182353  0.88558386  0.92602610  1
  O  O268  1  0.38468179  0.37221737  0.42393512  1
  O  O269  1  0.38435332  0.39261469  0.91558639  1
  O  O270  1  0.39425108  0.87894644  0.40833223  1
  O  O271  1  0.39366161  0.87643227  0.91507593  1
  O  O272  1  0.73594604  0.37366981  0.41762319  1
  O  O273  1  0.73043700  0.38853122  0.92874539  1
  O  O274  1  0.72748952  0.89370075  0.40777772  1
  O  O275  1  0.71945005  0.87436170  0.91531004  1
  O  O276  1  0.23182918  0.11903542  0.41431513  1
  O  O277  1  0.22989816  0.15241905  0.92483617  1
  O  O278  1  0.22167417  0.63305415  0.41068427  1
  O  O279  1  0.22884082  0.63416644  0.91404206  1
  O  O280  1  0.56473981  0.12591541  0.41307995  1
  O  O281  1  0.54690863  0.12760961  0.92207574  1
  O  O282  1  0.54261660  0.64514491  0.41758085  1
  O  O283  1  0.56311368  0.62673142  0.91593396  1
  O  O284  1  0.89710405  0.13252637  0.41402896  1
  O  O285  1  0.88995156  0.14427171  0.92690889  1
  O  O286  1  0.89984876  0.62542283  0.41669310  1
  O  O287  1  0.89871549  0.62547269  0.91665929  1
  O  O288  1  0.17338279  0.00264581  0.08664801  1
  O  O289  1  0.15724074  0.01571552  0.57641980  1
  O  O290  1  0.16926604  0.49636430  0.08570093  1
  O  O291  1  0.17041365  0.49427242  0.58547500  1
  O  O292  1  0.50787795  0.00934999  0.08280582  1
  O  O293  1  0.49307354  0.01636234  0.57431611  1
  O  O294  1  0.51297780  0.49090732  0.08219714  1
  O  O295  1  0.50058611  0.49737224  0.56874725  1
  O  O296  1  0.85522765  0.00193625  0.08533095  1
  O  O297  1  0.85463228  0.00799697  0.58735649  1
  O  O298  1  0.85565267  0.49736257  0.08676326  1
  O  O299  1  0.81773402  0.50671713  0.58210951  1
  O  O300  1  0.01416829  0.24958678  0.08780708  1
  O  O301  1  0.00614142  0.25560140  0.58709082  1
  O  O302  1  0.01385183  0.74957777  0.08502477  1
  O  O303  1  -0.01184429  0.75768214  0.58008781  1
  O  O304  1  0.33843074  0.25055659  0.08470387  1
  O  O305  1  0.32397337  0.25043825  0.59082487  1
  O  O306  1  0.34255885  0.76229163  0.07348017  1
  O  O307  1  0.31128985  0.73569288  0.57799362  1
  O  O308  1  0.68915562  0.24972553  0.08700788  1
  O  O309  1  0.67873507  0.24408320  0.58938925  1
  O  O310  1  0.67026387  0.73404241  0.06936345  1
  O  O311  1  0.67799329  0.74551528  0.58470190  1
  O  O312  1  0.14554345  -0.00298062  0.41263584  1
  O  O313  1  0.18131291  -0.00790915  0.92321141  1
  O  O314  1  0.15137106  0.50115807  0.41155867  1
  O  O315  1  0.18044289  0.50086485  0.91379872  1
  O  O316  1  0.47629510  0.00265323  0.41090370  1
  O  O317  1  0.47645215  -0.00187895  0.91612949  1
  O  O318  1  0.48974297  0.50959559  0.41964839  1
  O  O319  1  0.48243781  0.50470138  0.91605821  1
  O  O320  1  0.83389502  0.00147486  0.41438580  1
  O  O321  1  0.82388509  -0.01476461  0.92971075  1
  O  O322  1  0.83207279  0.49457509  0.41474707  1
  O  O323  1  0.81073174  0.50856543  0.91935665  1
  O  O324  1  0.30220322  0.24631413  0.41522987  1
  O  O325  1  0.33903520  0.25484203  0.91403545  1
  O  O326  1  0.31500539  0.75120631  0.40901101  1
  O  O327  1  0.32516948  0.74793111  0.91144646  1
  O  O328  1  0.66644551  0.24292022  0.41613972  1
  O  O329  1  0.64730514  0.23896985  0.93132692  1
  O  O330  1  0.66548875  0.76653851  0.42423976  1
  O  O331  1  0.63952984  0.75084122  0.91136637  1
  O  O332  1  0.99426872  0.24921566  0.41351018  1
  O  O333  1  1.00476198  0.24466447  0.92757004  1
  O  O334  1  0.98586650  0.74837591  0.41348349  1
  O  O335  1  1.00834404  0.73341372  0.92515693  1
  O  O336  1  0.20972962  0.08496656  0.19570962  1
  O  O337  1  0.20809884  0.08754879  0.69442619  1
  O  O338  1  0.20561619  0.58299389  0.19138975  1
  O  O339  1  0.21035914  0.58070809  0.69147058  1
  O  O340  1  0.54178094  0.08807421  0.19426311  1
  O  O341  1  0.53070382  0.08523917  0.69390371  1
  O  O342  1  0.52800324  0.57734091  0.19022132  1
  O  O343  1  0.54536399  0.58240692  0.69885937  1
  O  O344  1  0.87956643  0.08574865  0.19492238  1
  O  O345  1  0.88104890  0.08685003  0.69985119  1
  O  O346  1  0.87731480  0.58079832  0.19460834  1
  O  O347  1  0.87975605  0.58113493  0.69557354  1
  O  O348  1  0.04338521  0.33253276  0.19657012  1
  O  O349  1  0.04761578  0.33574913  0.69611669  1
  O  O350  1  0.04539469  0.82975639  0.19423729  1
  O  O351  1  0.04689893  0.83340979  0.69346904  1
  O  O352  1  0.36501252  0.33131803  0.19443604  1
  O  O353  1  0.37591907  0.33359598  0.69690054  1
  O  O354  1  0.37278531  0.83766417  0.18931761  1
  O  O355  1  0.37599298  0.83813354  0.69420203  1
  O  O356  1  0.71149606  0.33050419  0.19668120  1
  O  O357  1  0.71889385  0.33715491  0.69462110  1
  O  O358  1  0.71608957  0.82557767  0.19523671  1
  O  O359  1  0.72047576  0.84503402  0.70032509  1
  O  O360  1  0.20719863  0.41480838  0.19524776  1
  O  O361  1  0.21270110  0.41594854  0.69689412  1
  O  O362  1  0.20860744  0.91844354  0.19387131  1
  O  O363  1  0.20925526  0.92070865  0.70067574  1
  O  O364  1  0.54507256  0.41401811  0.19525159  1
  O  O365  1  0.54516560  0.41640605  0.70246178  1
  O  O366  1  0.53038315  0.92231429  0.18922022  1
  O  O367  1  0.54151202  0.91840751  0.69615133  1
  O  O368  1  0.87854286  0.41412123  0.19668237  1
  O  O369  1  0.88009364  0.41758174  0.70496055  1
  O  O370  1  0.87492405  0.91624301  0.19103272  1
  O  O371  1  0.87963558  0.92130405  0.69585720  1
  O  O372  1  0.04418041  0.16718325  0.19620487  1
  O  O373  1  0.04106235  0.17167148  0.69880079  1
  O  O374  1  0.04167527  0.66569161  0.19397140  1
  O  O375  1  0.04797747  0.66556294  0.70166091  1
  O  O376  1  0.37413180  0.16816433  0.19515589  1
  O  O377  1  0.37173360  0.16702318  0.69762018  1
  O  O378  1  0.37509876  0.66740877  0.19744184  1
  O  O379  1  0.37737004  0.66028080  0.68848136  1
  O  O380  1  0.71149125  0.16780821  0.19597937  1
  O  O381  1  0.71223423  0.16558031  0.70177190  1
  O  O382  1  0.71602208  0.66886977  0.18955527  1
  O  O383  1  0.71775179  0.65686119  0.69246759  1
  O  O384  1  0.12374271  0.08359090  0.30496356  1
  O  O385  1  0.12294680  0.08507674  0.80140366  1
  O  O386  1  0.12099632  0.58262993  0.30201186  1
  O  O387  1  0.12936554  0.58155935  0.80463809  1
  O  O388  1  0.45516963  0.08668159  0.30357443  1
  O  O389  1  0.45176400  0.08329615  0.80680432  1
  O  O390  1  0.45377891  0.58417821  0.30504725  1
  O  O391  1  0.45565778  0.58388983  0.80407896  1
  O  O392  1  0.79368554  0.08483043  0.30493463  1
  O  O393  1  0.79328534  0.08062560  0.80502755  1
  O  O394  1  0.80253620  0.58002443  0.30740881  1
  O  O395  1  0.79133199  0.58506106  0.80610647  1
  O  O396  1  0.28556472  0.33181493  0.30778118  1
  O  O397  1  0.29099689  0.33509535  0.80547009  1
  O  O398  1  0.28813977  0.83470825  0.30040904  1
  O  O399  1  0.28924108  0.83521826  0.80383431  1
  O  O400  1  0.63271049  0.32843563  0.30882599  1
  O  O401  1  0.62251939  0.33137216  0.80255564  1
  O  O402  1  0.61859967  0.83265333  0.30497009  1
  O  O403  1  0.61320331  0.83910197  0.80366996  1
  O  O404  1  0.95823517  0.33166622  0.30480614  1
  O  O405  1  0.95969382  0.33430768  0.80415958  1
  O  O406  1  0.95500806  0.82961399  0.30395092  1
  O  O407  1  0.95962725  0.83166938  0.79936437  1
  O  O408  1  0.12137237  0.41676696  0.30386766  1
  O  O409  1  0.12780223  0.41727757  0.80821988  1
  O  O410  1  0.12474860  0.91698469  0.30256512  1
  O  O411  1  0.12525391  0.91603428  0.80988250  1
  O  O412  1  0.45119310  0.41556945  0.29933597  1
  O  O413  1  0.45568517  0.41738456  0.80855954  1
  O  O414  1  0.45433919  0.92022607  0.30134402  1
  O  O415  1  0.45227412  0.91876368  0.80475104  1
  O  O416  1  0.79366816  0.41238724  0.30690755  1
  O  O417  1  0.79061358  0.41869800  0.81349519  1
  O  O418  1  0.80441934  0.91980474  0.30430943  1
  O  O419  1  0.79263881  0.91513502  0.81151828  1
  O  O420  1  0.28805607  0.16556384  0.30543883  1
  O  O421  1  0.28897288  0.16944402  0.80789953  1
  O  O422  1  0.28359714  0.66792555  0.30100277  1
  O  O423  1  0.28851304  0.66124576  0.80217770  1
  O  O424  1  0.62620155  0.16493637  0.30529683  1
  O  O425  1  0.61629779  0.16390137  0.81546349  1
  O  O426  1  0.61678404  0.67498612  0.29769745  1
  O  O427  1  0.61876118  0.66147394  0.80430026  1
  O  O428  1  0.95902398  0.16654867  0.30465983  1
  O  O429  1  0.95928731  0.16651362  0.81460005  1
  O  O430  1  0.95727723  0.66561255  0.30418926  1
  O  O431  1  0.96097519  0.66261560  0.80776100  1
  F  F432  1  0.04914735  0.00717814  0.19738385  1
  F  F433  1  0.04376842  0.00098999  0.70548912  1
  F  F434  1  0.04335446  0.49887741  0.20043929  1
  F  F435  1  0.04867583  0.49785246  0.70520268  1
  F  F436  1  0.37566686  0.00440565  0.20078946  1
  F  F437  1  0.37532008  0.00284990  0.70253475  1
  F  F438  1  0.37138225  0.49919473  0.19978609  1
  F  F439  1  0.38037674  0.49790708  0.70303359  1
  F  F440  1  0.71957957  0.01366208  0.19693995  1
  F  F441  1  0.71445621  -0.00199971  0.70202988  1
  F  F442  1  0.71803239  0.48538137  0.20077554  1
  F  F443  1  0.71395510  0.49717847  0.70785187  1
  F  F444  1  0.21056204  0.24922120  0.20398911  1
  F  F445  1  0.21157189  0.25111659  0.70506153  1
  F  F446  1  0.20835544  0.75150891  0.19851813  1
  F  F447  1  0.20814058  0.75025768  0.69948992  1
  F  F448  1  0.54788272  0.24627950  0.20186840  1
  F  F449  1  0.53516184  0.24658195  0.70108582  1
  F  F450  1  0.54057587  0.75386050  0.19530956  1
  F  F451  1  0.53188657  0.75024438  0.69204393  1
  F  F452  1  0.87979036  0.24987791  0.20201369  1
  F  F453  1  0.88006597  0.24616402  0.70765458  1
  F  F454  1  0.88159879  0.74640550  0.20062368  1
  F  F455  1  0.88162988  0.74783359  0.70191302  1
  F  F456  1  0.28660442  0.00100186  0.29657072  1
  F  F457  1  0.28871668  0.00347215  0.80007987  1
  F  F458  1  0.28299173  0.50070419  0.29585602  1
  F  F459  1  0.29035798  0.50078465  0.79665342  1
  F  F460  1  0.61599339  0.01103376  0.29880688  1
  F  F461  1  0.61730244  -0.00131666  0.80033889  1
  F  F462  1  0.61659280  0.48814552  0.30261991  1
  F  F463  1  0.62424782  0.50052287  0.80312681  1
  F  F464  1  0.95575555  0.00526219  0.29801289  1
  F  F465  1  0.95550792  -0.00196329  0.80129379  1
  F  F466  1  0.95701026  0.49794473  0.29755796  1
  F  F467  1  0.95932756  0.50306913  0.80230120  1
  F  F468  1  0.12054209  0.24942440  0.29949570  1
  F  F469  1  0.12336792  0.25235493  0.80068208  1
  F  F470  1  0.12132820  0.74874815  0.29657380  1
  F  F471  1  0.12609300  0.75094157  0.79945904  1
  F  F472  1  0.45170316  0.24427778  0.30137639  1
  F  F473  1  0.45225963  0.25037076  0.80055395  1
  F  F474  1  0.45012192  0.75677552  0.29326610  1
  F  F475  1  0.45847550  0.74845808  0.79623225  1
  F  F476  1  0.79161849  0.24762661  0.29845130  1
  F  F477  1  0.79509773  0.25261254  0.80669400  1
  F  F478  1  0.79232958  0.74844277  0.29874667  1
  F  F479  1  0.80190795  0.74682656  0.80249635  1
