# generated using pymatgen
data_K24Na3Li5Mg64Fe17Si79(O5F)48
_symmetry_space_group_name_H-M   'P 1'
_cell_length_a   16.09811466
_cell_length_b   18.59803761
_cell_length_c   20.55592902
_cell_angle_alpha   90.01398346
_cell_angle_beta   100.00183436
_cell_angle_gamma   89.98011876
_symmetry_Int_Tables_number   1
_chemical_formula_structural   K24Na3Li5Mg64Fe17Si79(O5F)48
_chemical_formula_sum   'K24 Na3 Li5 Mg64 Fe17 Si79 O240 F48'
_cell_volume   6060.77582545
_cell_formula_units_Z   1
loop_
 _symmetry_equiv_pos_site_id
 _symmetry_equiv_pos_as_xyz
  1  'x, y, z'
loop_
 _atom_site_type_symbol
 _atom_site_label
 _atom_site_symmetry_multiplicity
 _atom_site_fract_x
 _atom_site_fract_y
 _atom_site_fract_z
 _atom_site_occupancy
  K  K0  1  -0.01618601  -0.00187312  -0.00600922  1
  K  K1  1  0.00418856  0.00657530  0.51346861  1
  K  K2  1  -0.00018023  0.49330307  -0.00782196  1
  K  K3  1  0.00032846  0.49843521  0.50848837  1
  K  K4  1  0.33599284  0.00563703  -0.01319227  1
  K  K5  1  0.33910550  0.00830323  0.52019125  1
  K  K6  1  0.31975137  0.50115593  -0.00770607  1
  K  K7  1  0.34849070  0.50014137  0.51058953  1
  K  K8  1  0.66824212  -0.00962461  -0.00597958  1
  K  K9  1  0.66433064  0.01043798  0.51442025  1
  K  K10  1  0.66851809  0.49940355  -0.00894715  1
  K  K11  1  0.65746325  0.49112281  0.50437518  1
  K  K12  1  0.16745646  0.25618866  -0.01430612  1
  K  K13  1  0.16286941  0.24796919  0.51430813  1
  K  K14  1  0.17274233  0.74724559  -0.00373659  1
  K  K15  1  0.17607068  0.75238746  0.51283492  1
  K  K16  1  0.49814637  0.24458107  -0.01381916  1
  K  K17  1  0.51300402  0.25328930  0.52744444  1
  K  K18  1  0.50400058  0.75830197  -0.00980085  1
  K  K19  1  0.50062870  0.74790845  0.50998638  1
  K  K20  1  0.83843099  0.24672445  -0.00940176  1
  K  K21  1  0.83280827  0.24425379  0.51889395  1
  K  K22  1  0.82420536  0.75130361  -0.00530257  1
  K  K23  1  0.82603237  0.75752008  0.50316740  1
  Na  Na24  1  0.66094885  0.24976925  0.74483255  1
  Na  Na25  1  0.00193247  0.08294559  0.75031188  1
  Na  Na26  1  0.50243108  0.17215963  0.74933858  1
  Li  Li27  1  0.82864861  -0.00693823  0.24519399  1
  Li  Li28  1  0.50333705  0.49866198  0.75343564  1
  Li  Li29  1  0.50278555  0.83345983  0.25080144  1
  Li  Li30  1  0.82867251  0.84071605  0.24519722  1
  Li  Li31  1  0.33408476  0.91873383  0.75367106  1
  Mg  Mg32  1  0.16550328  -0.00159557  0.25040244  1
  Mg  Mg33  1  0.00201106  0.75135461  0.74889176  1
  Mg  Mg34  1  0.33443828  0.24948238  0.25238263  1
  Mg  Mg35  1  0.83343754  0.49940941  0.24687286  1
  Mg  Mg36  1  0.66788662  0.24856910  0.25211717  1
  Mg  Mg37  1  -0.00464512  0.75310090  0.24682599  1
  Mg  Mg38  1  -0.00257742  0.24982694  0.75114337  1
  Mg  Mg39  1  0.50196525  -0.00431387  0.25155733  1
  Mg  Mg40  1  0.49941384  0.49865408  0.25543552  1
  Mg  Mg41  1  0.49725380  0.00259069  0.75030186  1
  Mg  Mg42  1  0.66567297  0.75294948  0.25021224  1
  Mg  Mg43  1  -0.00057342  0.24870058  0.24711565  1
  Mg  Mg44  1  0.83103926  0.50059014  0.75162676  1
  Mg  Mg45  1  0.83290334  0.00036547  0.74810065  1
  Mg  Mg46  1  0.66523293  0.74771649  0.74793719  1
  Mg  Mg47  1  0.16631299  0.50331341  0.75042900  1
  Mg  Mg48  1  0.33589064  0.75163196  0.25144227  1
  Mg  Mg49  1  0.16730037  0.49863824  0.24782264  1
  Mg  Mg50  1  0.16983658  0.00089316  0.75062633  1
  Mg  Mg51  1  0.33523436  0.75023994  0.74830266  1
  Mg  Mg52  1  0.33243973  0.25205058  0.75192881  1
  Mg  Mg53  1  0.83254162  0.83311641  0.74638034  1
  Mg  Mg54  1  0.66647641  0.58420152  0.74739953  1
  Mg  Mg55  1  -0.00177743  0.41758002  0.74944903  1
  Mg  Mg56  1  0.83339601  0.33423723  0.24684729  1
  Mg  Mg57  1  0.83053739  0.66937603  0.24862542  1
  Mg  Mg58  1  0.17425132  0.83609612  0.75159821  1
  Mg  Mg59  1  0.49920300  0.33664177  0.75015992  1
  Mg  Mg60  1  -0.00212173  0.41526020  0.24497977  1
  Mg  Mg61  1  0.16469857  0.33590851  0.75153139  1
  Mg  Mg62  1  0.83160701  0.66639766  0.74805991  1
  Mg  Mg63  1  0.66943224  0.91421301  0.24851591  1
  Mg  Mg64  1  0.33314337  0.58456447  0.25155695  1
  Mg  Mg65  1  0.66464432  0.41765488  0.75294596  1
  Mg  Mg66  1  0.17205726  0.66844693  0.74970557  1
  Mg  Mg67  1  0.50078469  0.33407219  0.25468831  1
  Mg  Mg68  1  0.66991505  0.07982640  0.25081358  1
  Mg  Mg69  1  0.16518701  0.16413957  0.25036413  1
  Mg  Mg70  1  0.16757138  0.16701261  0.75312511  1
  Mg  Mg71  1  0.33418458  0.08561435  0.75053169  1
  Mg  Mg72  1  -0.00763117  0.91614845  0.24945535  1
  Mg  Mg73  1  0.33433099  0.41494632  0.25295427  1
  Mg  Mg74  1  0.00379487  0.91744594  0.75047132  1
  Mg  Mg75  1  0.33766683  0.58537646  0.74994484  1
  Mg  Mg76  1  0.49969259  0.66254991  0.74859963  1
  Mg  Mg77  1  0.16460828  0.83454839  0.24880952  1
  Mg  Mg78  1  0.16706370  0.33388581  0.24817880  1
  Mg  Mg79  1  -0.00009223  0.58727441  0.74947325  1
  Mg  Mg80  1  -0.00605801  0.07971823  0.24803487  1
  Mg  Mg81  1  0.33626663  0.91457398  0.25120500  1
  Mg  Mg82  1  0.66268023  0.91504729  0.74568227  1
  Mg  Mg83  1  0.33365120  0.08242424  0.25138402  1
  Mg  Mg84  1  0.83242008  0.33345223  0.75116770  1
  Mg  Mg85  1  0.49481025  0.83488011  0.74747646  1
  Mg  Mg86  1  0.66743893  0.41453184  0.25245753  1
  Mg  Mg87  1  0.16507288  0.66660227  0.24815994  1
  Mg  Mg88  1  -0.00259726  0.58504936  0.24724447  1
  Mg  Mg89  1  0.66545680  0.58427405  0.25180161  1
  Mg  Mg90  1  0.33561927  0.42025905  0.75248160  1
  Mg  Mg91  1  0.83256113  0.16587789  0.74934127  1
  Mg  Mg92  1  0.66629789  0.08377473  0.75111520  1
  Mg  Mg93  1  0.83235132  0.16244509  0.24906455  1
  Mg  Mg94  1  0.50169115  0.16368216  0.25268190  1
  Mg  Mg95  1  0.49997160  0.66865413  0.25310013  1
  Fe  Fe96  1  0.31469057  0.83105449  0.88982543  1
  Fe  Fe97  1  0.80923712  0.58644600  0.88918573  1
  Fe  Fe98  1  0.02472714  0.16965021  0.61046172  1
  Fe  Fe99  1  0.64093290  0.32968718  0.89162329  1
  Fe  Fe100  1  0.97228348  0.15860449  0.89269973  1
  Fe  Fe101  1  0.19885013  0.41433888  0.11068279  1
  Fe  Fe102  1  0.14855898  0.07734599  0.89471698  1
  Fe  Fe103  1  0.97504011  0.32804963  0.88839778  1
  Fe  Fe104  1  0.85145708  0.91629839  0.10950542  1
  Fe  Fe105  1  0.69398048  0.16906904  0.60720226  1
  Fe  Fe106  1  0.36239190  0.66518413  0.60761922  1
  Fe  Fe107  1  0.69382731  0.66532180  0.60705959  1
  Fe  Fe108  1  0.31207775  0.17230306  0.89297518  1
  Fe  Fe109  1  0.85994968  0.41616529  0.10677802  1
  Fe  Fe110  1  0.31378775  0.66328860  0.89132859  1
  Fe  Fe111  1  0.52163080  0.08721914  0.60904855  1
  Fe  Fe112  1  0.47451138  0.41508629  0.39487310  1
  Si  Si113  1  0.85612237  0.07673013  0.60836537  1
  Si  Si114  1  0.63968299  0.83138080  0.88201431  1
  Si  Si115  1  0.18991227  0.58659973  0.11289146  1
  Si  Si116  1  0.35145798  0.17331887  0.61226327  1
  Si  Si117  1  0.30916965  0.34468501  0.88722870  1
  Si  Si118  1  0.02914549  0.83483143  0.61395737  1
  Si  Si119  1  0.97372291  0.66538380  0.38481852  1
  Si  Si120  1  0.85265703  0.08656069  0.11263324  1
  Si  Si121  1  0.64456215  0.83569063  0.38572795  1
  Si  Si122  1  0.36002033  0.83356158  0.11724490  1
  Si  Si123  1  0.14032974  0.58251304  0.38400995  1
  Si  Si124  1  0.19220759  0.08248445  0.11618799  1
  Si  Si125  1  0.35957007  0.66753190  0.11674689  1
  Si  Si126  1  0.35761694  0.83254777  0.61027356  1
  Si  Si127  1  0.53013128  0.57985206  0.60872779  1
  Si  Si128  1  0.97687396  0.83488370  0.88205232  1
  Si  Si129  1  0.64271402  0.66969294  0.38631211  1
  Si  Si130  1  0.47629195  0.57786455  0.88630442  1
  Si  Si131  1  0.52615570  0.08048893  0.11674524  1
  Si  Si132  1  0.35346841  0.33766160  0.61590112  1
  Si  Si133  1  0.47502321  0.58944638  0.38932537  1
  Si  Si134  1  0.52436414  0.91625128  0.11624039  1
  Si  Si135  1  0.19404382  0.91891600  0.61498830  1
  Si  Si136  1  0.80733272  0.90912098  0.88129167  1
  Si  Si137  1  0.36846855  0.33005079  0.11516647  1
  Si  Si138  1  0.53063484  0.41491346  0.11852774  1
  Si  Si139  1  0.18834810  0.41942794  0.61498031  1
  Si  Si140  1  0.48079269  0.92110080  0.88572788  1
  Si  Si141  1  0.80218932  0.07426646  0.88834245  1
  Si  Si142  1  0.02185833  0.33804257  0.61095930  1
  Si  Si143  1  0.30602660  0.16221696  0.38703958  1
  Si  Si144  1  0.19187112  0.08422715  0.61009448  1
  Si  Si145  1  0.47504141  0.08171760  0.38687368  1
  Si  Si146  1  0.64671501  0.32829983  0.39001120  1
  Si  Si147  1  0.47862026  0.08291034  0.88850352  1
  Si  Si148  1  0.47576645  0.91565286  0.38630711  1
  Si  Si149  1  0.80853045  0.41612340  0.38574939  1
  Si  Si150  1  0.30472978  0.66924070  0.38498765  1
  Si  Si151  1  0.02690208  0.83629559  0.11184014  1
  Si  Si152  1  0.64470352  0.16179005  0.38627508  1
  Si  Si153  1  0.47514772  0.41702801  0.88627147  1
  Si  Si154  1  0.03146856  0.32758612  0.11194729  1
  Si  Si155  1  0.52244939  0.41588748  0.61739828  1
  Si  Si156  1  0.19507970  0.91621610  0.11538424  1
  Si  Si157  1  0.97368581  0.16661498  0.38446434  1
  Si  Si158  1  0.52278423  0.57960877  0.11811615  1
  Si  Si159  1  0.68349456  0.82888367  0.11168204  1
  Si  Si160  1  0.97517747  0.83085704  0.38533822  1
  Si  Si161  1  0.30216866  0.32862368  0.39001726  1
  Si  Si162  1  0.13732912  0.58836262  0.88531744  1
  Si  Si163  1  0.68516738  0.66546540  0.11588522  1
  Si  Si164  1  0.86767090  0.59081845  0.60952450  1
  Si  Si165  1  0.80914338  0.91549131  0.38402870  1
  Si  Si166  1  0.19321381  0.58231104  0.61144799  1
  Si  Si167  1  0.14389090  0.90989872  0.88834594  1
  Si  Si168  1  0.85899242  0.42665080  0.61286347  1
  Si  Si169  1  0.13846576  0.08087574  0.38524476  1
  Si  Si170  1  0.03341535  0.66974727  0.61341143  1
  Si  Si171  1  0.81005443  0.08006355  0.38455034  1
  Si  Si172  1  0.02293034  0.16237013  0.11541638  1
  Si  Si173  1  0.80810644  0.41730687  0.88958730  1
  Si  Si174  1  0.30687236  0.83555949  0.38624179  1
  Si  Si175  1  0.97348382  0.33287795  0.38428750  1
  Si  Si176  1  0.69509545  0.34426024  0.61273908  1
  Si  Si177  1  0.52186558  0.91745167  0.61065722  1
  Si  Si178  1  0.80711893  0.58272308  0.38489188  1
  Si  Si179  1  0.13926851  0.42251003  0.88549643  1
  Si  Si180  1  0.85914938  0.91178797  0.61255151  1
  Si  Si181  1  0.13871065  0.91531904  0.38603595  1
  Si  Si182  1  0.13720972  0.41592349  0.38431406  1
  Si  Si183  1  0.63511486  0.66589309  0.88678425  1
  Si  Si184  1  0.68792996  0.16787913  0.11628715  1
  Si  Si185  1  0.97448848  0.67253947  0.88494381  1
  Si  Si186  1  0.69099926  0.33057155  0.11501996  1
  Si  Si187  1  0.85406516  0.58920934  0.11239413  1
  Si  Si188  1  0.68813456  0.83428939  0.60990604  1
  Si  Si189  1  0.36038014  0.16436216  0.11726746  1
  Si  Si190  1  0.02370670  0.67025356  0.11436208  1
  Si  Si191  1  0.64642249  0.15972389  0.88983938  1
  O  O192  1  0.27361488  0.11905007  0.09059145  1
  O  O193  1  0.26927301  0.12296797  0.57950417  1
  O  O194  1  0.27072692  0.62664891  0.08734914  1
  O  O195  1  0.26800759  0.60690694  0.57365266  1
  O  O196  1  0.60687421  0.11513563  0.08851460  1
  O  O197  1  0.59674070  0.12763170  0.56085524  1
  O  O198  1  0.60496980  0.61110287  0.08923834  1
  O  O199  1  0.61196848  0.59753979  0.57395106  1
  O  O200  1  0.93879240  0.11565261  0.08607594  1
  O  O201  1  0.93654903  0.10679786  0.57855576  1
  O  O202  1  0.93567026  0.62750422  0.08654466  1
  O  O203  1  0.95253524  0.62033821  0.58141075  1
  O  O204  1  0.11847303  0.34287776  0.08504955  1
  O  O205  1  0.10357441  0.37389552  0.58206565  1
  O  O206  1  0.11284882  0.86720443  0.08668871  1
  O  O207  1  0.10521717  0.87457894  0.58269228  1
  O  O208  1  0.45691880  0.35642463  0.09170663  1
  O  O209  1  0.43494706  0.37025863  0.58650261  1
  O  O210  1  0.43739429  0.87151843  0.08804884  1
  O  O211  1  0.43974110  0.86576094  0.58120408  1
  O  O212  1  0.77127284  0.34986894  0.08187793  1
  O  O213  1  0.76814110  0.39045521  0.58034363  1
  O  O214  1  0.75876713  0.85484567  0.07491082  1
  O  O215  1  0.77280345  0.86655117  0.58306692  1
  O  O216  1  0.29596928  0.38301652  0.07925402  1
  O  O217  1  0.26970838  0.38776264  0.58475782  1
  O  O218  1  0.27454336  0.87968874  0.08711561  1
  O  O219  1  0.27246907  0.88319335  0.58387159  1
  O  O220  1  0.61454552  0.38901658  0.09006543  1
  O  O221  1  0.60186061  0.38315375  0.58470388  1
  O  O222  1  0.59842151  0.87793435  0.08296446  1
  O  O223  1  0.60692512  0.88699377  0.58334394  1
  O  O224  1  0.95889310  0.38375908  0.08007307  1
  O  O225  1  0.93774535  0.38897034  0.58312346  1
  O  O226  1  0.94822863  0.88259062  0.07591319  1
  O  O227  1  0.93829590  0.87344372  0.58285752  1
  O  O228  1  0.10578571  0.12773084  0.08912576  1
  O  O229  1  0.10902386  0.12467677  0.57083903  1
  O  O230  1  0.10495645  0.63587940  0.08693722  1
  O  O231  1  0.11185139  0.63541075  0.58248605  1
  O  O232  1  0.43963161  0.12646004  0.08933161  1
  O  O233  1  0.42609541  0.14459150  0.57590767  1
  O  O234  1  0.43827090  0.62758809  0.08956545  1
  O  O235  1  0.45261041  0.62933904  0.57065786  1
  O  O236  1  0.77303844  0.14415823  0.08816540  1
  O  O237  1  0.77469614  0.11886060  0.56796550  1
  O  O238  1  0.77014847  0.64076485  0.08764542  1
  O  O239  1  0.79214418  0.64086173  0.57289302  1
  O  O240  1  0.06357033  0.12539171  0.41330616  1
  O  O241  1  0.05063474  0.09054749  0.92782173  1
  O  O242  1  0.06208938  0.62138607  0.41337451  1
  O  O243  1  0.05076733  0.61506476  0.91179835  1
  O  O244  1  0.39636309  0.12156165  0.41452075  1
  O  O245  1  0.40519363  0.11186023  0.92707099  1
  O  O246  1  0.39571435  0.63264924  0.41433979  1
  O  O247  1  0.39653516  0.59354886  0.92271701  1
  O  O248  1  0.72964675  0.11466469  0.41446276  1
  O  O249  1  0.71686225  0.09607515  0.91837835  1
  O  O250  1  0.72972984  0.62307582  0.41358713  1
  O  O251  1  0.71519166  0.62060154  0.92400931  1
  O  O252  1  0.21921431  0.36688198  0.41403840  1
  O  O253  1  0.22607090  0.37782083  0.91477736  1
  O  O254  1  0.23108468  0.87813764  0.41526505  1
  O  O255  1  0.20884941  0.84583095  0.91664927  1
  O  O256  1  0.57489592  0.36335577  0.42538597  1
  O  O257  1  0.54218223  0.35938676  0.92414028  1
  O  O258  1  0.56452508  0.87297767  0.41472149  1
  O  O259  1  0.56617192  0.87110764  0.91463477  1
  O  O260  1  0.89782485  0.37451123  0.41379428  1
  O  O261  1  0.87789823  0.35698352  0.91929397  1
  O  O262  1  0.89702684  0.87008780  0.41381435  1
  O  O263  1  0.89104426  0.85973172  0.91007391  1
  O  O264  1  0.05848982  0.37951074  0.41435224  1
  O  O265  1  0.06409383  0.39333032  0.92031963  1
  O  O266  1  0.06553786  0.87133418  0.41685472  1
  O  O267  1  0.05137081  0.89085357  0.91221824  1
  O  O268  1  0.38415086  0.37073461  0.42692026  1
  O  O269  1  0.38419087  0.40421153  0.91308237  1
  O  O270  1  0.39801457  0.87410981  0.41495289  1
  O  O271  1  0.40448678  0.89555225  0.92226597  1
  O  O272  1  0.73550361  0.37325033  0.41617807  1
  O  O273  1  0.72309344  0.40020554  0.92022462  1
  O  O274  1  0.73247201  0.87819576  0.41783687  1
  O  O275  1  0.72961733  0.87159901  0.91166108  1
  O  O276  1  0.23076616  0.11724831  0.41463258  1
  O  O277  1  0.22985718  0.14010486  0.93840077  1
  O  O278  1  0.22802353  0.62635177  0.41285604  1
  O  O279  1  0.21272627  0.63807207  0.92226092  1
  O  O280  1  0.56340328  0.12521860  0.41278678  1
  O  O281  1  0.56033420  0.13420256  0.91765459  1
  O  O282  1  0.56197850  0.63674551  0.41527672  1
  O  O283  1  0.55194112  0.63635045  0.91544687  1
  O  O284  1  0.89665920  0.12684089  0.41366604  1
  O  O285  1  0.87715281  0.12329606  0.92687097  1
  O  O286  1  0.89684134  0.62413375  0.41392900  1
  O  O287  1  0.89510092  0.65460063  0.92010471  1
  O  O288  1  0.18215776  -0.00054285  0.08854814  1
  O  O289  1  0.18471650  -0.00036843  0.58161331  1
  O  O290  1  0.17416756  0.50908765  0.07852986  1
  O  O291  1  0.16599991  0.50028598  0.58405146  1
  O  O292  1  0.51130951  -0.00100453  0.08655668  1
  O  O293  1  0.50022920  -0.00681256  0.57350525  1
  O  O294  1  0.50579723  0.49677967  0.09066003  1
  O  O295  1  0.50350064  0.49594117  0.58480919  1
  O  O296  1  0.82556571  0.01114299  0.07680996  1
  O  O297  1  0.84622398  -0.00862236  0.58013077  1
  O  O298  1  0.83457067  0.51188927  0.07840069  1
  O  O299  1  0.85530331  0.50796777  0.58059518  1
  O  O300  1  0.00308528  0.24417731  0.08964679  1
  O  O301  1  0.00398520  0.26272500  0.57200313  1
  O  O302  1  0.01478843  0.75212856  0.08554579  1
  O  O303  1  0.02132366  0.75220827  0.58321036  1
  O  O304  1  0.35132447  0.24631431  0.08875713  1
  O  O305  1  0.33007510  0.25744074  0.58429457  1
  O  O306  1  0.35037592  0.75045312  0.08919159  1
  O  O307  1  0.33636235  0.75732273  0.57058171  1
  O  O308  1  0.65739180  0.24893362  0.09113785  1
  O  O309  1  0.69216272  0.26656350  0.57740758  1
  O  O310  1  0.65721662  0.74512799  0.08651649  1
  O  O311  1  0.66672385  0.75851527  0.57222003  1
  O  O312  1  0.14037875  -0.00168084  0.41442561  1
  O  O313  1  0.18012576  -0.01688338  0.92460683  1
  O  O314  1  0.14887493  0.49939181  0.41263712  1
  O  O315  1  0.15754766  0.50588668  0.91204079  1
  O  O316  1  0.48329888  -0.00113432  0.41580384  1
  O  O317  1  0.50916451  0.00128595  0.91622408  1
  O  O318  1  0.48548156  0.51189440  0.42457478  1
  O  O319  1  0.51137378  0.49756072  0.91259404  1
  O  O320  1  0.82486943  -0.00193506  0.41427637  1
  O  O321  1  0.82119607  -0.01096102  0.91386226  1
  O  O322  1  0.81608722  0.49963119  0.41409973  1
  O  O323  1  0.84488031  0.49552084  0.91948161  1
  O  O324  1  0.30463227  0.24394302  0.41612656  1
  O  O325  1  0.33471834  0.26892774  0.92353085  1
  O  O326  1  0.30674962  0.75223589  0.41336086  1
  O  O327  1  0.35086863  0.74710702  0.93452045  1
  O  O328  1  0.66254332  0.24381500  0.41451869  1
  O  O329  1  0.67387120  0.23637020  0.92557852  1
  O  O330  1  0.65687014  0.75226846  0.41466044  1
  O  O331  1  0.64806747  0.75029971  0.91384085  1
  O  O332  1  0.98306028  0.25001215  0.41293321  1
  O  O333  1  1.00666501  0.24481847  0.93447193  1
  O  O334  1  0.98221369  0.74743634  0.41530498  1
  O  O335  1  1.00639000  0.75443753  0.91056718  1
  O  O336  1  0.21045824  0.08188478  0.19727874  1
  O  O337  1  0.20806206  0.08384853  0.68993597  1
  O  O338  1  0.20913022  0.58508884  0.19449907  1
  O  O339  1  0.20814556  0.58390419  0.69175913  1
  O  O340  1  0.54311500  0.08173012  0.19747685  1
  O  O341  1  0.54941461  0.07570687  0.69783045  1
  O  O342  1  0.54161868  0.58167830  0.19894010  1
  O  O343  1  0.54752152  0.58929508  0.68859601  1
  O  O344  1  0.87527757  0.08653348  0.19320661  1
  O  O345  1  0.86590658  0.07780447  0.68816990  1
  O  O346  1  0.87417619  0.58571228  0.19397699  1
  O  O347  1  0.88222943  0.58988863  0.68995197  1
  O  O348  1  0.04479863  0.33090621  0.19446271  1
  O  O349  1  0.04292733  0.33908216  0.69109837  1
  O  O350  1  0.04423682  0.83480078  0.19334282  1
  O  O351  1  0.04487273  0.83301923  0.69371763  1
  O  O352  1  0.37911619  0.32999497  0.19656049  1
  O  O353  1  0.36942888  0.33860239  0.69543703  1
  O  O354  1  0.37366434  0.83319128  0.19714608  1
  O  O355  1  0.37860075  0.82826242  0.68967977  1
  O  O356  1  0.70903875  0.33215126  0.19683103  1
  O  O357  1  0.71716989  0.34658655  0.69188558  1
  O  O358  1  0.70205031  0.83111021  0.19184720  1
  O  O359  1  0.70817203  0.83208348  0.69074700  1
  O  O360  1  0.21505748  0.41633117  0.20356802  1
  O  O361  1  0.20612469  0.41950335  0.69496071  1
  O  O362  1  0.21176182  0.91643574  0.19647304  1
  O  O363  1  0.20672411  0.91722548  0.69375803  1
  O  O364  1  0.54688322  0.41621702  0.19942153  1
  O  O365  1  0.54256696  0.41849445  0.69612907  1
  O  O366  1  0.54446631  0.91830548  0.19593452  1
  O  O367  1  0.54065435  0.91477020  0.69126667  1
  O  O368  1  0.87730028  0.41696589  0.20002450  1
  O  O369  1  0.87712322  0.42484562  0.69266728  1
  O  O370  1  0.87871654  0.91623312  0.19895716  1
  O  O371  1  0.87765703  0.91227765  0.69248636  1
  O  O372  1  0.04302635  0.16243009  0.19668703  1
  O  O373  1  0.05222579  0.17876866  0.69909030  1
  O  O374  1  0.04237686  0.66804763  0.19540093  1
  O  O375  1  0.04650645  0.66906353  0.69344202  1
  O  O376  1  0.37816485  0.16443109  0.19834356  1
  O  O377  1  0.36451654  0.17102458  0.69140153  1
  O  O378  1  0.37651416  0.66646303  0.19747868  1
  O  O379  1  0.38018077  0.66632929  0.69842068  1
  O  O380  1  0.70744251  0.16574917  0.19716567  1
  O  O381  1  0.71538469  0.15693893  0.69627335  1
  O  O382  1  0.70580175  0.66471826  0.19644684  1
  O  O383  1  0.71175643  0.66926933  0.69817772  1
  O  O384  1  0.12310369  0.08190097  0.30491522  1
  O  O385  1  0.13621076  0.08198195  0.80427864  1
  O  O386  1  0.12221091  0.58372161  0.30348460  1
  O  O387  1  0.12199418  0.58816455  0.80400193  1
  O  O388  1  0.45629040  0.08142234  0.30609985  1
  O  O389  1  0.45239618  0.07907481  0.80918768  1
  O  O390  1  0.45663006  0.58556148  0.30810700  1
  O  O391  1  0.45699928  0.58401367  0.80631002  1
  O  O392  1  0.78949833  0.08484407  0.30500277  1
  O  O393  1  0.79049327  0.07630661  0.80780073  1
  O  O394  1  0.79017627  0.58239054  0.30447030  1
  O  O395  1  0.79099051  0.58528389  0.79771642  1
  O  O396  1  0.29006995  0.32950651  0.30890542  1
  O  O397  1  0.28736161  0.34018121  0.80640237  1
  O  O398  1  0.28850789  0.83493469  0.30573451  1
  O  O399  1  0.29222755  0.83029265  0.79904368  1
  O  O400  1  0.62634691  0.33134693  0.30865654  1
  O  O401  1  0.61688696  0.33948286  0.80227453  1
  O  O402  1  0.62721246  0.83444152  0.30620654  1
  O  O403  1  0.62272035  0.83189514  0.80179587  1
  O  O404  1  0.95742985  0.33209421  0.30405139  1
  O  O405  1  0.95553273  0.33651464  0.79631066  1
  O  O406  1  0.96405933  0.83070072  0.30626297  1
  O  O407  1  0.95709918  0.83261146  0.80151944  1
  O  O408  1  0.11919151  0.41651683  0.30397365  1
  O  O409  1  0.12153860  0.42125419  0.80427518  1
  O  O410  1  0.12344208  0.91501987  0.30560730  1
  O  O411  1  0.12465183  0.91377706  0.80686805  1
  O  O412  1  0.45499558  0.41552277  0.30239565  1
  O  O413  1  0.45398195  0.41645541  0.80621756  1
  O  O414  1  0.45492350  0.91836182  0.30661394  1
  O  O415  1  0.46369747  0.91686023  0.80569127  1
  O  O416  1  0.78965067  0.41647310  0.30540343  1
  O  O417  1  0.79113639  0.41864910  0.80738333  1
  O  O418  1  0.78554315  0.91484203  0.30544228  1
  O  O419  1  0.78782619  0.91129293  0.80117570  1
  O  O420  1  0.28934676  0.16328507  0.30623606  1
  O  O421  1  0.28915250  0.16981801  0.80087661  1
  O  O422  1  0.28694916  0.66802917  0.30440197  1
  O  O423  1  0.28912504  0.66689598  0.79911158  1
  O  O424  1  0.62466015  0.16350406  0.30556458  1
  O  O425  1  0.63236078  0.15884028  0.81114644  1
  O  O426  1  0.62363211  0.66654248  0.30600817  1
  O  O427  1  0.62180091  0.66668084  0.80612116  1
  O  O428  1  0.95668012  0.16615618  0.30415550  1
  O  O429  1  0.94893778  0.17309263  0.80296545  1
  O  O430  1  0.95616364  0.66574917  0.30455293  1
  O  O431  1  0.95683927  0.67033353  0.80357415  1
  F  F432  1  0.04738265  -0.00116291  0.20202201  1
  F  F433  1  0.05067835  -0.01112527  0.69706937  1
  F  F434  1  0.04499460  0.50185512  0.20138618  1
  F  F435  1  0.04540334  0.50400707  0.70094844  1
  F  F436  1  0.37860898  -0.00032003  0.20314405  1
  F  F437  1  0.38028413  0.00618482  0.69873132  1
  F  F438  1  0.37858932  0.50231344  0.20455426  1
  F  F439  1  0.36973077  0.50101502  0.69945481  1
  F  F440  1  0.70365312  -0.00052222  0.19974634  1
  F  F441  1  0.71279718  -0.00590129  0.70016333  1
  F  F442  1  0.70956915  0.49989666  0.20414373  1
  F  F443  1  0.71300614  0.50064538  0.69939387  1
  F  F444  1  0.21408715  0.24661878  0.20495514  1
  F  F445  1  0.21038867  0.25703197  0.70238092  1
  F  F446  1  0.21279467  0.75091652  0.20269244  1
  F  F447  1  0.20795957  0.75086490  0.69579540  1
  F  F448  1  0.54525391  0.24889408  0.20673464  1
  F  F449  1  0.52766341  0.26509846  0.68493496  1
  F  F450  1  0.54485618  0.74567740  0.20346751  1
  F  F451  1  0.54508536  0.75030105  0.70093758  1
  F  F452  1  0.87794493  0.24851342  0.20269643  1
  F  F453  1  0.87620320  0.25206550  0.69489322  1
  F  F454  1  0.87928913  0.74473385  0.19953520  1
  F  F455  1  0.88036673  0.75076156  0.69914039  1
  F  F456  1  0.28780304  -0.00120360  0.29951067  1
  F  F457  1  0.28856523  0.00253853  0.79619693  1
  F  F458  1  0.28754537  0.50390093  0.30139935  1
  F  F459  1  0.28474105  0.50336464  0.79742850  1
  F  F460  1  0.62119440  -0.00053537  0.30068633  1
  F  F461  1  0.62341617  -0.00667912  0.79789389  1
  F  F462  1  0.62336142  0.49993337  0.30182340  1
  F  F463  1  0.62642972  0.50483863  0.79692840  1
  F  F464  1  0.96622617  0.00087557  0.30371849  1
  F  F465  1  0.94744839  -0.01193573  0.79869520  1
  F  F466  1  0.95578652  0.50241659  0.29804575  1
  F  F467  1  0.95516635  0.50457375  0.79533322  1
  F  F468  1  0.12080457  0.24864537  0.29789316  1
  F  F469  1  0.12221938  0.25741368  0.80182626  1
  F  F470  1  0.12037281  0.74988277  0.29673241  1
  F  F471  1  0.12165222  0.75060443  0.79491692  1
  F  F472  1  0.45544815  0.24699760  0.30142774  1
  F  F473  1  0.44792236  0.26128044  0.80074537  1
  F  F474  1  0.45107794  0.74612026  0.30295980  1
  F  F475  1  0.45866082  0.75113718  0.79783361  1
  F  F476  1  0.79018307  0.24982223  0.29827540  1
  F  F477  1  0.79729356  0.25103690  0.79788634  1
  F  F478  1  0.78402081  0.74341518  0.30027534  1
  F  F479  1  0.78884739  0.75296709  0.79668263  1
