# generated using pymatgen
data_K24Na3Li5Mg64Fe17Si79(O5F)48
_symmetry_space_group_name_H-M   'P 1'
_cell_length_a   16.09552060
_cell_length_b   18.58065870
_cell_length_c   20.54819925
_cell_angle_alpha   89.99204006
_cell_angle_beta   100.01207368
_cell_angle_gamma   90.02058913
_symmetry_Int_Tables_number   1
_chemical_formula_structural   K24Na3Li5Mg64Fe17Si79(O5F)48
_chemical_formula_sum   'K24 Na3 Li5 Mg64 Fe17 Si79 O240 F48'
_cell_volume   6051.66926865
_cell_formula_units_Z   1
loop_
 _symmetry_equiv_pos_site_id
 _symmetry_equiv_pos_as_xyz
  1  'x, y, z'
loop_
 _atom_site_type_symbol
 _atom_site_label
 _atom_site_symmetry_multiplicity
 _atom_site_fract_x
 _atom_site_fract_y
 _atom_site_fract_z
 _atom_site_occupancy
  K  K0  1  -0.00076519  0.00691869  -0.00225843  1
  K  K1  1  -0.00647442  -0.00293162  0.49772321  1
  K  K2  1  -0.01085645  0.50266270  -0.00547601  1
  K  K3  1  0.00406997  0.50764140  0.49887123  1
  K  K4  1  0.33020068  -0.00184532  0.00349755  1
  K  K5  1  0.33542256  0.00318006  0.49859488  1
  K  K6  1  0.32867699  0.49757203  -0.00266039  1
  K  K7  1  0.33768953  0.49240975  0.49977372  1
  K  K8  1  0.66516123  -0.00086831  -0.00542803  1
  K  K9  1  0.66452692  -0.00087976  0.50253871  1
  K  K10  1  0.67446584  0.49373501  -0.01099373  1
  K  K11  1  0.65959314  0.50155188  0.50513416  1
  K  K12  1  0.17626575  0.24202263  0.00182538  1
  K  K13  1  0.17034357  0.24215296  0.49755749  1
  K  K14  1  0.16674735  0.75863518  -0.00720557  1
  K  K15  1  0.16172839  0.75669047  0.50124242  1
  K  K16  1  0.49788778  0.24955774  -0.00616590  1
  K  K17  1  0.49394557  0.24268401  0.49799708  1
  K  K18  1  0.51035069  0.76162805  -0.00205862  1
  K  K19  1  0.51585391  0.75071525  0.50633074  1
  K  K20  1  0.82587875  0.24626492  -0.00746286  1
  K  K21  1  0.83391254  0.24651973  0.50277038  1
  K  K22  1  0.83310601  0.75607900  -0.00562726  1
  K  K23  1  0.82300561  0.76255895  0.50401416  1
  Na  Na24  1  0.33305591  0.24987344  0.75071472  1
  Na  Na25  1  0.16809166  0.83406058  0.75501873  1
  Na  Na26  1  0.00123156  0.91858989  0.25158788  1
  Li  Li27  1  0.33010378  0.24456851  0.24937843  1
  Li  Li28  1  0.16986596  -0.00148198  0.75269095  1
  Li  Li29  1  0.00063710  0.58258375  0.25362052  1
  Li  Li30  1  0.66803080  0.91674343  0.74515073  1
  Li  Li31  1  0.67006217  0.41514991  0.75267086  1
  Mg  Mg32  1  0.83402957  0.00033646  0.25409997  1
  Mg  Mg33  1  0.33265594  0.74956633  0.74667464  1
  Mg  Mg34  1  0.50482244  0.49761564  0.74650503  1
  Mg  Mg35  1  0.00057280  0.75222590  0.75601743  1
  Mg  Mg36  1  0.66773082  0.75258593  0.74484149  1
  Mg  Mg37  1  0.16205071  0.49989614  0.25343365  1
  Mg  Mg38  1  -0.00097830  0.74847635  0.25200594  1
  Mg  Mg39  1  0.16818763  0.49853599  0.75402358  1
  Mg  Mg40  1  0.49902423  0.00067419  0.24518437  1
  Mg  Mg41  1  0.33175291  0.74957968  0.24638938  1
  Mg  Mg42  1  0.66619996  0.25030302  0.75123596  1
  Mg  Mg43  1  0.16827154  -0.00052394  0.24674403  1
  Mg  Mg44  1  0.66569012  0.75000491  0.25087114  1
  Mg  Mg45  1  0.00116568  0.24976794  0.75402470  1
  Mg  Mg46  1  0.83599635  0.50123396  0.25322590  1
  Mg  Mg47  1  0.49813055  0.49951376  0.25106083  1
  Mg  Mg48  1  0.00111728  0.25063970  0.25289553  1
  Mg  Mg49  1  0.83077097  0.49974068  0.75290519  1
  Mg  Mg50  1  0.82984195  0.00047274  0.74971801  1
  Mg  Mg51  1  0.66591367  0.25029557  0.24992860  1
  Mg  Mg52  1  0.50203702  -0.00157963  0.74439505  1
  Mg  Mg53  1  0.33511049  0.58433378  0.74694279  1
  Mg  Mg54  1  0.83181781  0.83676997  0.75130407  1
  Mg  Mg55  1  0.50012173  0.83482592  0.24718137  1
  Mg  Mg56  1  0.16848780  0.33300263  0.75207773  1
  Mg  Mg57  1  0.50066109  0.83448738  0.74288324  1
  Mg  Mg58  1  0.16805752  0.33320764  0.25414499  1
  Mg  Mg59  1  0.66555301  0.08561761  0.25090317  1
  Mg  Mg60  1  0.00145401  0.91939375  0.75038958  1
  Mg  Mg61  1  0.50201401  0.33349604  0.75004992  1
  Mg  Mg62  1  0.00204700  0.08508131  0.25237405  1
  Mg  Mg63  1  0.49866629  0.16436806  0.74819176  1
  Mg  Mg64  1  0.83371494  0.16535868  0.75210154  1
  Mg  Mg65  1  0.66648331  0.58138090  0.74708703  1
  Mg  Mg66  1  0.33119520  0.91574633  0.24447418  1
  Mg  Mg67  1  0.83448917  0.66670856  0.75171887  1
  Mg  Mg68  1  0.66602808  0.08063174  0.74844282  1
  Mg  Mg69  1  0.00118710  0.58538899  0.75426069  1
  Mg  Mg70  1  0.00451178  0.08207390  0.75368292  1
  Mg  Mg71  1  0.33284517  0.08644046  0.24633163  1
  Mg  Mg72  1  0.00279445  0.41901001  0.25559973  1
  Mg  Mg73  1  0.83433956  0.83576692  0.25207493  1
  Mg  Mg74  1  0.50115320  0.66511180  0.25150685  1
  Mg  Mg75  1  0.16962482  0.16530893  0.24908538  1
  Mg  Mg76  1  0.49462062  0.16711404  0.24725568  1
  Mg  Mg77  1  0.33531747  0.41624169  0.75141281  1
  Mg  Mg78  1  0.50133479  0.66492581  0.74319954  1
  Mg  Mg79  1  0.33084396  0.91563637  0.75032285  1
  Mg  Mg80  1  0.33005436  0.41243849  0.25089507  1
  Mg  Mg81  1  0.16449637  0.83391236  0.24659032  1
  Mg  Mg82  1  -0.00032861  0.41639942  0.75441263  1
  Mg  Mg83  1  0.66784468  0.58506512  0.25243642  1
  Mg  Mg84  1  0.83576184  0.66539154  0.25306291  1
  Mg  Mg85  1  0.16732280  0.66610484  0.75279466  1
  Mg  Mg86  1  0.83105671  0.33496745  0.75228855  1
  Mg  Mg87  1  0.66723832  0.91696595  0.25069259  1
  Mg  Mg88  1  0.33053524  0.58272139  0.25153560  1
  Mg  Mg89  1  0.33135776  0.08040773  0.74856133  1
  Mg  Mg90  1  0.83676250  0.16602279  0.25395224  1
  Mg  Mg91  1  0.83592399  0.33419229  0.25359386  1
  Mg  Mg92  1  0.16976892  0.16474516  0.75157557  1
  Mg  Mg93  1  0.16181472  0.66483551  0.25109791  1
  Mg  Mg94  1  0.66653460  0.41678025  0.24975946  1
  Mg  Mg95  1  0.49491101  0.33250827  0.24669005  1
  Fe  Fe96  1  0.80917708  0.08575934  0.89129093  1
  Fe  Fe97  1  0.97849895  0.16821699  0.39185704  1
  Fe  Fe98  1  0.80616599  0.41343699  0.89069912  1
  Fe  Fe99  1  0.52236117  0.57919946  0.60569631  1
  Fe  Fe100  1  0.69091760  0.83735706  0.60939740  1
  Fe  Fe101  1  0.47574433  0.08043529  0.38662148  1
  Fe  Fe102  1  0.14519294  0.42103240  0.39498524  1
  Fe  Fe103  1  0.52089225  0.08672428  0.60685865  1
  Fe  Fe104  1  0.97752709  0.66894701  0.89236124  1
  Fe  Fe105  1  0.64295721  0.66192444  0.39180622  1
  Fe  Fe106  1  0.14435563  0.92230553  0.88989541  1
  Fe  Fe107  1  0.18559759  0.90935603  0.10547497  1
  Fe  Fe108  1  0.31124667  0.33478285  0.89173660  1
  Fe  Fe109  1  0.52694125  0.91701227  0.10817510  1
  Fe  Fe110  1  0.80750479  0.92040675  0.39217754  1
  Fe  Fe111  1  0.36190542  0.17357878  0.10627534  1
  Fe  Fe112  1  0.18851110  0.08371375  0.10565771  1
  Si  Si113  1  0.86323937  0.08281338  0.11638934  1
  Si  Si114  1  0.14145173  0.41544289  0.88918709  1
  Si  Si115  1  0.02531766  0.83372220  0.61700127  1
  Si  Si116  1  0.35494182  0.65837867  0.11430132  1
  Si  Si117  1  0.63396486  0.32993360  0.88726508  1
  Si  Si118  1  0.19074587  0.08288098  0.61459781  1
  Si  Si119  1  0.31167354  0.16385821  0.88508466  1
  Si  Si120  1  0.02637099  0.33430097  0.61685434  1
  Si  Si121  1  0.18429379  0.58320022  0.11610721  1
  Si  Si122  1  0.35282861  0.16791453  0.61200660  1
  Si  Si123  1  0.52651410  0.58354593  0.11421337  1
  Si  Si124  1  0.14692501  0.91145477  0.38524447  1
  Si  Si125  1  0.69832848  0.66300471  0.61088420  1
  Si  Si126  1  0.31317291  0.66303444  0.88515327  1
  Si  Si127  1  0.97426374  0.83954718  0.88958862  1
  Si  Si128  1  0.97689314  0.82971713  0.38972846  1
  Si  Si129  1  0.34932921  0.83269975  0.61071466  1
  Si  Si130  1  0.69785619  0.16767526  0.61180381  1
  Si  Si131  1  0.64257488  0.33792973  0.38382361  1
  Si  Si132  1  0.53143802  0.08933625  0.10897236  1
  Si  Si133  1  0.02095313  0.82366718  0.11319810  1
  Si  Si134  1  0.46881555  0.07713214  0.88282172  1
  Si  Si135  1  0.30374683  0.16086316  0.38728223  1
  Si  Si136  1  0.97799558  0.33406269  0.88909191  1
  Si  Si137  1  0.47555740  0.91308973  0.88194569  1
  Si  Si138  1  0.85401255  0.58011397  0.11693304  1
  Si  Si139  1  0.80369672  0.58672527  0.89004511  1
  Si  Si140  1  0.31517752  0.82761510  0.88630811  1
  Si  Si141  1  0.63848209  0.83247021  0.38657031  1
  Si  Si142  1  0.02924897  0.16905866  0.61724322  1
  Si  Si143  1  0.30904038  0.32757190  0.38871982  1
  Si  Si144  1  0.98214853  0.17048660  0.88904842  1
  Si  Si145  1  0.63799290  0.67009285  0.88137201  1
  Si  Si146  1  0.19032283  0.58341333  0.61518721  1
  Si  Si147  1  0.14703168  0.58086617  0.88926223  1
  Si  Si148  1  0.51270444  0.91472223  0.60528364  1
  Si  Si149  1  0.14719554  0.08963293  0.88752456  1
  Si  Si150  1  0.52192345  0.40752109  0.61052491  1
  Si  Si151  1  0.47426782  0.91128358  0.38317880  1
  Si  Si152  1  0.86558851  0.58151516  0.61638094  1
  Si  Si153  1  0.69863456  0.83309968  0.11113052  1
  Si  Si154  1  0.69961192  0.16558562  0.11571849  1
  Si  Si155  1  0.14108302  0.07647690  0.38922167  1
  Si  Si156  1  0.35525047  0.33412313  0.61552259  1
  Si  Si157  1  0.97633848  0.66599870  0.38737644  1
  Si  Si158  1  0.19082775  0.91936446  0.61505544  1
  Si  Si159  1  0.86192653  0.91698369  0.11567454  1
  Si  Si160  1  0.02396790  0.17250179  0.11413197  1
  Si  Si161  1  0.69474820  0.33197620  0.61514845  1
  Si  Si162  1  0.19051340  0.41893123  0.61524077  1
  Si  Si163  1  0.80934503  0.41480290  0.38569842  1
  Si  Si164  1  0.02794286  0.66827402  0.61631056  1
  Si  Si165  1  0.47284420  0.41271521  0.38482539  1
  Si  Si166  1  0.35304179  0.66773720  0.60912939  1
  Si  Si167  1  0.81385091  0.57867622  0.38995223  1
  Si  Si168  1  0.85681857  0.41650931  0.11732133  1
  Si  Si169  1  0.47623299  0.42307747  0.88627371  1
  Si  Si170  1  0.01786859  0.66295792  0.11770203  1
  Si  Si171  1  0.18641920  0.41913297  0.11595837  1
  Si  Si172  1  0.52765780  0.41900760  0.11330118  1
  Si  Si173  1  0.30675305  0.66927636  0.38446761  1
  Si  Si174  1  0.46691014  0.57992544  0.38755809  1
  Si  Si175  1  0.14625767  0.58932617  0.38962843  1
  Si  Si176  1  0.69212916  0.33137169  0.11532553  1
  Si  Si177  1  0.86371731  0.92080407  0.61309539  1
  Si  Si178  1  0.97573632  0.33769927  0.39125673  1
  Si  Si179  1  0.80750491  0.91508816  0.88643875  1
  Si  Si180  1  0.63804010  0.17320770  0.38501431  1
  Si  Si181  1  0.63991518  0.83306784  0.88014682  1
  Si  Si182  1  0.63248656  0.16451119  0.88722879  1
  Si  Si183  1  0.36036286  0.82485374  0.10811604  1
  Si  Si184  1  0.47753761  0.58526057  0.88198589  1
  Si  Si185  1  0.35540077  0.34471278  0.11064219  1
  Si  Si186  1  0.69302689  0.66711587  0.11441015  1
  Si  Si187  1  0.86619279  0.08663273  0.61650074  1
  Si  Si188  1  0.80427939  0.09170259  0.38986081  1
  Si  Si189  1  0.31052605  0.83180418  0.38346493  1
  Si  Si190  1  0.02150304  0.33583768  0.11741405  1
  Si  Si191  1  0.86056578  0.41672062  0.61564462  1
  O  O192  1  0.27888353  0.11179490  0.06634246  1
  O  O193  1  0.26671180  0.12034134  0.58185026  1
  O  O194  1  0.26794801  0.61200278  0.08675863  1
  O  O195  1  0.26767878  0.61806705  0.58362270  1
  O  O196  1  0.62194898  0.11347996  0.08456046  1
  O  O197  1  0.61463585  0.12661199  0.57493885  1
  O  O198  1  0.60005432  0.62974184  0.08590929  1
  O  O199  1  0.61927096  0.61307173  0.57756159  1
  O  O200  1  0.94163246  0.11961682  0.08738550  1
  O  O201  1  0.94074183  0.12887837  0.58561624  1
  O  O202  1  0.93729194  0.60955775  0.08870099  1
  O  O203  1  0.94422840  0.61977718  0.58699716  1
  O  O204  1  0.10327564  0.36856401  0.08776660  1
  O  O205  1  0.10305116  0.37433114  0.58665103  1
  O  O206  1  0.09890143  0.84149920  0.07670725  1
  O  O207  1  0.10511074  0.87058892  0.58815553  1
  O  O208  1  0.43506181  0.38654355  0.08248191  1
  O  O209  1  0.43619718  0.35821611  0.58080978  1
  O  O210  1  0.44333684  0.84803418  0.07826238  1
  O  O211  1  0.42790406  0.86269899  0.57818781  1
  O  O212  1  0.77172520  0.36908918  0.08724399  1
  O  O213  1  0.76906321  0.37906920  0.58615035  1
  O  O214  1  0.78114179  0.86629923  0.08301641  1
  O  O215  1  0.77832195  0.88437257  0.57481819  1
  O  O216  1  0.26993921  0.39554610  0.08541042  1
  O  O217  1  0.27149954  0.38531284  0.58643255  1
  O  O218  1  0.28037431  0.87160402  0.07372750  1
  O  O219  1  0.26536464  0.88096312  0.58011870  1
  O  O220  1  0.60382924  0.37465959  0.08562385  1
  O  O221  1  0.60291201  0.36791564  0.58391071  1
  O  O222  1  0.61878789  0.87768393  0.07315623  1
  O  O223  1  0.58781039  0.88013924  0.57181767  1
  O  O224  1  0.93899170  0.38699861  0.08809153  1
  O  O225  1  0.93608617  0.37399602  0.58567841  1
  O  O226  1  0.94248945  0.88106459  0.08827010  1
  O  O227  1  0.94214423  0.88032208  0.58401782  1
  O  O228  1  0.09984409  0.15124816  0.07699501  1
  O  O229  1  0.10468757  0.12996154  0.58602323  1
  O  O230  1  0.10115570  0.63278197  0.08772100  1
  O  O231  1  0.10547929  0.63053491  0.58532798  1
  O  O232  1  0.46525016  0.15085692  0.07838010  1
  O  O233  1  0.42755009  0.14615082  0.57256388  1
  O  O234  1  0.43285060  0.61788643  0.08502243  1
  O  O235  1  0.42758394  0.63860627  0.57291411  1
  O  O236  1  0.78133412  0.13395095  0.08691490  1
  O  O237  1  0.77926163  0.12948447  0.58543447  1
  O  O238  1  0.76751738  0.62434990  0.08385856  1
  O  O239  1  0.78173704  0.62610899  0.58525899  1
  O  O240  1  0.06314259  0.10059533  0.42497375  1
  O  O241  1  0.06380003  0.11942901  0.91713774  1
  O  O242  1  0.06154560  0.61924013  0.41688461  1
  O  O243  1  0.07180338  0.60892497  0.92504849  1
  O  O244  1  0.38104662  0.11032216  0.42125503  1
  O  O245  1  0.38603235  0.10343267  0.91306524  1
  O  O246  1  0.38045008  0.61015826  0.41217452  1
  O  O247  1  0.39474535  0.61094767  0.91343631  1
  O  O248  1  0.71669858  0.11990926  0.41453690  1
  O  O249  1  0.71576165  0.12332768  0.92534870  1
  O  O250  1  0.73600398  0.60161281  0.42511625  1
  O  O251  1  0.71587819  0.61805020  0.91373059  1
  O  O252  1  0.23876052  0.36186906  0.42776772  1
  O  O253  1  0.21321215  0.36158073  0.92558761  1
  O  O254  1  0.22892573  0.85963713  0.41543615  1
  O  O255  1  0.23553858  0.85566290  0.91649840  1
  O  O256  1  0.56276810  0.37200961  0.41376452  1
  O  O257  1  0.55497389  0.36958212  0.91559409  1
  O  O258  1  0.54502482  0.84836819  0.40735099  1
  O  O259  1  0.56172257  0.86777196  0.91210843  1
  O  O260  1  0.88268260  0.35678895  0.41426929  1
  O  O261  1  0.90009208  0.35473945  0.92542060  1
  O  O262  1  0.90494286  0.86435382  0.42622954  1
  O  O263  1  0.88392859  0.85825271  0.91505686  1
  O  O264  1  0.04119574  0.40067729  0.42198826  1
  O  O265  1  0.05254979  0.39435375  0.91454071  1
  O  O266  1  0.06694167  0.87489866  0.41423687  1
  O  O267  1  0.04305309  0.89946743  0.92045361  1
  O  O268  1  0.40054288  0.36972429  0.41588759  1
  O  O269  1  0.39727320  0.40370065  0.92185791  1
  O  O270  1  0.38907638  0.88489532  0.41245086  1
  O  O271  1  0.40142671  0.87483543  0.91576227  1
  O  O272  1  0.72311906  0.39057184  0.41329823  1
  O  O273  1  0.71787321  0.36978135  0.92596158  1
  O  O274  1  0.70571868  0.89332173  0.41864642  1
  O  O275  1  0.72336034  0.87962619  0.91146699  1
  O  O276  1  0.22092498  0.13043623  0.41777063  1
  O  O277  1  0.22438602  0.14733776  0.91402288  1
  O  O278  1  0.22155636  0.64992543  0.41465111  1
  O  O279  1  0.23388948  0.62875813  0.91560286  1
  O  O280  1  0.55773872  0.15137402  0.41738394  1
  O  O281  1  0.55022315  0.12746689  0.91335792  1
  O  O282  1  0.54629733  0.62627361  0.42309384  1
  O  O283  1  0.55404678  0.64161594  0.91036311  1
  O  O284  1  0.87565761  0.15060858  0.41974924  1
  O  O285  1  0.90342991  0.14586205  0.92355222  1
  O  O286  1  0.89892049  0.62716464  0.41789043  1
  O  O287  1  0.87961003  0.63956304  0.92399937  1
  O  O288  1  0.14912921  -0.00367006  0.06963744  1
  O  O289  1  0.17478267  0.00107617  0.58274268  1
  O  O290  1  0.16300505  0.50133125  0.08724012  1
  O  O291  1  0.17448046  0.50117354  0.58539856  1
  O  O292  1  0.50595505  0.01109252  0.07554760  1
  O  O293  1  0.48965285  -0.00558960  0.57432926  1
  O  O294  1  0.52989612  0.50172277  0.08404208  1
  O  O295  1  0.50591002  0.48413495  0.57228713  1
  O  O296  1  0.84881166  0.00041628  0.08613266  1
  O  O297  1  0.86458995  0.00508891  0.58660984  1
  O  O298  1  0.83718914  0.49778923  0.08740729  1
  O  O299  1  0.85852738  0.49899881  0.58546933  1
  O  O300  1  -0.00492923  0.25570689  0.08823354  1
  O  O301  1  0.02043533  0.25201058  0.58785074  1
  O  O302  1  -0.01254614  0.74172478  0.08635918  1
  O  O303  1  0.01649632  0.75039490  0.58594088  1
  O  O304  1  0.33893100  0.26942462  0.07303461  1
  O  O305  1  0.32570593  0.25268756  0.59091543  1
  O  O306  1  0.34128888  0.73875479  0.08374090  1
  O  O307  1  0.32639081  0.75024487  0.58310428  1
  O  O308  1  0.68316033  0.24886324  0.08647895  1
  O  O309  1  0.69758680  0.25142621  0.58232429  1
  O  O310  1  0.68928779  0.74828146  0.08346589  1
  O  O311  1  0.68780362  0.74184576  0.57711597  1
  O  O312  1  0.16616594  -0.00717815  0.41627916  1
  O  O313  1  0.17788217  0.01427833  0.92221412  1
  O  O314  1  0.17526381  0.51495331  0.42762083  1
  O  O315  1  0.16968553  0.49779119  0.91535293  1
  O  O316  1  0.50645829  -0.01333794  0.41753751  1
  O  O317  1  0.49034788  -0.00496206  0.91158440  1
  O  O318  1  0.47774491  0.49535944  0.41377980  1
  O  O319  1  0.50723727  0.50580704  0.91179334  1
  O  O320  1  0.82998306  0.01437855  0.42418991  1
  O  O321  1  0.82589493  -0.00870380  0.92495545  1
  O  O322  1  0.83940176  0.49475084  0.41418296  1
  O  O323  1  0.81931690  0.50807648  0.92516404  1
  O  O324  1  0.32297228  0.24413319  0.41572331  1
  O  O325  1  0.34794521  0.24060953  0.91504422  1
  O  O326  1  0.33543801  0.74999980  0.41253653  1
  O  O327  1  0.33611330  0.74361209  0.91508633  1
  O  O328  1  0.66568826  0.25672338  0.41163957  1
  O  O329  1  0.63490321  0.24721930  0.91698480  1
  O  O330  1  0.66988640  0.75547338  0.42011358  1
  O  O331  1  0.65544138  0.75129371  0.91281855  1
  O  O332  1  1.00888645  0.26157886  0.42443201  1
  O  O333  1  1.01255144  0.25321711  0.91330006  1
  O  O334  1  0.99487777  0.74651967  0.42014265  1
  O  O335  1  1.00509173  0.76192202  0.92239775  1
  O  O336  1  0.21084631  0.08373685  0.19868990  1
  O  O337  1  0.21068539  0.08508060  0.69393547  1
  O  O338  1  0.20680993  0.58295040  0.19646225  1
  O  O339  1  0.20889142  0.58207444  0.69553726  1
  O  O340  1  0.54804103  0.08676710  0.19055935  1
  O  O341  1  0.54522700  0.08439128  0.69831504  1
  O  O342  1  0.54217280  0.58134078  0.19451371  1
  O  O343  1  0.54393241  0.58165054  0.69727445  1
  O  O344  1  0.87620965  0.08320890  0.19642142  1
  O  O345  1  0.88121270  0.08751790  0.69646889  1
  O  O346  1  0.86814507  0.58243066  0.19635375  1
  O  O347  1  0.88066538  0.58065483  0.69649125  1
  O  O348  1  0.04030856  0.33574556  0.19766704  1
  O  O349  1  0.04215891  0.33613809  0.69713300  1
  O  O350  1  0.04417966  0.82258589  0.19321474  1
  O  O351  1  0.03436625  0.83104498  0.69580400  1
  O  O352  1  0.37778787  0.34331071  0.19075171  1
  O  O353  1  0.38076150  0.34227659  0.69420141  1
  O  O354  1  0.37600293  0.82786268  0.18997393  1
  O  O355  1  0.37206373  0.83218084  0.69102193  1
  O  O356  1  0.70979443  0.33448605  0.19565565  1
  O  O357  1  0.71266221  0.32926637  0.69455961  1
  O  O358  1  0.71015097  0.83124722  0.19180408  1
  O  O359  1  0.71411365  0.83343190  0.69965951  1
  O  O360  1  0.20780936  0.41790021  0.19609286  1
  O  O361  1  0.20740705  0.41974848  0.69519593  1
  O  O362  1  0.21048269  0.91336957  0.19779584  1
  O  O363  1  0.21687188  0.92046331  0.69298942  1
  O  O364  1  0.54451924  0.41883244  0.19389859  1
  O  O365  1  0.53849460  0.41340018  0.69049019  1
  O  O366  1  0.54703798  0.91611873  0.19998826  1
  O  O367  1  0.53166534  0.91473654  0.68596720  1
  O  O368  1  0.87463779  0.41637701  0.19755248  1
  O  O369  1  0.88009043  0.41645525  0.69561135  1
  O  O370  1  0.86921674  0.91776126  0.19458584  1
  O  O371  1  0.87726319  0.91827692  0.69365994  1
  O  O372  1  0.04385356  0.17047019  0.19492961  1
  O  O373  1  0.04371671  0.16828665  0.69722455  1
  O  O374  1  0.04111063  0.66466601  0.19728508  1
  O  O375  1  0.04645916  0.66573978  0.69617237  1
  O  O376  1  0.37690015  0.16954193  0.19707450  1
  O  O377  1  0.37852702  0.15807149  0.69105191  1
  O  O378  1  0.37576206  0.66048095  0.19484184  1
  O  O379  1  0.37509200  0.66533671  0.69017692  1
  O  O380  1  0.71399783  0.16884065  0.19619492  1
  O  O381  1  0.71099755  0.16897742  0.69250643  1
  O  O382  1  0.71100106  0.66502153  0.19467857  1
  O  O383  1  0.71324652  0.66489369  0.69252679  1
  O  O384  1  0.12269151  0.08071680  0.30865634  1
  O  O385  1  0.12275163  0.08969986  0.80728113  1
  O  O386  1  0.12978318  0.58426237  0.30951028  1
  O  O387  1  0.12667012  0.58177739  0.80802685  1
  O  O388  1  0.45660371  0.08160175  0.29530446  1
  O  O389  1  0.45455288  0.07984158  0.80282912  1
  O  O390  1  0.45425822  0.58144331  0.30626440  1
  O  O391  1  0.45612586  0.58504760  0.80190955  1
  O  O392  1  0.78757681  0.08765352  0.30801376  1
  O  O393  1  0.78773478  0.08473296  0.79974161  1
  O  O394  1  0.79138051  0.58227441  0.30874130  1
  O  O395  1  0.78962306  0.58480371  0.80844687  1
  O  O396  1  0.28856402  0.33600376  0.30879508  1
  O  O397  1  0.28397692  0.34389283  0.80201844  1
  O  O398  1  0.29131179  0.82952890  0.30314170  1
  O  O399  1  0.30435331  0.82788233  0.80661041  1
  O  O400  1  0.62308438  0.33741962  0.30329470  1
  O  O401  1  0.62195439  0.33055003  0.80718275  1
  O  O402  1  0.62423070  0.83091763  0.30483175  1
  O  O403  1  0.61804843  0.82886820  0.80109390  1
  O  O404  1  0.95685649  0.33574616  0.30931109  1
  O  O405  1  0.95715303  0.33453824  0.80761555  1
  O  O406  1  0.95314367  0.82541962  0.30998926  1
  O  O407  1  0.95603317  0.83606992  0.80780977  1
  O  O408  1  0.12362040  0.41691770  0.30328080  1
  O  O409  1  0.12282951  0.41662782  0.80774193  1
  O  O410  1  0.13388990  0.91403555  0.30619668  1
  O  O411  1  0.11647674  0.92582800  0.80216549  1
  O  O412  1  0.45624004  0.41540536  0.30425928  1
  O  O413  1  0.45838924  0.42002747  0.80542307  1
  O  O414  1  0.45299182  0.91342778  0.30213606  1
  O  O415  1  0.45765794  0.91309889  0.80176977  1
  O  O416  1  0.78876725  0.41650486  0.30491148  1
  O  O417  1  0.79205402  0.41659295  0.80038478  1
  O  O418  1  0.78787229  0.91648853  0.30036349  1
  O  O419  1  0.79503526  0.91916449  0.80666182  1
  O  O420  1  0.28623666  0.16223425  0.30749937  1
  O  O421  1  0.28872627  0.15817169  0.80538648  1
  O  O422  1  0.28917468  0.66674332  0.30377764  1
  O  O423  1  0.29328381  0.66376076  0.80462878  1
  O  O424  1  0.62245853  0.17115376  0.30375781  1
  O  O425  1  0.62349673  0.16537382  0.80673547  1
  O  O426  1  0.62137626  0.66434699  0.29951316  1
  O  O427  1  0.62286590  0.66873544  0.80125004  1
  O  O428  1  0.95664239  0.16930238  0.30004620  1
  O  O429  1  0.95883625  0.16807181  0.80781892  1
  O  O430  1  0.95500099  0.66748745  0.30770223  1
  O  O431  1  0.95537335  0.66597531  0.80055655  1
  F  F432  1  0.04811587  0.01007264  0.20027658  1
  F  F433  1  0.03521848  0.00340300  0.69716971  1
  F  F434  1  0.04391762  0.49904854  0.20253094  1
  F  F435  1  0.04643996  0.50029195  0.70528081  1
  F  F436  1  0.37832896  -0.00396503  0.19629514  1
  F  F437  1  0.37833701  -0.00281814  0.70013373  1
  F  F438  1  0.37751516  0.50046177  0.20295471  1
  F  F439  1  0.37808990  0.50078025  0.70069590  1
  F  F440  1  0.71255070  0.00410109  0.20278953  1
  F  F441  1  0.71403327  0.00345013  0.69632362  1
  F  F442  1  0.71179176  0.50068102  0.20359570  1
  F  F443  1  0.71739904  0.50603975  0.69767144  1
  F  F444  1  0.20648802  0.25322185  0.20335233  1
  F  F445  1  0.19614732  0.25033157  0.69776007  1
  F  F446  1  0.21081230  0.74518552  0.20143354  1
  F  F447  1  0.21488710  0.73875284  0.69903922  1
  F  F448  1  0.54821491  0.25458961  0.19934688  1
  F  F449  1  0.54733817  0.24991678  0.70004906  1
  F  F450  1  0.54422033  0.74760466  0.19979968  1
  F  F451  1  0.54474221  0.74867984  0.69520175  1
  F  F452  1  0.87669625  0.25397677  0.20273948  1
  F  F453  1  0.88064893  0.25145985  0.70468000  1
  F  F454  1  0.87702186  0.74846817  0.20325767  1
  F  F455  1  0.87879053  0.75128672  0.70342686  1
  F  F456  1  0.29209584  -0.00170398  0.29608995  1
  F  F457  1  0.29668852  -0.00264229  0.80042711  1
  F  F458  1  0.28811823  0.49919462  0.29801072  1
  F  F459  1  0.29008698  0.50363604  0.79738667  1
  F  F460  1  0.62129645  0.00315676  0.29704916  1
  F  F461  1  0.61967879  -0.00228986  0.79574733  1
  F  F462  1  0.62003834  0.49958295  0.29812090  1
  F  F463  1  0.62202735  0.50121980  0.79790803  1
  F  F464  1  0.95026346  0.00999719  0.30373395  1
  F  F465  1  0.95116292  0.00219005  0.79776943  1
  F  F466  1  0.95183246  0.49830304  0.30113484  1
  F  F467  1  0.95535574  0.50052388  0.80022708  1
  F  F468  1  0.12131719  0.24986832  0.30024575  1
  F  F469  1  0.12092693  0.25163174  0.79958426  1
  F  F470  1  0.12196683  0.74908859  0.29922813  1
  F  F471  1  0.11906097  0.73877446  0.80440170  1
  F  F472  1  0.46222105  0.25368209  0.29819785  1
  F  F473  1  0.46730598  0.24908150  0.79847680  1
  F  F474  1  0.45245198  0.74781861  0.29416212  1
  F  F475  1  0.45596848  0.74781133  0.79075434  1
  F  F476  1  0.78628938  0.25288066  0.29842606  1
  F  F477  1  0.78807714  0.24926268  0.79916436  1
  F  F478  1  0.78655657  0.74842019  0.29734511  1
  F  F479  1  0.78712594  0.74821875  0.79883648  1
