# generated using pymatgen
data_K24Na3Li5Mg64Fe17Si79(O5F)48
_symmetry_space_group_name_H-M   'P 1'
_cell_length_a   16.08021377
_cell_length_b   18.58462589
_cell_length_c   20.55738104
_cell_angle_alpha   90.01265742
_cell_angle_beta   100.02550029
_cell_angle_gamma   89.97786564
_symmetry_Int_Tables_number   1
_chemical_formula_structural   K24Na3Li5Mg64Fe17Si79(O5F)48
_chemical_formula_sum   'K24 Na3 Li5 Mg64 Fe17 Si79 O240 F48'
_cell_volume   6049.65658266
_cell_formula_units_Z   1
loop_
 _symmetry_equiv_pos_site_id
 _symmetry_equiv_pos_as_xyz
  1  'x, y, z'
loop_
 _atom_site_type_symbol
 _atom_site_label
 _atom_site_symmetry_multiplicity
 _atom_site_fract_x
 _atom_site_fract_y
 _atom_site_fract_z
 _atom_site_occupancy
  K  K0  1  0.00475548  -0.00099815  -0.00179318  1
  K  K1  1  0.01172478  -0.00899391  0.50637827  1
  K  K2  1  0.00324222  0.50367587  0.00161787  1
  K  K3  1  0.00717629  0.49735162  0.49367596  1
  K  K4  1  0.31430059  0.00072985  -0.00509092  1
  K  K5  1  0.33012776  -0.00557378  0.50233953  1
  K  K6  1  0.33567604  0.50374322  0.00658793  1
  K  K7  1  0.32834159  0.49664997  0.49807115  1
  K  K8  1  0.66477111  -0.00365743  -0.00365049  1
  K  K9  1  0.66649643  -0.00315167  0.50044445  1
  K  K10  1  0.66307957  0.50195799  0.00543497  1
  K  K11  1  0.66397673  0.49977737  0.49954124  1
  K  K12  1  0.17283824  0.24502296  -0.00292238  1
  K  K13  1  0.16988334  0.26609628  0.49863518  1
  K  K14  1  0.16834644  0.74774462  0.00107492  1
  K  K15  1  0.16590000  0.75304215  0.50495436  1
  K  K16  1  0.50039386  0.24696465  0.00761067  1
  K  K17  1  0.49600493  0.25426065  0.49496670  1
  K  K18  1  0.49702462  0.75658321  -0.01438999  1
  K  K19  1  0.50348047  0.74089777  0.50734075  1
  K  K20  1  0.83193735  0.24980392  0.00165223  1
  K  K21  1  0.83098212  0.25225750  0.49693635  1
  K  K22  1  0.82949636  0.74889898  -0.00319597  1
  K  K23  1  0.82708980  0.75103060  0.50211400  1
  Na  Na24  1  0.33724069  0.75010006  0.75699081  1
  Na  Na25  1  0.50259540  0.67115145  0.75533031  1
  Na  Na26  1  0.33540861  0.41886296  0.25228182  1
  Li  Li27  1  0.16329944  -0.00284810  0.75631654  1
  Li  Li28  1  0.65925470  0.25273612  0.24849524  1
  Li  Li29  1  0.66562939  0.41131500  0.25395874  1
  Li  Li30  1  0.83312857  0.33192725  0.74951551  1
  Li  Li31  1  0.50668873  0.17325578  0.24705258  1
  Mg  Mg32  1  0.49696889  0.00025473  0.75370205  1
  Mg  Mg33  1  0.50353393  0.00457167  0.24891886  1
  Mg  Mg34  1  0.00001962  0.25156963  0.24805805  1
  Mg  Mg35  1  0.33356534  0.75022567  0.24950495  1
  Mg  Mg36  1  0.16688822  0.50196091  0.74732205  1
  Mg  Mg37  1  -0.00013031  0.74902740  0.24646120  1
  Mg  Mg38  1  0.83590295  0.00273057  0.24632702  1
  Mg  Mg39  1  0.83469830  0.49689786  0.74846364  1
  Mg  Mg40  1  0.66777855  0.25009164  0.75284593  1
  Mg  Mg41  1  0.50161189  0.49752509  0.25344457  1
  Mg  Mg42  1  0.33205903  0.25056191  0.74753102  1
  Mg  Mg43  1  0.33881798  0.25091851  0.24875292  1
  Mg  Mg44  1  0.66655732  0.74762405  0.25467732  1
  Mg  Mg45  1  -0.00281145  0.24946535  0.75146589  1
  Mg  Mg46  1  0.00121108  0.74909043  0.74701753  1
  Mg  Mg47  1  0.16411542  0.50062977  0.25112880  1
  Mg  Mg48  1  0.83142102  0.00173404  0.75229817  1
  Mg  Mg49  1  0.50183932  0.50102199  0.74756532  1
  Mg  Mg50  1  0.66602115  0.75030638  0.75086249  1
  Mg  Mg51  1  0.82683573  0.49778839  0.25306261  1
  Mg  Mg52  1  0.17163060  0.00168879  0.24392275  1
  Mg  Mg53  1  0.16915061  0.33627484  0.25168266  1
  Mg  Mg54  1  0.66730181  0.08904753  0.24832489  1
  Mg  Mg55  1  0.33346740  0.41510524  0.74723209  1
  Mg  Mg56  1  0.16685894  0.66803232  0.74927138  1
  Mg  Mg57  1  -0.00349458  0.41428428  0.74773590  1
  Mg  Mg58  1  0.83154595  0.66390727  0.25280964  1
  Mg  Mg59  1  0.66915791  0.41493361  0.74947150  1
  Mg  Mg60  1  0.83345530  0.16872151  0.75524744  1
  Mg  Mg61  1  0.32865919  0.91690090  0.75256993  1
  Mg  Mg62  1  0.00094020  0.08262380  0.75093887  1
  Mg  Mg63  1  0.16530564  0.33426603  0.74770929  1
  Mg  Mg64  1  0.00119320  0.91698457  0.24371874  1
  Mg  Mg65  1  -0.00213519  0.58359720  0.74660122  1
  Mg  Mg66  1  0.16738913  0.83555072  0.24431781  1
  Mg  Mg67  1  0.16895041  0.16746048  0.24475768  1
  Mg  Mg68  1  0.50210691  0.83487079  0.25044983  1
  Mg  Mg69  1  0.50553034  0.33027429  0.25023980  1
  Mg  Mg70  1  0.32749226  0.08344710  0.74985380  1
  Mg  Mg71  1  0.00058877  0.08595849  0.24388130  1
  Mg  Mg72  1  0.33547534  0.58413707  0.75093877  1
  Mg  Mg73  1  0.50146070  0.66369034  0.25553890  1
  Mg  Mg74  1  0.49707335  0.16645072  0.74942261  1
  Mg  Mg75  1  0.83227923  0.66411449  0.74681795  1
  Mg  Mg76  1  -0.00230671  0.58532535  0.25193697  1
  Mg  Mg77  1  0.16460622  0.16305706  0.75013034  1
  Mg  Mg78  1  0.00083023  0.91639374  0.74884585  1
  Mg  Mg79  1  0.33720663  0.08679837  0.24560543  1
  Mg  Mg80  1  0.66670443  0.91586025  0.75306166  1
  Mg  Mg81  1  0.33381305  0.91753867  0.24623944  1
  Mg  Mg82  1  0.66795998  0.58529934  0.74989959  1
  Mg  Mg83  1  0.83457580  0.83433443  0.24906311  1
  Mg  Mg84  1  -0.00087471  0.41652123  0.25250313  1
  Mg  Mg85  1  0.33264427  0.58397160  0.25231877  1
  Mg  Mg86  1  0.82671401  0.33153162  0.25351625  1
  Mg  Mg87  1  0.49860618  0.33393248  0.74776775  1
  Mg  Mg88  1  0.66663501  0.08434150  0.75286313  1
  Mg  Mg89  1  0.50105925  0.83471837  0.75666182  1
  Mg  Mg90  1  0.83208264  0.16700819  0.24686821  1
  Mg  Mg91  1  0.16416179  0.83526957  0.74958312  1
  Mg  Mg92  1  0.83243558  0.83456899  0.74840888  1
  Mg  Mg93  1  0.16578732  0.66601205  0.24985972  1
  Mg  Mg94  1  0.66772212  0.58061048  0.25548169  1
  Mg  Mg95  1  0.66911289  0.91730763  0.25107950  1
  Fe  Fe96  1  0.63437639  0.66472094  0.39412045  1
  Fe  Fe97  1  0.14440222  0.41912921  0.39155262  1
  Fe  Fe98  1  0.85891893  0.08536288  0.10640510  1
  Fe  Fe99  1  0.30442334  0.83229475  0.89255260  1
  Fe  Fe100  1  0.13571332  0.08101840  0.88885009  1
  Fe  Fe101  1  0.01862328  0.83542773  0.60690069  1
  Fe  Fe102  1  0.80681282  0.08405745  0.89124973  1
  Fe  Fe103  1  0.80988184  0.57899042  0.39458724  1
  Fe  Fe104  1  0.69477109  0.67097196  0.60932438  1
  Fe  Fe105  1  0.35770169  0.33386846  0.60819099  1
  Fe  Fe106  1  0.63945653  0.83224371  0.89283019  1
  Fe  Fe107  1  0.19385969  0.09010591  0.10630867  1
  Fe  Fe108  1  0.02548243  0.66298954  0.60731003  1
  Fe  Fe109  1  0.01971262  0.66007988  0.10882758  1
  Fe  Fe110  1  0.86121299  0.57262038  0.60770575  1
  Fe  Fe111  1  0.19001678  0.91341298  0.10490271  1
  Fe  Fe112  1  0.30397072  0.66931330  0.38909081  1
  Si  Si113  1  0.02566514  0.16585304  0.61345205  1
  Si  Si114  1  0.97438760  0.32743960  0.38761209  1
  Si  Si115  1  0.47800368  0.92267399  0.38394333  1
  Si  Si116  1  0.52330689  0.41760533  0.11575161  1
  Si  Si117  1  0.81036773  0.08438047  0.38491502  1
  Si  Si118  1  0.14235300  0.41707014  0.88467829  1
  Si  Si119  1  0.52286516  0.91924794  0.61717223  1
  Si  Si120  1  0.69190569  0.16897737  0.11133463  1
  Si  Si121  1  0.52666275  0.58184435  0.11701877  1
  Si  Si122  1  0.36757258  0.83178835  0.11239653  1
  Si  Si123  1  0.14440992  0.91909738  0.38119124  1
  Si  Si124  1  0.68918669  0.84190914  0.61292566  1
  Si  Si125  1  0.35397043  0.16423320  0.61061426  1
  Si  Si126  1  0.52947333  0.41589831  0.61208407  1
  Si  Si127  1  0.19058812  0.41405830  0.11338642  1
  Si  Si128  1  0.68966928  0.66629041  0.11646820  1
  Si  Si129  1  0.63504852  0.16752869  0.88736175  1
  Si  Si130  1  0.68677096  0.33196304  0.11782196  1
  Si  Si131  1  0.85572024  0.91511587  0.11151978  1
  Si  Si132  1  0.13285632  0.90904674  0.88891207  1
  Si  Si133  1  0.81028369  0.41496864  0.88519355  1
  Si  Si134  1  0.14428711  0.08394750  0.38204047  1
  Si  Si135  1  0.52871156  0.58001973  0.61320923  1
  Si  Si136  1  0.68528196  0.16785565  0.61565899  1
  Si  Si137  1  0.14306136  0.58159872  0.88587538  1
  Si  Si138  1  0.47854065  0.08621738  0.38287246  1
  Si  Si139  1  0.64406198  0.33064246  0.38642554  1
  Si  Si140  1  0.84963690  0.41449504  0.11714527  1
  Si  Si141  1  0.19572392  0.58051927  0.11122890  1
  Si  Si142  1  0.31115414  0.65839920  0.89021748  1
  Si  Si143  1  0.96842183  0.82797893  0.88378130  1
  Si  Si144  1  0.53229497  0.91644000  0.11508479  1
  Si  Si145  1  0.02447707  0.33162057  0.61345220  1
  Si  Si146  1  0.47781142  0.41433982  0.88597316  1
  Si  Si147  1  0.97089677  0.17226447  0.89013146  1
  Si  Si148  1  0.47045664  0.92471159  0.89202348  1
  Si  Si149  1  0.81052953  0.57883690  0.88802100  1
  Si  Si150  1  0.97840239  0.33533798  0.88497669  1
  Si  Si151  1  0.36364073  0.83285919  0.61752308  1
  Si  Si152  1  0.64364515  0.33277330  0.88612948  1
  Si  Si153  1  0.97846515  0.16342987  0.38373095  1
  Si  Si154  1  0.36058895  0.33194166  0.11336141  1
  Si  Si155  1  0.01911661  0.34043842  0.11365174  1
  Si  Si156  1  0.69473419  0.83025257  0.11681864  1
  Si  Si157  1  0.19551029  0.91403058  0.61206551  1
  Si  Si158  1  0.47680780  0.57605273  0.88748038  1
  Si  Si159  1  0.46948637  0.08986447  0.88492080  1
  Si  Si160  1  0.01792828  0.82956738  0.10856953  1
  Si  Si161  1  0.36373858  0.66514470  0.11628356  1
  Si  Si162  1  0.81141425  0.91541157  0.88886406  1
  Si  Si163  1  0.46552528  0.57694948  0.39059484  1
  Si  Si164  1  0.64495307  0.16675732  0.38435206  1
  Si  Si165  1  0.97905429  0.83729015  0.38209047  1
  Si  Si166  1  0.31213914  0.16539770  0.38410780  1
  Si  Si167  1  0.68953263  0.32944113  0.61697925  1
  Si  Si168  1  0.97525813  0.66336431  0.88489479  1
  Si  Si169  1  0.31432474  0.83841277  0.38605782  1
  Si  Si170  1  0.64642900  0.66081289  0.89152175  1
  Si  Si171  1  0.02762279  0.17634279  0.10932779  1
  Si  Si172  1  0.13401110  0.59058504  0.38911028  1
  Si  Si173  1  0.30471695  0.17078671  0.88562768  1
  Si  Si174  1  0.36450020  0.66390588  0.61737849  1
  Si  Si175  1  0.81224291  0.91948058  0.38435083  1
  Si  Si176  1  0.31333135  0.32896004  0.38763161  1
  Si  Si177  1  0.19882687  0.58760669  0.61278753  1
  Si  Si178  1  0.18678344  0.42158020  0.61194228  1
  Si  Si179  1  0.36730590  0.16765571  0.11024628  1
  Si  Si180  1  0.85337095  0.40572661  0.61327541  1
  Si  Si181  1  0.64484392  0.83798711  0.38803288  1
  Si  Si182  1  0.53200347  0.08155714  0.11383629  1
  Si  Si183  1  0.52219157  0.08283696  0.61562897  1
  Si  Si184  1  0.85477897  0.09210801  0.61594771  1
  Si  Si185  1  0.81215007  0.40928026  0.38899737  1
  Si  Si186  1  0.48255585  0.41185325  0.38668377  1
  Si  Si187  1  0.85357638  0.92707602  0.61238306  1
  Si  Si188  1  0.85064781  0.57821505  0.11360539  1
  Si  Si189  1  0.19158091  0.08057393  0.61361434  1
  Si  Si190  1  0.96910436  0.67327949  0.38619297  1
  Si  Si191  1  0.30907432  0.33548987  0.88443552  1
  O  O192  1  0.28862634  0.12244884  0.07131969  1
  O  O193  1  0.27090704  0.11379933  0.58146514  1
  O  O194  1  0.27880724  0.61827905  0.08637531  1
  O  O195  1  0.28556268  0.61092478  0.58428589  1
  O  O196  1  0.61093268  0.11520569  0.08231955  1
  O  O197  1  0.60452727  0.11479532  0.58604523  1
  O  O198  1  0.60454405  0.61942874  0.08659197  1
  O  O199  1  0.60389897  0.60847095  0.57743462  1
  O  O200  1  0.95491965  0.12047636  0.07614104  1
  O  O201  1  0.93373836  0.12719823  0.58390210  1
  O  O202  1  0.92674917  0.59967047  0.07549151  1
  O  O203  1  0.96209625  0.58279233  0.57810189  1
  O  O204  1  0.09810741  0.37617167  0.08178200  1
  O  O205  1  0.09874966  0.37567498  0.58479116  1
  O  O206  1  0.09975996  0.84930035  0.07629335  1
  O  O207  1  0.11406743  0.87192143  0.57280373  1
  O  O208  1  0.43280440  0.37858618  0.08170497  1
  O  O209  1  0.45568525  0.36239461  0.57696421  1
  O  O210  1  0.45424514  0.86194561  0.08725818  1
  O  O211  1  0.44231295  0.86846507  0.58457429  1
  O  O212  1  0.76860571  0.36311751  0.08537669  1
  O  O213  1  0.77727144  0.34540626  0.58985253  1
  O  O214  1  0.77906522  0.85526848  0.08831453  1
  O  O215  1  0.76575522  0.88296755  0.58276671  1
  O  O216  1  0.26671454  0.36952365  0.08522312  1
  O  O217  1  0.26021824  0.38809837  0.57672701  1
  O  O218  1  0.28935211  0.87860050  0.07627539  1
  O  O219  1  0.27960700  0.88018206  0.58414049  1
  O  O220  1  0.60241409  0.38077975  0.08573517  1
  O  O221  1  0.61716855  0.38864507  0.58652369  1
  O  O222  1  0.61563981  0.88408971  0.08781853  1
  O  O223  1  0.60625637  0.89487269  0.58731781  1
  O  O224  1  0.93398675  0.38966579  0.08612030  1
  O  O225  1  0.93400096  0.36884548  0.58365456  1
  O  O226  1  0.94023558  0.88817570  0.08393837  1
  O  O227  1  0.92881431  0.90144664  0.57554614  1
  O  O228  1  0.11494862  0.16455911  0.08232583  1
  O  O229  1  0.10058047  0.12214209  0.58361514  1
  O  O230  1  0.11274648  0.62204751  0.07335840  1
  O  O231  1  0.12926966  0.64403255  0.57897058  1
  O  O232  1  0.45154116  0.13303941  0.08469769  1
  O  O233  1  0.43779815  0.12921872  0.58459225  1
  O  O234  1  0.44023923  0.62579830  0.08539872  1
  O  O235  1  0.44584060  0.63240486  0.58727730  1
  O  O236  1  0.76935333  0.14821119  0.07416032  1
  O  O237  1  0.76976921  0.14112726  0.58660498  1
  O  O238  1  0.76701867  0.62963210  0.08525039  1
  O  O239  1  0.78892040  0.64619181  0.57546374  1
  O  O240  1  0.06441874  0.11669273  0.41339616  1
  O  O241  1  0.04402692  0.11820914  0.92447981  1
  O  O242  1  0.04479470  0.61603015  0.41285134  1
  O  O243  1  0.06217241  0.61732925  0.91414952  1
  O  O244  1  0.39820970  0.11904889  0.41416640  1
  O  O245  1  0.38847914  0.12156284  0.91433294  1
  O  O246  1  0.37865051  0.59374840  0.41827683  1
  O  O247  1  0.39606883  0.60718448  0.91864686  1
  O  O248  1  0.73244557  0.12040575  0.41669204  1
  O  O249  1  0.70589887  0.11183836  0.92110176  1
  O  O250  1  0.71580058  0.60051676  0.43010185  1
  O  O251  1  0.73213487  0.61109263  0.92132785  1
  O  O252  1  0.24229420  0.36466336  0.42450986  1
  O  O253  1  0.22962402  0.37161472  0.91458871  1
  O  O254  1  0.23128669  0.87574858  0.41212157  1
  O  O255  1  0.20365438  0.85171086  0.92314967  1
  O  O256  1  0.56716148  0.36562895  0.42090549  1
  O  O257  1  0.56319609  0.36726644  0.91624637  1
  O  O258  1  0.56523256  0.87938233  0.41462532  1
  O  O259  1  0.55138203  0.87742939  0.92680868  1
  O  O260  1  0.88726178  0.34871017  0.41461302  1
  O  O261  1  0.89688546  0.36906927  0.91443084  1
  O  O262  1  0.89907945  0.87349979  0.41196865  1
  O  O263  1  0.88414503  0.85248442  0.91251874  1
  O  O264  1  0.05285191  0.37519700  0.42410736  1
  O  O265  1  0.06273251  0.38415252  0.91555539  1
  O  O266  1  0.06327493  0.88627917  0.41074466  1
  O  O267  1  0.04450455  0.88209653  0.91483478  1
  O  O268  1  0.40340982  0.37173475  0.41379575  1
  O  O269  1  0.39539320  0.38122354  0.91389316  1
  O  O270  1  0.39535396  0.89319553  0.41275014  1
  O  O271  1  0.38932608  0.90113453  0.92419430  1
  O  O272  1  0.72995296  0.37565011  0.41806131  1
  O  O273  1  0.73033630  0.37842159  0.91542324  1
  O  O274  1  0.73089264  0.88792366  0.41357342  1
  O  O275  1  0.73213912  0.89222637  0.92366288  1
  O  O276  1  0.23145450  0.12815388  0.41236052  1
  O  O277  1  0.22768501  0.14398171  0.91909171  1
  O  O278  1  0.20183601  0.65235561  0.41789553  1
  O  O279  1  0.23035008  0.62205716  0.92084481  1
  O  O280  1  0.56505742  0.13064424  0.41502969  1
  O  O281  1  0.54564438  0.14708846  0.91242416  1
  O  O282  1  0.53531262  0.63525279  0.42343313  1
  O  O283  1  0.56460571  0.61965479  0.91653496  1
  O  O284  1  0.89862468  0.12793229  0.41369029  1
  O  O285  1  0.88326290  0.15885027  0.91732941  1
  O  O286  1  0.88845609  0.65463553  0.41920361  1
  O  O287  1  0.89795211  0.62472998  0.91635466  1
  O  O288  1  0.15911845  0.00244358  0.06952012  1
  O  O289  1  0.18374093  -0.00126971  0.58331733  1
  O  O290  1  0.19218498  0.49613111  0.08217926  1
  O  O291  1  0.17172668  0.50486160  0.58637386  1
  O  O292  1  0.51582921  -0.00187531  0.08444735  1
  O  O293  1  0.50269999  0.00132570  0.58613156  1
  O  O294  1  0.51599931  0.50041177  0.08470002  1
  O  O295  1  0.50499212  0.49729930  0.58425874  1
  O  O296  1  0.82453462  -0.00890437  0.07845385  1
  O  O297  1  0.83196102  0.01160162  0.58602626  1
  O  O298  1  0.82163990  0.49529784  0.08885209  1
  O  O299  1  0.82165006  0.47945249  0.57678450  1
  O  O300  1  -0.00372137  0.25972961  0.08444497  1
  O  O301  1  0.02287534  0.24857123  0.58343966  1
  O  O302  1  -0.01871938  0.75190917  0.08013794  1
  O  O303  1  -0.01505325  0.74896703  0.56758879  1
  O  O304  1  0.35979545  0.25153700  0.07950283  1
  O  O305  1  0.33498156  0.24061313  0.57429501  1
  O  O306  1  0.35562968  0.74711380  0.08635375  1
  O  O307  1  0.35062613  0.74885354  0.59048267  1
  O  O308  1  0.66317031  0.25170708  0.08566324  1
  O  O309  1  0.65918101  0.24871185  0.58636167  1
  O  O310  1  0.67223633  0.74878322  0.08753329  1
  O  O311  1  0.66720474  0.76576067  0.57747499  1
  O  O312  1  0.15832103  0.00145757  0.41141625  1
  O  O313  1  0.15732766  -0.01220973  0.92127108  1
  O  O314  1  0.15907113  0.51322673  0.42452599  1
  O  O315  1  0.15496804  0.49858267  0.91555099  1
  O  O316  1  0.49433351  0.00445525  0.41431629  1
  O  O317  1  0.49384295  0.01038798  0.91549392  1
  O  O318  1  0.49413934  0.49383766  0.41692283  1
  O  O319  1  0.49392793  0.49410743  0.91979252  1
  O  O320  1  0.82604189  0.00176137  0.41440134  1
  O  O321  1  0.84830007  -0.00748641  0.91870704  1
  O  O322  1  0.84338125  0.48457919  0.42379405  1
  O  O323  1  0.82597317  0.49604345  0.91822510  1
  O  O324  1  0.32827241  0.24520344  0.41734895  1
  O  O325  1  0.32728505  0.25423273  0.91361890  1
  O  O326  1  0.33751851  0.76283724  0.42274965  1
  O  O327  1  0.33240930  0.73615396  0.92344309  1
  O  O328  1  0.65856520  0.24753302  0.41777809  1
  O  O329  1  0.65750121  0.25079046  0.91521641  1
  O  O330  1  0.66011977  0.76141730  0.42299213  1
  O  O331  1  0.65769223  0.73762354  0.92919893  1
  O  O332  1  0.99420421  0.24374630  0.41535451  1
  O  O333  1  1.00027404  0.25556446  0.91591955  1
  O  O334  1  0.99995937  0.75637672  0.41041825  1
  O  O335  1  0.98944700  0.74552692  0.91397576  1
  O  O336  1  0.21509237  0.08551561  0.19894701  1
  O  O337  1  0.21157126  0.08913919  0.69235334  1
  O  O338  1  0.20735713  0.58169430  0.19151624  1
  O  O339  1  0.21261322  0.58339355  0.69409414  1
  O  O340  1  0.54996682  0.07916650  0.19335824  1
  O  O341  1  0.54129963  0.08476021  0.69595340  1
  O  O342  1  0.54341607  0.58279497  0.19665158  1
  O  O343  1  0.54966692  0.57582227  0.69331838  1
  O  O344  1  0.87935681  0.08464570  0.19873580  1
  O  O345  1  0.87586806  0.08942921  0.69572122  1
  O  O346  1  0.87396102  0.58290442  0.19387552  1
  O  O347  1  0.87698969  0.57897362  0.70085657  1
  O  O348  1  0.04038796  0.33673850  0.19379309  1
  O  O349  1  0.04292117  0.33154808  0.69395827  1
  O  O350  1  0.04019017  0.83326853  0.19059948  1
  O  O351  1  0.04103814  0.83391411  0.69894401  1
  O  O352  1  0.38111609  0.32862935  0.19219043  1
  O  O353  1  0.37759848  0.33281297  0.70022645  1
  O  O354  1  0.38139740  0.83381205  0.19370100  1
  O  O355  1  0.38408943  0.84202833  0.69629603  1
  O  O356  1  0.71094766  0.33305535  0.19619871  1
  O  O357  1  0.70322736  0.33017391  0.69656975  1
  O  O358  1  0.71057691  0.83273650  0.19736120  1
  O  O359  1  0.71141702  0.83869376  0.69354117  1
  O  O360  1  0.20129476  0.41651878  0.19222417  1
  O  O361  1  0.20760041  0.41663685  0.69308711  1
  O  O362  1  0.21405269  0.91675720  0.19795509  1
  O  O363  1  0.21049903  0.91487750  0.69155832  1
  O  O364  1  0.53737732  0.41701318  0.19453022  1
  O  O365  1  0.54437272  0.41418746  0.69348792  1
  O  O366  1  0.54788556  0.91755741  0.19578492  1
  O  O367  1  0.54091513  0.92191914  0.69710881  1
  O  O368  1  0.87290089  0.41367733  0.19720445  1
  O  O369  1  0.87752064  0.41333604  0.69330257  1
  O  O370  1  0.87547232  0.91664973  0.19305552  1
  O  O371  1  0.87234289  0.92141434  0.69320902  1
  O  O372  1  0.04308714  0.17138820  0.19132175  1
  O  O373  1  0.04120432  0.16811055  0.69330103  1
  O  O374  1  0.04378762  0.66488397  0.20050764  1
  O  O375  1  0.04449396  0.66434414  0.70054192  1
  O  O376  1  0.37531605  0.16801534  0.19000104  1
  O  O377  1  0.37370648  0.16665942  0.69174612  1
  O  O378  1  0.38150649  0.66717719  0.19636181  1
  O  O379  1  0.37493723  0.65946441  0.69560921  1
  O  O380  1  0.71375676  0.16281837  0.19107864  1
  O  O381  1  0.70408777  0.16742001  0.69551123  1
  O  O382  1  0.70944319  0.66811317  0.19622833  1
  O  O383  1  0.71097250  0.66738611  0.70176389  1
  O  O384  1  0.12395381  0.08509099  0.30203623  1
  O  O385  1  0.11860414  0.08577953  0.79829804  1
  O  O386  1  0.12001454  0.58482436  0.30749279  1
  O  O387  1  0.12510141  0.58002250  0.80592361  1
  O  O388  1  0.45809818  0.08312490  0.30355162  1
  O  O389  1  0.45261121  0.08771987  0.80411256  1
  O  O390  1  0.45457787  0.58073256  0.30902573  1
  O  O391  1  0.45506853  0.57215689  0.80842273  1
  O  O392  1  0.79131627  0.08311097  0.30500836  1
  O  O393  1  0.78619823  0.08469134  0.79917045  1
  O  O394  1  0.78935593  0.58264528  0.30182439  1
  O  O395  1  0.79156224  0.57862563  0.80828281  1
  O  O396  1  0.28806327  0.32555085  0.30821163  1
  O  O397  1  0.28821369  0.33529862  0.80426046  1
  O  O398  1  0.29499950  0.83553938  0.30521799  1
  O  O399  1  0.28127903  0.84152322  0.80321068  1
  O  O400  1  0.62285261  0.33057108  0.30788701  1
  O  O401  1  0.62254759  0.33393662  0.80595159  1
  O  O402  1  0.62575240  0.83669956  0.30684600  1
  O  O403  1  0.62528287  0.83499254  0.80158784  1
  O  O404  1  0.95885182  0.33075226  0.30670802  1
  O  O405  1  0.96255543  0.33456334  0.80543067  1
  O  O406  1  0.95812551  0.83724894  0.30161756  1
  O  O407  1  0.95233378  0.83044368  0.80346544  1
  O  O408  1  0.12092265  0.41675107  0.30011600  1
  O  O409  1  0.12505968  0.41557923  0.80450972  1
  O  O410  1  0.12429363  0.91855517  0.30114746  1
  O  O411  1  0.11627147  0.91233665  0.80832733  1
  O  O412  1  0.46909051  0.41329207  0.30755827  1
  O  O413  1  0.45997474  0.41490554  0.80596957  1
  O  O414  1  0.46050361  0.91958338  0.30347166  1
  O  O415  1  0.45563844  0.92250624  0.81049748  1
  O  O416  1  0.79430999  0.41340791  0.30888598  1
  O  O417  1  0.78935854  0.41714221  0.80585605  1
  O  O418  1  0.79357084  0.91865487  0.30389247  1
  O  O419  1  0.79042029  0.91720995  0.80686025  1
  O  O420  1  0.29376722  0.16658575  0.30421170  1
  O  O421  1  0.28939053  0.17043663  0.80455699  1
  O  O422  1  0.28712515  0.66960474  0.29690445  1
  O  O423  1  0.28681551  0.65419012  0.81076206  1
  O  O424  1  0.62873369  0.16388037  0.30583875  1
  O  O425  1  0.61959171  0.16796912  0.80620381  1
  O  O426  1  0.62120797  0.66675696  0.30157507  1
  O  O427  1  0.63581014  0.66404751  0.81225742  1
  O  O428  1  0.96088446  0.16528460  0.30375715  1
  O  O429  1  0.95715195  0.16906797  0.80836404  1
  O  O430  1  0.95290306  0.67078437  0.30489943  1
  O  O431  1  0.95529373  0.66396899  0.80525510  1
  F  F432  1  0.04707790  0.00144060  0.19934537  1
  F  F433  1  0.03451401  0.00059931  0.69753665  1
  F  F434  1  0.04087892  0.50181479  0.20176165  1
  F  F435  1  0.04657643  0.49632564  0.70345997  1
  F  F436  1  0.38323494  0.00042212  0.20023542  1
  F  F437  1  0.37835741  0.00290618  0.70233421  1
  F  F438  1  0.38396972  0.51041414  0.19938386  1
  F  F439  1  0.37951466  0.49685694  0.70194270  1
  F  F440  1  0.71313357  -0.00053476  0.20282494  1
  F  F441  1  0.70783955  0.00033506  0.70206839  1
  F  F442  1  0.71024205  0.50224472  0.20032121  1
  F  F443  1  0.71278315  0.49773768  0.70354549  1
  F  F444  1  0.21418851  0.25321814  0.20190494  1
  F  F445  1  0.21011923  0.25079865  0.70078066  1
  F  F446  1  0.21266080  0.75235164  0.19828536  1
  F  F447  1  0.20105578  0.75008668  0.70070378  1
  F  F448  1  0.54424416  0.25263382  0.19731437  1
  F  F449  1  0.54444130  0.24889569  0.70296407  1
  F  F450  1  0.54611703  0.75230362  0.20303022  1
  F  F451  1  0.54823556  0.76083476  0.69953452  1
  F  F452  1  0.87952249  0.25163624  0.20176526  1
  F  F453  1  0.87935927  0.24611317  0.70296872  1
  F  F454  1  0.87555379  0.75008350  0.20237412  1
  F  F455  1  0.87705854  0.75016564  0.70146681  1
  F  F456  1  0.29382894  0.00136202  0.29810015  1
  F  F457  1  0.28943300  0.00380504  0.79821933  1
  F  F458  1  0.28029178  0.50870356  0.30004792  1
  F  F459  1  0.28753097  0.49564352  0.79673758  1
  F  F460  1  0.62496741  0.00070100  0.29937408  1
  F  F461  1  0.61906959  0.00253411  0.79918820  1
  F  F462  1  0.61936394  0.50184832  0.30088697  1
  F  F463  1  0.62229875  0.49676406  0.79877441  1
  F  F464  1  0.95873502  -0.00091366  0.29603877  1
  F  F465  1  0.95202024  0.00059952  0.79684107  1
  F  F466  1  0.95204086  0.49996649  0.29706912  1
  F  F467  1  0.95753640  0.49571494  0.79996473  1
  F  F468  1  0.12141082  0.24903029  0.29564386  1
  F  F469  1  0.12158296  0.25163520  0.79634804  1
  F  F470  1  0.12186063  0.75588300  0.29489788  1
  F  F471  1  0.12028901  0.74668882  0.80190068  1
  F  F472  1  0.45461500  0.25156232  0.30010220  1
  F  F473  1  0.45396590  0.24941528  0.79831949  1
  F  F474  1  0.45593464  0.75278990  0.29822696  1
  F  F475  1  0.46894981  0.76247549  0.81662109  1
  F  F476  1  0.79788039  0.24499051  0.30164677  1
  F  F477  1  0.78414334  0.24866483  0.80111258  1
  F  F478  1  0.78903845  0.75335483  0.29900681  1
  F  F479  1  0.79075363  0.75147459  0.79791803  1
