# generated using pymatgen
data_K24Na3Li5Mg64Fe17Si79(O5F)48
_symmetry_space_group_name_H-M   'P 1'
_cell_length_a   16.08473782
_cell_length_b   18.57282912
_cell_length_c   20.54395249
_cell_angle_alpha   90.00357438
_cell_angle_beta   100.00420897
_cell_angle_gamma   90.00708601
_symmetry_Int_Tables_number   1
_chemical_formula_structural   K24Na3Li5Mg64Fe17Si79(O5F)48
_chemical_formula_sum   'K24 Na3 Li5 Mg64 Fe17 Si79 O240 F48'
_cell_volume   6043.96413894
_cell_formula_units_Z   1
loop_
 _symmetry_equiv_pos_site_id
 _symmetry_equiv_pos_as_xyz
  1  'x, y, z'
loop_
 _atom_site_type_symbol
 _atom_site_label
 _atom_site_symmetry_multiplicity
 _atom_site_fract_x
 _atom_site_fract_y
 _atom_site_fract_z
 _atom_site_occupancy
  K  K0  1  -0.00945852  -0.00006542  0.00482466  1
  K  K1  1  0.00296636  -0.00019720  0.49386314  1
  K  K2  1  -0.00882523  0.49873129  0.00224927  1
  K  K3  1  -0.01096746  0.49378691  0.49225256  1
  K  K4  1  0.33768719  0.00587469  0.01265354  1
  K  K5  1  0.33154684  0.00083321  0.49076145  1
  K  K6  1  0.33667780  0.49558263  0.00582327  1
  K  K7  1  0.32880270  0.49379511  0.49110154  1
  K  K8  1  0.66538581  -0.00133588  0.00329453  1
  K  K9  1  0.66913829  0.00016082  0.50568204  1
  K  K10  1  0.66895642  0.50286390  0.00998971  1
  K  K11  1  0.66987331  0.49811895  0.49584498  1
  K  K12  1  0.18317000  0.24599100  0.01472927  1
  K  K13  1  0.17364820  0.24510571  0.48877330  1
  K  K14  1  0.17651800  0.75573039  0.00724192  1
  K  K15  1  0.16412842  0.75926722  0.49142078  1
  K  K16  1  0.49509817  0.24822231  0.01742835  1
  K  K17  1  0.49708185  0.24663452  0.48874053  1
  K  K18  1  0.49039151  0.74829409  0.01181396  1
  K  K19  1  0.50581639  0.75832846  0.49526411  1
  K  K20  1  0.83222150  0.24154812  0.00595328  1
  K  K21  1  0.82400616  0.25238057  0.49165546  1
  K  K22  1  0.83614424  0.75343103  0.00283334  1
  K  K23  1  0.82946977  0.75278959  0.49793880  1
  Na  Na24  1  0.83037183  0.00059089  0.74095984  1
  Na  Na25  1  0.66725877  0.92130400  0.73771059  1
  Na  Na26  1  0.49743099  0.17180971  0.24609601  1
  Li  Li27  1  0.16168388  -0.00100239  0.24601856  1
  Li  Li28  1  0.33292395  0.24759779  0.74654620  1
  Li  Li29  1  0.49550050  0.32939455  0.24814604  1
  Li  Li30  1  0.66609876  0.91990433  0.24847402  1
  Li  Li31  1  0.00994879  0.07887394  0.25089471  1
  Mg  Mg32  1  0.66777679  0.75238853  0.74309350  1
  Mg  Mg33  1  0.83270219  0.50077312  0.74925617  1
  Mg  Mg34  1  0.16557387  0.49975514  0.75822564  1
  Mg  Mg35  1  0.00130524  0.24618087  0.25217363  1
  Mg  Mg36  1  0.33431534  0.25080400  0.24923339  1
  Mg  Mg37  1  0.50100341  0.00036149  0.24600573  1
  Mg  Mg38  1  0.66423119  0.24957531  0.25175836  1
  Mg  Mg39  1  0.66753044  0.75398778  0.24902515  1
  Mg  Mg40  1  -0.00025136  0.75151402  0.75244604  1
  Mg  Mg41  1  0.49715828  0.50008855  0.75004490  1
  Mg  Mg42  1  0.00148012  0.75229566  0.25161566  1
  Mg  Mg43  1  0.66569463  0.25130340  0.74749271  1
  Mg  Mg44  1  0.83545672  0.00018291  0.25296179  1
  Mg  Mg45  1  0.50280849  0.00353215  0.74355498  1
  Mg  Mg46  1  0.33590776  0.75037976  0.24753032  1
  Mg  Mg47  1  0.16892005  -0.00017861  0.74996874  1
  Mg  Mg48  1  0.16937375  0.49913160  0.25046463  1
  Mg  Mg49  1  0.50135923  0.49787034  0.24934511  1
  Mg  Mg50  1  0.83384386  0.49959346  0.25234466  1
  Mg  Mg51  1  0.33414242  0.75074415  0.75189806  1
  Mg  Mg52  1  0.00037504  0.24712835  0.75000035  1
  Mg  Mg53  1  0.66409431  0.58545589  0.74770549  1
  Mg  Mg54  1  0.83651402  0.16439892  0.25335178  1
  Mg  Mg55  1  0.66313539  0.41685568  0.74851215  1
  Mg  Mg56  1  0.66614970  0.08058758  0.24979438  1
  Mg  Mg57  1  0.66440485  0.08744732  0.74159784  1
  Mg  Mg58  1  -0.00054401  0.08243583  0.74659939  1
  Mg  Mg59  1  0.00050145  0.41479776  0.25281223  1
  Mg  Mg60  1  0.00394497  0.92076268  0.25210310  1
  Mg  Mg61  1  0.16940510  0.33092872  0.75318811  1
  Mg  Mg62  1  0.83105293  0.33376232  0.74876222  1
  Mg  Mg63  1  -0.00154043  0.91690597  0.74890789  1
  Mg  Mg64  1  0.83493088  0.66621275  0.25205247  1
  Mg  Mg65  1  0.16797141  0.83652198  0.25003117  1
  Mg  Mg66  1  0.00169954  0.58451684  0.75578767  1
  Mg  Mg67  1  0.33507149  0.08700261  0.74748385  1
  Mg  Mg68  1  0.83393279  0.33388967  0.25403170  1
  Mg  Mg69  1  0.66836675  0.58497284  0.24965300  1
  Mg  Mg70  1  0.16769742  0.83408793  0.75125414  1
  Mg  Mg71  1  -0.00052829  0.58419361  0.25071987  1
  Mg  Mg72  1  0.33212463  0.58418704  0.75502492  1
  Mg  Mg73  1  0.00146361  0.41418403  0.75463032  1
  Mg  Mg74  1  0.16697289  0.66565402  0.24817298  1
  Mg  Mg75  1  0.50250632  0.83542521  0.74760578  1
  Mg  Mg76  1  0.49594192  0.16925778  0.74571224  1
  Mg  Mg77  1  0.32923416  0.08118116  0.24902381  1
  Mg  Mg78  1  0.49980619  0.83605746  0.24539566  1
  Mg  Mg79  1  0.16802264  0.33327072  0.24996159  1
  Mg  Mg80  1  0.33750395  0.91685958  0.74883874  1
  Mg  Mg81  1  0.49845902  0.66677768  0.24574845  1
  Mg  Mg82  1  0.33394196  0.41366820  0.24819654  1
  Mg  Mg83  1  0.83061762  0.66623327  0.74834995  1
  Mg  Mg84  1  0.16689121  0.66489996  0.75802163  1
  Mg  Mg85  1  0.16604604  0.16085037  0.25108215  1
  Mg  Mg86  1  0.83059727  0.83559186  0.74378665  1
  Mg  Mg87  1  0.33079496  0.91652917  0.24786235  1
  Mg  Mg88  1  0.33102048  0.41350666  0.75191228  1
  Mg  Mg89  1  0.66716272  0.41381792  0.25352230  1
  Mg  Mg90  1  0.49393398  0.33260682  0.74908374  1
  Mg  Mg91  1  0.83042815  0.16488758  0.74475190  1
  Mg  Mg92  1  0.17104065  0.16568790  0.74806976  1
  Mg  Mg93  1  0.33181603  0.58368542  0.24648414  1
  Mg  Mg94  1  0.83344988  0.83632885  0.25387355  1
  Mg  Mg95  1  0.49946443  0.66622666  0.74975838  1
  Fe  Fe96  1  0.18272582  0.58303410  0.10874367  1
  Fe  Fe97  1  0.18273377  0.41287852  0.10829129  1
  Fe  Fe98  1  0.31242087  0.33561209  0.39042788  1
  Fe  Fe99  1  0.80409565  0.41552890  0.39257169  1
  Fe  Fe100  1  0.35820759  0.83677024  0.10558391  1
  Fe  Fe101  1  0.35755952  0.16677226  0.10720071  1
  Fe  Fe102  1  0.86099563  0.58236770  0.11263632  1
  Fe  Fe103  1  0.69200216  0.17198914  0.60603657  1
  Fe  Fe104  1  0.18114206  0.08675744  0.10759794  1
  Fe  Fe105  1  0.14170639  0.58228532  0.89778473  1
  Fe  Fe106  1  0.18214815  0.91765427  0.10703467  1
  Fe  Fe107  1  0.86278746  0.91786382  0.60489375  1
  Fe  Fe108  1  0.35884034  0.65988111  0.10596496  1
  Fe  Fe109  1  0.35511226  0.17046566  0.60846605  1
  Fe  Fe110  1  0.68940612  0.66249970  0.60680573  1
  Fe  Fe111  1  0.14568155  0.91625971  0.39199782  1
  Fe  Fe112  1  0.51901254  0.91898060  0.60565572  1
  Si  Si113  1  0.30936867  0.32721405  0.88574545  1
  Si  Si114  1  0.14159685  0.91611138  0.88515198  1
  Si  Si115  1  0.68540656  0.34305158  0.61183306  1
  Si  Si116  1  0.69611723  0.83469634  0.11683617  1
  Si  Si117  1  0.80920238  0.08430551  0.38811133  1
  Si  Si118  1  0.02793860  0.33149673  0.61739878  1
  Si  Si119  1  0.64096919  0.83706854  0.38180344  1
  Si  Si120  1  0.97600194  0.33219134  0.39080334  1
  Si  Si121  1  0.01709387  0.32812774  0.11568695  1
  Si  Si122  1  0.63842033  0.32808908  0.38916830  1
  Si  Si123  1  0.35411289  0.66525035  0.61699774  1
  Si  Si124  1  0.85859578  0.08054965  0.11851144  1
  Si  Si125  1  0.03164669  0.83160896  0.61401667  1
  Si  Si126  1  0.02448428  0.67081806  0.11443431  1
  Si  Si127  1  0.13944033  0.41937599  0.39028205  1
  Si  Si128  1  0.86489314  0.09301858  0.60712422  1
  Si  Si129  1  0.53248555  0.08058666  0.11047983  1
  Si  Si130  1  0.51700348  0.58158254  0.61277284  1
  Si  Si131  1  0.18879873  0.42166915  0.61872580  1
  Si  Si132  1  0.97501935  0.66899454  0.38834947  1
  Si  Si133  1  0.14357645  0.40757794  0.89116502  1
  Si  Si134  1  0.47543566  0.91461195  0.38331711  1
  Si  Si135  1  0.53485229  0.41671625  0.11673788  1
  Si  Si136  1  0.03012765  0.66758599  0.61881550  1
  Si  Si137  1  0.36181362  0.34008608  0.10893919  1
  Si  Si138  1  0.69509538  0.32757077  0.11704038  1
  Si  Si139  1  0.19207799  0.58411657  0.61973007  1
  Si  Si140  1  0.03418187  0.16609745  0.61375652  1
  Si  Si141  1  0.01661791  0.16878716  0.11595575  1
  Si  Si142  1  0.86133583  0.41509528  0.61669583  1
  Si  Si143  1  0.19397140  0.07636635  0.61236417  1
  Si  Si144  1  0.97217136  0.32898507  0.88670516  1
  Si  Si145  1  0.80730057  0.41642375  0.88534398  1
  Si  Si146  1  0.64173923  0.82946945  0.88434127  1
  Si  Si147  1  0.31242338  0.83793759  0.88565595  1
  Si  Si148  1  0.80723180  0.58710830  0.38995373  1
  Si  Si149  1  0.97152973  0.16259604  0.88436032  1
  Si  Si150  1  0.69651684  0.16376299  0.11624490  1
  Si  Si151  1  0.64032691  0.16155207  0.38470456  1
  Si  Si152  1  0.53193709  0.91734038  0.11043002  1
  Si  Si153  1  0.64160687  0.67253926  0.38358567  1
  Si  Si154  1  0.80324645  0.58276006  0.88530226  1
  Si  Si155  1  0.14312152  0.08564874  0.38918680  1
  Si  Si156  1  0.97164133  0.83435750  0.39039036  1
  Si  Si157  1  0.86769865  0.58120509  0.61424558  1
  Si  Si158  1  0.48064787  0.58401411  0.38420169  1
  Si  Si159  1  0.63996203  0.16850513  0.88376837  1
  Si  Si160  1  0.51664247  0.41885656  0.61544373  1
  Si  Si161  1  0.97326033  0.83586655  0.88675060  1
  Si  Si162  1  0.14098429  0.08303135  0.88411112  1
  Si  Si163  1  0.47712811  0.08296388  0.88368461  1
  Si  Si164  1  0.80681020  0.91876991  0.38548062  1
  Si  Si165  1  0.31129870  0.16513049  0.38829656  1
  Si  Si166  1  0.53634891  0.58171491  0.11204601  1
  Si  Si167  1  0.14043385  0.58610525  0.38763352  1
  Si  Si168  1  0.85903233  0.91653820  0.11726801  1
  Si  Si169  1  0.63785631  0.66478780  0.88618679  1
  Si  Si170  1  0.30892228  0.16182286  0.88422364  1
  Si  Si171  1  0.47859976  0.91801254  0.88504115  1
  Si  Si172  1  0.97622822  0.16689764  0.38781789  1
  Si  Si173  1  0.19491588  0.91247159  0.61670964  1
  Si  Si174  1  0.47286267  0.07703589  0.38248144  1
  Si  Si175  1  0.69268852  0.83063170  0.60290304  1
  Si  Si176  1  0.85594018  0.41375536  0.11438238  1
  Si  Si177  1  0.35125154  0.33863341  0.61415962  1
  Si  Si178  1  0.01778038  0.83030663  0.11452715  1
  Si  Si179  1  0.47821743  0.42105812  0.38611517  1
  Si  Si180  1  0.47340194  0.58226427  0.88763067  1
  Si  Si181  1  0.31208736  0.66186922  0.38629185  1
  Si  Si182  1  0.69727617  0.67205496  0.11399698  1
  Si  Si183  1  0.35696560  0.82877241  0.61296580  1
  Si  Si184  1  0.52190162  0.08923289  0.60583753  1
  Si  Si185  1  0.47283067  0.41534118  0.88691267  1
  Si  Si186  1  0.96733028  0.66897157  0.88961550  1
  Si  Si187  1  0.80290057  0.08293333  0.88274008  1
  Si  Si188  1  0.31373631  0.82680697  0.38895946  1
  Si  Si189  1  0.80585427  0.91490280  0.88328258  1
  Si  Si190  1  0.31176308  0.67185257  0.89000308  1
  Si  Si191  1  0.64017302  0.33427355  0.88524225  1
  O  O192  1  0.26554027  0.11734640  0.06211768  1
  O  O193  1  0.27227770  0.09874301  0.57799218  1
  O  O194  1  0.27806142  0.59364333  0.07138438  1
  O  O195  1  0.27546231  0.60992430  0.58966590  1
  O  O196  1  0.61642821  0.11442998  0.08291266  1
  O  O197  1  0.60790529  0.10515965  0.57539304  1
  O  O198  1  0.61964472  0.61657027  0.08592957  1
  O  O199  1  0.59558812  0.60071678  0.57734988  1
  O  O200  1  0.93778414  0.11207631  0.08706012  1
  O  O201  1  0.95286775  0.11931383  0.58011983  1
  O  O202  1  0.95809380  0.60940513  0.08071351  1
  O  O203  1  0.95320001  0.61275253  0.58905495  1
  O  O204  1  0.09666754  0.34241533  0.07968823  1
  O  O205  1  0.10458935  0.37346100  0.58897598  1
  O  O206  1  0.09463210  0.84832522  0.07704262  1
  O  O207  1  0.12272556  0.85185498  0.59082709  1
  O  O208  1  0.44680874  0.37783912  0.08409301  1
  O  O209  1  0.43745738  0.36608622  0.58604976  1
  O  O210  1  0.45636879  0.86846469  0.07224541  1
  O  O211  1  0.43383517  0.84779702  0.57595111  1
  O  O212  1  0.77719315  0.35709665  0.08693774  1
  O  O213  1  0.76904931  0.38038686  0.58717862  1
  O  O214  1  0.77840759  0.86441748  0.08612812  1
  O  O215  1  0.77608532  0.85307744  0.57160041  1
  O  O216  1  0.28179189  0.38903533  0.07466519  1
  O  O217  1  0.27380664  0.39867541  0.59027530  1
  O  O218  1  0.27220231  0.89575974  0.06477162  1
  O  O219  1  0.27799216  0.88509481  0.58748503  1
  O  O220  1  0.61139069  0.37513040  0.08589743  1
  O  O221  1  0.60433674  0.39891215  0.58838423  1
  O  O222  1  0.62014844  0.88924328  0.08600538  1
  O  O223  1  0.61908441  0.89004444  0.57782023  1
  O  O224  1  0.93925649  0.38454424  0.08594043  1
  O  O225  1  0.93691968  0.37089483  0.58888107  1
  O  O226  1  0.93855706  0.88630530  0.08560768  1
  O  O227  1  0.96218128  0.88489065  0.57501236  1
  O  O228  1  0.09166067  0.15314167  0.07562588  1
  O  O229  1  0.11431365  0.13134619  0.58540345  1
  O  O230  1  0.11192129  0.66468630  0.08628539  1
  O  O231  1  0.11466219  0.63903955  0.59112669  1
  O  O232  1  0.45328554  0.12770411  0.07566171  1
  O  O233  1  0.45560368  0.15351841  0.57758952  1
  O  O234  1  0.45604430  0.62425417  0.07388966  1
  O  O235  1  0.43610792  0.63625913  0.58711540  1
  O  O236  1  0.77689620  0.13121038  0.08526140  1
  O  O237  1  0.79369076  0.15170465  0.57642157  1
  O  O238  1  0.77599194  0.64967087  0.07894226  1
  O  O239  1  0.78671722  0.62449565  0.57725051  1
  O  O240  1  0.06355171  0.12519876  0.41951168  1
  O  O241  1  0.06171568  0.12212033  0.91215662  1
  O  O242  1  0.06672188  0.63057941  0.41880260  1
  O  O243  1  0.04591680  0.62197983  0.92535281  1
  O  O244  1  0.39654847  0.11483221  0.41447273  1
  O  O245  1  0.39588730  0.11613168  0.91311569  1
  O  O246  1  0.39775767  0.61376002  0.41449671  1
  O  O247  1  0.39768998  0.62316382  0.91632031  1
  O  O248  1  0.73088518  0.12199883  0.41816898  1
  O  O249  1  0.72873884  0.12601082  0.91522043  1
  O  O250  1  0.73072058  0.63286708  0.41591485  1
  O  O251  1  0.72177835  0.61544473  0.91411969  1
  O  O252  1  0.22496692  0.38178602  0.42707719  1
  O  O253  1  0.22781110  0.35687094  0.91623522  1
  O  O254  1  0.24323533  0.86082207  0.42706246  1
  O  O255  1  0.23004391  0.87200026  0.91240013  1
  O  O256  1  0.55888196  0.36832488  0.41492068  1
  O  O257  1  0.56311848  0.37429114  0.91530251  1
  O  O258  1  0.56469830  0.87363856  0.41381692  1
  O  O259  1  0.56457245  0.87102129  0.91402708  1
  O  O260  1  0.90445992  0.36704757  0.42770490  1
  O  O261  1  0.89457164  0.37184375  0.91431908  1
  O  O262  1  0.88932975  0.87014115  0.41735079  1
  O  O263  1  0.89873442  0.87942726  0.91734156  1
  O  O264  1  0.06171825  0.37928065  0.41927859  1
  O  O265  1  0.06195797  0.36775410  0.91635648  1
  O  O266  1  0.05539158  0.87360609  0.42818140  1
  O  O267  1  0.06441622  0.87616350  0.91461213  1
  O  O268  1  0.40305304  0.39703369  0.42449732  1
  O  O269  1  0.39579153  0.37465771  0.91566402  1
  O  O270  1  0.40401982  0.86940017  0.41478291  1
  O  O271  1  0.39691574  0.88581054  0.91442960  1
  O  O272  1  0.72235888  0.36654740  0.43057496  1
  O  O273  1  0.72844810  0.37847939  0.91457049  1
  O  O274  1  0.72637546  0.88243906  0.41310662  1
  O  O275  1  0.73049599  0.87227532  0.91504673  1
  O  O276  1  0.23039329  0.13179532  0.41873930  1
  O  O277  1  0.22872848  0.12647359  0.91380344  1
  O  O278  1  0.23278385  0.62434214  0.41705766  1
  O  O279  1  0.23494426  0.64375903  0.92308478  1
  O  O280  1  0.56328559  0.11860233  0.41145090  1
  O  O281  1  0.56245084  0.13020632  0.91423918  1
  O  O282  1  0.56235342  0.63619994  0.41320805  1
  O  O283  1  0.56152819  0.62489168  0.91707071  1
  O  O284  1  0.89683814  0.12866314  0.41783728  1
  O  O285  1  0.89548018  0.12057344  0.91402519  1
  O  O286  1  0.89879401  0.62774993  0.41766369  1
  O  O287  1  0.88235283  0.63488701  0.91477683  1
  O  O288  1  0.13855199  0.00171328  0.06786496  1
  O  O289  1  0.16461266  -0.00726866  0.58882818  1
  O  O290  1  0.13317989  0.49800089  0.07535584  1
  O  O291  1  0.16515838  0.50363144  0.59056266  1
  O  O292  1  0.52241289  -0.00091591  0.07786318  1
  O  O293  1  0.48234115  0.01175588  0.57765554  1
  O  O294  1  0.53426618  0.49794219  0.08391987  1
  O  O295  1  0.48445937  0.49950791  0.58936280  1
  O  O296  1  0.83805199  -0.00142874  0.08742370  1
  O  O297  1  0.84114376  0.01384761  0.57609724  1
  O  O298  1  0.82738552  0.48977194  0.07869791  1
  O  O299  1  0.86324920  0.49678683  0.58772015  1
  O  O300  1  -0.02511695  0.24885257  0.09261629  1
  O  O301  1  0.02313469  0.25012284  0.58690953  1
  O  O302  1  -0.02088390  0.74972332  0.09184188  1
  O  O303  1  0.00992451  0.74778156  0.58767766  1
  O  O304  1  0.35451067  0.26186470  0.07255229  1
  O  O305  1  0.31736499  0.26432007  0.57987782  1
  O  O306  1  0.33834923  0.74777605  0.06435408  1
  O  O307  1  0.32417591  0.74548901  0.58937166  1
  O  O308  1  0.67960024  0.24585878  0.08573565  1
  O  O309  1  0.66283351  0.26784755  0.57521024  1
  O  O310  1  0.66945385  0.75407398  0.08640785  1
  O  O311  1  0.65984936  0.75213274  0.57015401  1
  O  O312  1  0.15593024  0.00923529  0.42800104  1
  O  O313  1  0.15029086  -0.00034153  0.91191873  1
  O  O314  1  0.14082014  0.50440935  0.41836337  1
  O  O315  1  0.16077990  0.48551920  0.92432443  1
  O  O316  1  0.48274500  -0.00442104  0.41576118  1
  O  O317  1  0.49479939  0.00070658  0.91376181  1
  O  O318  1  0.50603946  0.50415948  0.41516413  1
  O  O319  1  0.48141125  0.49866704  0.91595018  1
  O  O320  1  0.82006270  0.00104276  0.41650072  1
  O  O321  1  0.80607442  -0.00061413  0.91123966  1
  O  O322  1  0.81334984  0.51046379  0.42735719  1
  O  O323  1  0.81811977  0.49946654  0.91433355  1
  O  O324  1  0.33071008  0.24223646  0.42515907  1
  O  O325  1  0.32615439  0.24445250  0.91305991  1
  O  O326  1  0.32932506  0.74251217  0.41840178  1
  O  O327  1  0.33369574  0.75597546  0.91306687  1
  O  O328  1  0.64053157  0.24328332  0.41579573  1
  O  O329  1  0.65134311  0.25174560  0.91460302  1
  O  O330  1  0.65238674  0.75474600  0.41275129  1
  O  O331  1  0.65092056  0.74677175  0.91687381  1
  O  O332  1  0.98985974  0.24894589  0.41924672  1
  O  O333  1  0.97334304  0.24564176  0.91412914  1
  O  O334  1  0.97732805  0.75007278  0.41931023  1
  O  O335  1  0.97447515  0.75338299  0.91646441  1
  O  O336  1  0.20870293  0.08266761  0.19842070  1
  O  O337  1  0.21051398  0.08038307  0.69361766  1
  O  O338  1  0.20936277  0.58274971  0.20191275  1
  O  O339  1  0.21125136  0.58327192  0.70019897  1
  O  O340  1  0.55048931  0.07668859  0.18994149  1
  O  O341  1  0.53984936  0.08989101  0.68867099  1
  O  O342  1  0.54802913  0.58344600  0.19306233  1
  O  O343  1  0.53837653  0.58290154  0.69444124  1
  O  O344  1  0.87167934  0.08255277  0.19756929  1
  O  O345  1  0.88529109  0.09538474  0.68813975  1
  O  O346  1  0.87774778  0.58307838  0.20458194  1
  O  O347  1  0.87991461  0.58180610  0.69570639  1
  O  O348  1  0.03897857  0.33333972  0.19694121  1
  O  O349  1  0.04410531  0.33282858  0.69803661  1
  O  O350  1  0.03869097  0.83295447  0.19533279  1
  O  O351  1  0.04708236  0.83140492  0.69540937  1
  O  O352  1  0.37396678  0.33642679  0.18900912  1
  O  O353  1  0.37479385  0.33982355  0.69460083  1
  O  O354  1  0.37880984  0.83284629  0.19863159  1
  O  O355  1  0.37503562  0.82997959  0.69442812  1
  O  O356  1  0.71329775  0.33074753  0.19683375  1
  O  O357  1  0.70729798  0.33896377  0.69340452  1
  O  O358  1  0.71569184  0.83154616  0.19630200  1
  O  O359  1  0.71448045  0.82315108  0.68414048  1
  O  O360  1  0.20807760  0.41719331  0.20044541  1
  O  O361  1  0.20625115  0.41881588  0.69938081  1
  O  O362  1  0.21303552  0.91170839  0.19736076  1
  O  O363  1  0.21330360  0.91452417  0.69751348  1
  O  O364  1  0.55158098  0.42064971  0.19612961  1
  O  O365  1  0.53852620  0.41770284  0.69656938  1
  O  O366  1  0.54143890  0.91696585  0.19026353  1
  O  O367  1  0.53065885  0.91700642  0.69627017  1
  O  O368  1  0.87637494  0.41575909  0.19535461  1
  O  O369  1  0.87813524  0.41577334  0.69755189  1
  O  O370  1  0.87617600  0.91563134  0.19718835  1
  O  O371  1  0.88599823  0.90797581  0.69525720  1
  O  O372  1  0.04134141  0.16788237  0.19578943  1
  O  O373  1  0.04773505  0.16693340  0.69466323  1
  O  O374  1  0.04058994  0.66705649  0.19648643  1
  O  O375  1  0.04506841  0.66721846  0.69939250  1
  O  O376  1  0.36389370  0.16578196  0.19657954  1
  O  O377  1  0.37712518  0.16760721  0.69963137  1
  O  O378  1  0.37870467  0.66568975  0.19914357  1
  O  O379  1  0.37459642  0.66454594  0.69790151  1
  O  O380  1  0.71344939  0.16549613  0.19615504  1
  O  O381  1  0.71156907  0.17452263  0.69840177  1
  O  O382  1  0.71341355  0.66917114  0.19519825  1
  O  O383  1  0.71005412  0.66345408  0.69948409  1
  O  O384  1  0.12355259  0.08624394  0.31017403  1
  O  O385  1  0.12440036  0.08393285  0.80348672  1
  O  O386  1  0.12125875  0.58557895  0.30783308  1
  O  O387  1  0.12157154  0.58247303  0.80451250  1
  O  O388  1  0.45406067  0.07507186  0.30354324  1
  O  O389  1  0.45851777  0.08358280  0.80378324  1
  O  O390  1  0.46168665  0.58416005  0.30416746  1
  O  O391  1  0.45660458  0.58245726  0.80688634  1
  O  O392  1  0.79168514  0.08389846  0.30808704  1
  O  O393  1  0.78541956  0.09072371  0.80409910  1
  O  O394  1  0.78929196  0.58517799  0.30927997  1
  O  O395  1  0.78804290  0.58057504  0.80496078  1
  O  O396  1  0.28828792  0.33392238  0.29980668  1
  O  O397  1  0.28950870  0.33430773  0.80619136  1
  O  O398  1  0.29220718  0.82772500  0.30885448  1
  O  O399  1  0.29287180  0.83546167  0.80490678  1
  O  O400  1  0.63254077  0.33202840  0.30988266  1
  O  O401  1  0.62251234  0.33651522  0.80497598  1
  O  O402  1  0.62205021  0.83298609  0.30243267  1
  O  O403  1  0.62123722  0.82416436  0.80516928  1
  O  O404  1  0.95674892  0.33349282  0.30981221  1
  O  O405  1  0.95509516  0.33160170  0.80605214  1
  O  O406  1  0.95611939  0.83283784  0.30966213  1
  O  O407  1  0.95868515  0.83301097  0.80663167  1
  O  O408  1  0.12181696  0.41817587  0.30971122  1
  O  O409  1  0.12327240  0.41147108  0.80955736  1
  O  O410  1  0.12073745  0.91174692  0.30245283  1
  O  O411  1  0.12460846  0.91560495  0.80448165  1
  O  O412  1  0.45645159  0.42311103  0.30636239  1
  O  O413  1  0.45571907  0.41708137  0.80656773  1
  O  O414  1  0.45923235  0.91538283  0.30350549  1
  O  O415  1  0.45742912  0.91603671  0.80516276  1
  O  O416  1  0.78920641  0.41724978  0.30113069  1
  O  O417  1  0.78860354  0.41690682  0.80480829  1
  O  O418  1  0.79292469  0.91806031  0.30616462  1
  O  O419  1  0.79247959  0.90853983  0.80536810  1
  O  O420  1  0.28982166  0.16674098  0.30831894  1
  O  O421  1  0.28729943  0.16149268  0.80477648  1
  O  O422  1  0.29142472  0.66488651  0.30675871  1
  O  O423  1  0.29284452  0.66767498  0.80860295  1
  O  O424  1  0.63330532  0.16409370  0.30585111  1
  O  O425  1  0.62119242  0.17144367  0.80401058  1
  O  O426  1  0.62499453  0.66846662  0.30327229  1
  O  O427  1  0.61903361  0.66351933  0.80601543  1
  O  O428  1  0.95452400  0.16978170  0.30854762  1
  O  O429  1  0.95507417  0.16582872  0.80388728  1
  O  O430  1  0.95868804  0.66816013  0.30835331  1
  O  O431  1  0.95381546  0.66665151  0.80827188  1
  F  F432  1  0.03582687  -0.00142311  0.19887437  1
  F  F433  1  0.04971221  -0.00050091  0.70083022  1
  F  F434  1  0.04380043  0.49924444  0.20723822  1
  F  F435  1  0.04434370  0.49700850  0.70614570  1
  F  F436  1  0.37962798  -0.00178400  0.19845377  1
  F  F437  1  0.37693419  0.00061539  0.70271843  1
  F  F438  1  0.38128863  0.50047654  0.20191237  1
  F  F439  1  0.37505643  0.50110227  0.70574155  1
  F  F440  1  0.71772109  0.00337606  0.20185129  1
  F  F441  1  0.70326662  0.01635985  0.68611481  1
  F  F442  1  0.71253394  0.50202314  0.20257477  1
  F  F443  1  0.71099159  0.49944037  0.70217512  1
  F  F444  1  0.20750177  0.24790549  0.20332024  1
  F  F445  1  0.20507503  0.25145985  0.70134798  1
  F  F446  1  0.21254606  0.74957652  0.20513123  1
  F  F447  1  0.21210774  0.74714403  0.70672006  1
  F  F448  1  0.55608091  0.25862135  0.19426449  1
  F  F449  1  0.54522585  0.25574841  0.70137726  1
  F  F450  1  0.54784375  0.74951611  0.19938961  1
  F  F451  1  0.54289143  0.74667396  0.70093575  1
  F  F452  1  0.87779343  0.25035002  0.20591534  1
  F  F453  1  0.88046790  0.25399646  0.70239846  1
  F  F454  1  0.87848362  0.75137666  0.20720818  1
  F  F455  1  0.88240518  0.74562060  0.70292820  1
  F  F456  1  0.29953732  -0.00327750  0.30231681  1
  F  F457  1  0.28981618  -0.00041896  0.79833251  1
  F  F458  1  0.29177186  0.50137428  0.30117641  1
  F  F459  1  0.28932762  0.49893825  0.80275703  1
  F  F460  1  0.62001589  0.00182717  0.29889975  1
  F  F461  1  0.61770759  0.01400163  0.79781213  1
  F  F462  1  0.62396311  0.50261694  0.29956271  1
  F  F463  1  0.61964642  0.50056580  0.79782340  1
  F  F464  1  0.95114780  -0.00546675  0.30437911  1
  F  F465  1  0.96837676  0.00226347  0.80064642  1
  F  F466  1  0.95594754  0.49843148  0.30313987  1
  F  F467  1  0.95245573  0.49810933  0.80093761  1
  F  F468  1  0.12028428  0.25148516  0.30022384  1
  F  F469  1  0.12033127  0.24763016  0.79996986  1
  F  F470  1  0.12162964  0.74807001  0.29935460  1
  F  F471  1  0.12214389  0.75171960  0.80172581  1
  F  F472  1  0.44892155  0.26033621  0.30239530  1
  F  F473  1  0.46253543  0.25280910  0.80181700  1
  F  F474  1  0.46080395  0.74959485  0.29877543  1
  F  F475  1  0.45508827  0.74928826  0.79818557  1
  F  F476  1  0.78909036  0.24890143  0.30072829  1
  F  F477  1  0.78822428  0.25593062  0.79978299  1
  F  F478  1  0.78812044  0.74980694  0.30154358  1
  F  F479  1  0.78794929  0.74982980  0.79672572  1
