# generated using pymatgen
data_K24Na3Li5Mg64Fe17Si79(O5F)48
_symmetry_space_group_name_H-M   'P 1'
_cell_length_a   16.09470387
_cell_length_b   18.58136792
_cell_length_c   20.54656435
_cell_angle_alpha   90.00033630
_cell_angle_beta   100.01151042
_cell_angle_gamma   90.01579707
_symmetry_Int_Tables_number   1
_chemical_formula_structural   K24Na3Li5Mg64Fe17Si79(O5F)48
_chemical_formula_sum   'K24 Na3 Li5 Mg64 Fe17 Si79 O240 F48'
_cell_volume   6051.12235002
_cell_formula_units_Z   1
loop_
 _symmetry_equiv_pos_site_id
 _symmetry_equiv_pos_as_xyz
  1  'x, y, z'
loop_
 _atom_site_type_symbol
 _atom_site_label
 _atom_site_symmetry_multiplicity
 _atom_site_fract_x
 _atom_site_fract_y
 _atom_site_fract_z
 _atom_site_occupancy
  K  K0  1  0.00187929  -0.00189098  -0.00403573  1
  K  K1  1  -0.00460078  0.00171992  0.49843018  1
  K  K2  1  -0.00525836  0.50154088  0.01099977  1
  K  K3  1  -0.00530294  0.50807091  0.48957035  1
  K  K4  1  0.33767574  -0.01016626  0.00389243  1
  K  K5  1  0.33363767  0.00223177  0.49573138  1
  K  K6  1  0.33344558  0.49959479  0.00541252  1
  K  K7  1  0.33415999  0.49574945  0.49093836  1
  K  K8  1  0.67471089  0.00220721  0.00456753  1
  K  K9  1  0.67291532  -0.00631588  0.50019379  1
  K  K10  1  0.67665832  0.50184904  0.00529693  1
  K  K11  1  0.66199958  0.50628998  0.48970502  1
  K  K12  1  0.16875957  0.25261560  0.00587146  1
  K  K13  1  0.16392536  0.24933277  0.49891827  1
  K  K14  1  0.16571547  0.75964482  0.00406191  1
  K  K15  1  0.15224622  0.74882476  0.49646054  1
  K  K16  1  0.50729732  0.24356407  0.00449589  1
  K  K17  1  0.49968185  0.25035289  0.49641518  1
  K  K18  1  0.50722286  0.75087184  0.00899333  1
  K  K19  1  0.51868529  0.75829923  0.49214495  1
  K  K20  1  0.83019413  0.25026130  0.00411633  1
  K  K21  1  0.83538768  0.25061079  0.49596154  1
  K  K22  1  0.83307079  0.74304627  0.00458124  1
  K  K23  1  0.82532606  0.75392079  0.49382782  1
  Na  Na24  1  0.33032730  0.24850060  0.74797857  1
  Na  Na25  1  0.16963810  0.17142836  0.74800868  1
  Na  Na26  1  0.82916548  0.83100265  0.24637662  1
  Li  Li27  1  0.50244736  -0.00169248  0.24540211  1
  Li  Li28  1  0.84324277  0.49813605  0.25243696  1
  Li  Li29  1  -0.00068117  0.41991297  0.25057979  1
  Li  Li30  1  -0.00292985  0.91596142  0.75133087  1
  Li  Li31  1  0.15682112  0.34055557  0.24731142  1
  Mg  Mg32  1  0.33125642  0.74922657  0.75175652  1
  Mg  Mg33  1  0.66879602  0.75003116  0.75031407  1
  Mg  Mg34  1  -0.00044741  0.75139129  0.74680206  1
  Mg  Mg35  1  0.50021064  -0.00072244  0.74745592  1
  Mg  Mg36  1  0.16486775  0.00188391  0.75031456  1
  Mg  Mg37  1  0.66697248  0.24676185  0.74905486  1
  Mg  Mg38  1  0.83214564  0.00037832  0.24827734  1
  Mg  Mg39  1  -0.00245016  0.74885742  0.24524930  1
  Mg  Mg40  1  0.32949063  0.25367320  0.25188018  1
  Mg  Mg41  1  0.49910631  0.49851916  0.25730552  1
  Mg  Mg42  1  0.16254395  0.49752999  0.24642496  1
  Mg  Mg43  1  0.49951895  0.50058912  0.75571118  1
  Mg  Mg44  1  0.00203435  0.24934572  0.75104886  1
  Mg  Mg45  1  0.00193432  0.25440881  0.25246700  1
  Mg  Mg46  1  0.83646065  -0.00135273  0.74954895  1
  Mg  Mg47  1  0.83245063  0.49999786  0.75049428  1
  Mg  Mg48  1  0.66388567  0.74998332  0.24915460  1
  Mg  Mg49  1  0.16809515  0.00122339  0.25139070  1
  Mg  Mg50  1  0.66838842  0.24960833  0.25029170  1
  Mg  Mg51  1  0.33501079  0.75134505  0.24836430  1
  Mg  Mg52  1  0.16670007  0.50078162  0.74711514  1
  Mg  Mg53  1  0.33330768  0.08316707  0.75039930  1
  Mg  Mg54  1  0.16181621  0.83656554  0.74900774  1
  Mg  Mg55  1  0.83071683  0.66211584  0.24723580  1
  Mg  Mg56  1  0.33193638  0.91543492  0.74937830  1
  Mg  Mg57  1  0.32956038  0.41513732  0.25378030  1
  Mg  Mg58  1  0.50102284  0.66505900  0.75615546  1
  Mg  Mg59  1  0.67016384  0.91445301  0.74947408  1
  Mg  Mg60  1  0.49970327  0.33192344  0.75292790  1
  Mg  Mg61  1  0.83423402  0.16787316  0.25015075  1
  Mg  Mg62  1  0.16555478  0.17037765  0.25287877  1
  Mg  Mg63  1  0.33484534  0.08484887  0.25093008  1
  Mg  Mg64  1  0.67002086  0.41688061  0.25296313  1
  Mg  Mg65  1  0.33765717  0.91815057  0.24789501  1
  Mg  Mg66  1  0.83268339  0.33279039  0.75015351  1
  Mg  Mg67  1  -0.00265593  0.58112402  0.24621712  1
  Mg  Mg68  1  0.16636576  0.83472371  0.24653909  1
  Mg  Mg69  1  0.67050992  0.08309356  0.74836354  1
  Mg  Mg70  1  0.49953962  0.33448364  0.25385760  1
  Mg  Mg71  1  0.16362835  0.66654615  0.74732150  1
  Mg  Mg72  1  0.66696851  0.41478807  0.75235895  1
  Mg  Mg73  1  -0.00083828  0.58516292  0.74711893  1
  Mg  Mg74  1  0.33417264  0.58430413  0.75213618  1
  Mg  Mg75  1  0.66867339  0.58233566  0.25244569  1
  Mg  Mg76  1  0.50056039  0.83740553  0.25022563  1
  Mg  Mg77  1  0.00201799  0.08300466  0.74938437  1
  Mg  Mg78  1  0.33464606  0.41521110  0.75241898  1
  Mg  Mg79  1  -0.00056556  0.08585459  0.25168390  1
  Mg  Mg80  1  0.50042254  0.83338499  0.74927772  1
  Mg  Mg81  1  0.16788749  0.33381548  0.74850282  1
  Mg  Mg82  1  0.33130493  0.58313560  0.25068564  1
  Mg  Mg83  1  0.83415904  0.66387786  0.75048932  1
  Mg  Mg84  1  0.66282406  0.91613623  0.24890953  1
  Mg  Mg85  1  0.49995987  0.16470194  0.75006129  1
  Mg  Mg86  1  0.66371259  0.08317721  0.24675784  1
  Mg  Mg87  1  -0.00219359  0.91639278  0.24785887  1
  Mg  Mg88  1  0.83301112  0.16369691  0.74871238  1
  Mg  Mg89  1  0.16399094  0.66612530  0.24569950  1
  Mg  Mg90  1  0.66853169  0.58422006  0.75440848  1
  Mg  Mg91  1  0.83807950  0.33689990  0.25203636  1
  Mg  Mg92  1  0.49958499  0.16504519  0.24847725  1
  Mg  Mg93  1  0.50052751  0.66561112  0.25339656  1
  Mg  Mg94  1  0.00049449  0.41591560  0.74881442  1
  Mg  Mg95  1  0.83654475  0.83458643  0.74846537  1
  Fe  Fe96  1  0.69207451  0.16873192  0.10954740  1
  Fe  Fe97  1  0.80773014  0.58214717  0.89179162  1
  Fe  Fe98  1  0.64396795  0.66875187  0.39132018  1
  Fe  Fe99  1  0.35798114  0.82963022  0.10872788  1
  Fe  Fe100  1  0.97961540  0.17159144  0.39138757  1
  Fe  Fe101  1  0.69408608  0.83287698  0.60936557  1
  Fe  Fe102  1  0.64293478  0.84333004  0.39245704  1
  Fe  Fe103  1  0.18655795  0.41414879  0.11058204  1
  Fe  Fe104  1  0.52719832  0.91776098  0.10626845  1
  Fe  Fe105  1  0.69528710  0.82995618  0.10495022  1
  Fe  Fe106  1  0.81517593  0.08181188  0.89022424  1
  Fe  Fe107  1  0.97812039  0.82874250  0.88683999  1
  Fe  Fe108  1  0.68814134  0.16600216  0.60670496  1
  Fe  Fe109  1  0.02375724  0.66841086  0.60608169  1
  Fe  Fe110  1  0.02390735  0.67227230  0.10735928  1
  Fe  Fe111  1  0.47366014  0.41047680  0.39501106  1
  Fe  Fe112  1  0.47088985  0.58483111  0.89455307  1
  Si  Si113  1  0.29963555  0.33189913  0.39095969  1
  Si  Si114  1  0.35672686  0.83072461  0.61438091  1
  Si  Si115  1  0.64079642  0.83762739  0.88435837  1
  Si  Si116  1  0.51923185  0.08688610  0.10973833  1
  Si  Si117  1  0.68974121  0.33887721  0.11415628  1
  Si  Si118  1  0.47109870  0.08139326  0.88569854  1
  Si  Si119  1  0.19655357  0.08315541  0.61397847  1
  Si  Si120  1  0.19446616  0.41475186  0.61404643  1
  Si  Si121  1  0.81059285  0.40935760  0.88828510  1
  Si  Si122  1  0.02816790  0.83827566  0.60966654  1
  Si  Si123  1  0.14473796  0.07713904  0.38940719  1
  Si  Si124  1  0.80997875  0.91188432  0.88817467  1
  Si  Si125  1  0.63862902  0.67293154  0.89031358  1
  Si  Si126  1  0.01936213  0.32638686  0.11288475  1
  Si  Si127  1  0.52411000  0.58261425  0.61871222  1
  Si  Si128  1  0.30426231  0.16736448  0.38746696  1
  Si  Si129  1  0.86391408  0.08684363  0.60992612  1
  Si  Si130  1  0.13796665  0.57974503  0.88264807  1
  Si  Si131  1  0.64139032  0.32750149  0.88553274  1
  Si  Si132  1  0.30743767  0.33188611  0.88630946  1
  Si  Si133  1  0.46970903  0.58475022  0.39234852  1
  Si  Si134  1  0.35754988  0.65971503  0.11508887  1
  Si  Si135  1  0.19777130  0.58093665  0.61088100  1
  Si  Si136  1  0.86454229  0.92171987  0.11236468  1
  Si  Si137  1  0.97980722  0.66260914  0.88644798  1
  Si  Si138  1  0.02890497  0.16683722  0.61493684  1
  Si  Si139  1  0.85609202  0.57768220  0.61092099  1
  Si  Si140  1  0.19275021  0.08798318  0.11735712  1
  Si  Si141  1  0.52306392  0.41940377  0.61813508  1
  Si  Si142  1  0.68623534  0.33699190  0.61343636  1
  Si  Si143  1  0.30550181  0.83399781  0.88416813  1
  Si  Si144  1  0.36005885  0.33446587  0.11440575  1
  Si  Si145  1  0.85979071  0.41343838  0.11723538  1
  Si  Si146  1  0.14078931  0.91151910  0.38492674  1
  Si  Si147  1  0.30672946  0.83413370  0.38484447  1
  Si  Si148  1  0.35715014  0.17032862  0.11607937  1
  Si  Si149  1  0.51973087  0.07911245  0.61102180  1
  Si  Si150  1  0.02601761  0.84270182  0.11130280  1
  Si  Si151  1  0.19327448  0.92318706  0.11363678  1
  Si  Si152  1  0.36098416  0.16565890  0.61390027  1
  Si  Si153  1  0.30456446  0.66949801  0.38432331  1
  Si  Si154  1  0.51968470  0.91555448  0.61245000  1
  Si  Si155  1  0.36107309  0.66647446  0.61608526  1
  Si  Si156  1  0.81372546  0.92418891  0.38558154  1
  Si  Si157  1  0.85733915  0.41209529  0.61420238  1
  Si  Si158  1  0.52537147  0.41581330  0.11918937  1
  Si  Si159  1  0.81102291  0.41351958  0.38649898  1
  Si  Si160  1  0.97512529  0.83198463  0.38257712  1
  Si  Si161  1  0.02650954  0.16402977  0.11600252  1
  Si  Si162  1  0.46709234  0.92414417  0.38823435  1
  Si  Si163  1  0.68857385  0.65688832  0.11166240  1
  Si  Si164  1  0.85817368  0.57865404  0.11284484  1
  Si  Si165  1  0.80998259  0.57947345  0.38643830  1
  Si  Si166  1  0.97996528  0.33405778  0.88418053  1
  Si  Si167  1  0.97245052  0.66592729  0.38301578  1
  Si  Si168  1  0.14427651  0.92126324  0.88663503  1
  Si  Si169  1  0.86275960  0.08389948  0.11267089  1
  Si  Si170  1  0.19184233  0.58352276  0.11151387  1
  Si  Si171  1  0.64801192  0.32780048  0.38988025  1
  Si  Si172  1  0.86320554  0.92079401  0.61172329  1
  Si  Si173  1  0.02667543  0.33284126  0.61381653  1
  Si  Si174  1  0.68889018  0.65962907  0.61407972  1
  Si  Si175  1  0.64184899  0.16161841  0.38485708  1
  Si  Si176  1  0.13878536  0.42415949  0.38401140  1
  Si  Si177  1  0.14070845  0.58741746  0.38367437  1
  Si  Si178  1  0.98183050  0.17010299  0.88769553  1
  Si  Si179  1  0.36182601  0.33346907  0.61629536  1
  Si  Si180  1  0.47704521  0.41251808  0.89090692  1
  Si  Si181  1  0.14468956  0.41695613  0.88389168  1
  Si  Si182  1  0.19463329  0.91917966  0.61252085  1
  Si  Si183  1  0.80956520  0.08615310  0.38603920  1
  Si  Si184  1  0.63798517  0.16147546  0.88612877  1
  Si  Si185  1  0.47047943  0.09038993  0.38546243  1
  Si  Si186  1  0.98022888  0.33866279  0.38947592  1
  Si  Si187  1  0.52253942  0.57844364  0.11887385  1
  Si  Si188  1  0.47289117  0.91528942  0.88380613  1
  Si  Si189  1  0.14463763  0.08434852  0.88624784  1
  Si  Si190  1  0.30950708  0.16445159  0.88680315  1
  Si  Si191  1  0.29732743  0.66741760  0.88701637  1
  O  O192  1  0.27366107  0.12031284  0.08735642  1
  O  O193  1  0.27228218  0.12374792  0.58246973  1
  O  O194  1  0.28536985  0.59831577  0.08953165  1
  O  O195  1  0.28346636  0.61252541  0.58553808  1
  O  O196  1  0.59590265  0.11534012  0.07340644  1
  O  O197  1  0.59733667  0.10241859  0.57551761  1
  O  O198  1  0.60432980  0.60444115  0.08748619  1
  O  O199  1  0.60645397  0.60651684  0.58793781  1
  O  O200  1  0.95309262  0.10501931  0.08807305  1
  O  O201  1  0.94785185  0.11830532  0.58126728  1
  O  O202  1  0.92866846  0.61519189  0.07536930  1
  O  O203  1  0.92873666  0.61065732  0.57450233  1
  O  O204  1  0.09432670  0.35384094  0.07498000  1
  O  O205  1  0.10468374  0.37311985  0.58503577  1
  O  O206  1  0.11032750  0.87382301  0.08507603  1
  O  O207  1  0.10936242  0.87563785  0.58061498  1
  O  O208  1  0.44938266  0.35900920  0.08970315  1
  O  O209  1  0.44176252  0.36858679  0.58611715  1
  O  O210  1  0.44138991  0.85759426  0.06405494  1
  O  O211  1  0.43721980  0.86269823  0.58506706  1
  O  O212  1  0.76994762  0.37340838  0.08480870  1
  O  O213  1  0.77149672  0.36611908  0.58608868  1
  O  O214  1  0.79731357  0.86250601  0.07926593  1
  O  O215  1  0.78605185  0.87100148  0.57533742  1
  O  O216  1  0.28541826  0.38506944  0.07690702  1
  O  O217  1  0.27251534  0.37487682  0.58522446  1
  O  O218  1  0.26876772  0.89549434  0.07840852  1
  O  O219  1  0.27385513  0.88006532  0.58438529  1
  O  O220  1  0.60911873  0.39387160  0.08830592  1
  O  O221  1  0.60821725  0.39539967  0.58970833  1
  O  O222  1  0.61533234  0.89364438  0.06279752  1
  O  O223  1  0.59731029  0.89040294  0.57847279  1
  O  O224  1  0.93224931  0.37225151  0.08281915  1
  O  O225  1  0.93691052  0.37463791  0.58505108  1
  O  O226  1  0.95515533  0.90522819  0.08727848  1
  O  O227  1  0.95014446  0.89450523  0.58560907  1
  O  O228  1  0.11209551  0.13954288  0.08699685  1
  O  O229  1  0.11098841  0.13095732  0.58827884  1
  O  O230  1  0.12590615  0.64607638  0.08004102  1
  O  O231  1  0.11795516  0.62649396  0.57447282  1
  O  O232  1  0.43774591  0.14309818  0.08475833  1
  O  O233  1  0.43722436  0.13061114  0.58056893  1
  O  O234  1  0.44325258  0.63074808  0.08834041  1
  O  O235  1  0.44534000  0.63682717  0.58955362  1
  O  O236  1  0.79073717  0.13915189  0.07817665  1
  O  O237  1  0.78578546  0.13646713  0.57521439  1
  O  O238  1  0.76499755  0.61437478  0.08323090  1
  O  O239  1  0.76623488  0.61918714  0.58560602  1
  O  O240  1  0.07367717  0.11180592  0.42631786  1
  O  O241  1  0.06606712  0.12072647  0.91668792  1
  O  O242  1  0.06188920  0.62437200  0.41364960  1
  O  O243  1  0.05071180  0.59698630  0.90911905  1
  O  O244  1  0.39927446  0.13687125  0.41781514  1
  O  O245  1  0.39430025  0.11704991  0.91900349  1
  O  O246  1  0.38376588  0.61913495  0.41671652  1
  O  O247  1  0.37157808  0.61586073  0.92333022  1
  O  O248  1  0.72018073  0.10710363  0.41225246  1
  O  O249  1  0.71709749  0.11442162  0.92051534  1
  O  O250  1  0.73851194  0.61042596  0.42526376  1
  O  O251  1  0.71324867  0.61887568  0.92322550  1
  O  O252  1  0.22076528  0.37436271  0.41727327  1
  O  O253  1  0.22609181  0.36625458  0.91574849  1
  O  O254  1  0.22446521  0.86349414  0.41536682  1
  O  O255  1  0.23105813  0.87381028  0.91526291  1
  O  O256  1  0.57439967  0.35860037  0.42681200  1
  O  O257  1  0.56166566  0.36179567  0.91530441  1
  O  O258  1  0.55173257  0.88680969  0.42642898  1
  O  O259  1  0.55646621  0.86732227  0.91171675  1
  O  O260  1  0.89768723  0.37050097  0.41898590  1
  O  O261  1  0.89551226  0.35866921  0.91342282  1
  O  O262  1  0.89948710  0.87360075  0.41107690  1
  O  O263  1  0.87627286  0.84922926  0.91740738  1
  O  O264  1  0.05775327  0.39615550  0.41644458  1
  O  O265  1  0.06000771  0.38834977  0.91142734  1
  O  O266  1  0.06363961  0.87408855  0.41599995  1
  O  O267  1  0.06762294  0.89283659  0.92064671  1
  O  O268  1  0.38613206  0.36597937  0.43210074  1
  O  O269  1  0.39530806  0.37451373  0.91744570  1
  O  O270  1  0.38565734  0.88588365  0.41706689  1
  O  O271  1  0.39301348  0.87854440  0.91117670  1
  O  O272  1  0.73528530  0.37369546  0.41877240  1
  O  O273  1  0.73025189  0.36916312  0.91477819  1
  O  O274  1  0.74093082  0.89729752  0.42445097  1
  O  O275  1  0.71722586  0.89324512  0.91111844  1
  O  O276  1  0.23771529  0.11480038  0.41745101  1
  O  O277  1  0.22817914  0.13352451  0.91699236  1
  O  O278  1  0.22246422  0.63870836  0.41414349  1
  O  O279  1  0.20972019  0.63981360  0.91116694  1
  O  O280  1  0.56053458  0.13060899  0.41566706  1
  O  O281  1  0.55396355  0.13037073  0.91363121  1
  O  O282  1  0.54861158  0.63409735  0.42519478  1
  O  O283  1  0.55325225  0.65526469  0.91960212  1
  O  O284  1  0.88026282  0.14252940  0.42133421  1
  O  O285  1  0.90503898  0.14583408  0.92365878  1
  O  O286  1  0.89972038  0.62375237  0.41481460  1
  O  O287  1  0.89945995  0.64215641  0.92075591  1
  O  O288  1  0.17050572  0.00706346  0.08789821  1
  O  O289  1  0.18664642  0.00141698  0.58099438  1
  O  O290  1  0.15861942  0.50732950  0.07768739  1
  O  O291  1  0.18861740  0.49660395  0.58370090  1
  O  O292  1  0.48606941  0.01026230  0.07837558  1
  O  O293  1  0.48727722  -0.00294347  0.58750737  1
  O  O294  1  0.49688640  0.49652741  0.09053185  1
  O  O295  1  0.49701263  0.50111573  0.59114445  1
  O  O296  1  0.83755531  0.00312217  0.08285816  1
  O  O297  1  0.84967587  0.00394371  0.58193926  1
  O  O298  1  0.85032403  0.49463354  0.08519753  1
  O  O299  1  0.84193728  0.49319779  0.58422891  1
  O  O300  1  -0.00310061  0.24245544  0.08421368  1
  O  O301  1  0.01935816  0.25014357  0.58466463  1
  O  O302  1  -0.00093664  0.76709471  0.07553311  1
  O  O303  1  0.00981864  0.76239522  0.57032786  1
  O  O304  1  0.33751657  0.25170407  0.08599761  1
  O  O305  1  0.35024347  0.25017284  0.58871053  1
  O  O306  1  0.32719404  0.73466580  0.07938035  1
  O  O307  1  0.33908131  0.74802734  0.58614087  1
  O  O308  1  0.66646554  0.26301849  0.07680845  1
  O  O309  1  0.65777557  0.26145816  0.57805116  1
  O  O310  1  0.67231670  0.73305530  0.07390966  1
  O  O311  1  0.66957303  0.73734997  0.58062227  1
  O  O312  1  0.15800832  -0.00740932  0.41584294  1
  O  O313  1  0.16603569  0.00359891  0.91712762  1
  O  O314  1  0.15821602  0.50664948  0.41639136  1
  O  O315  1  0.16830741  0.49889215  0.91129654  1
  O  O316  1  0.46693117  0.00891278  0.41579902  1
  O  O317  1  0.48446686  -0.00206930  0.91306390  1
  O  O318  1  0.48122859  0.50542374  0.42701920  1
  O  O319  1  0.49566662  0.48963623  0.92631069  1
  O  O320  1  0.84088350  0.00597585  0.41503055  1
  O  O321  1  0.84115811  -0.01130204  0.92217545  1
  O  O322  1  0.82641984  0.49580451  0.41543072  1
  O  O323  1  0.82654605  0.48619390  0.92407665  1
  O  O324  1  0.29394359  0.24747778  0.41844307  1
  O  O325  1  0.32138013  0.24865057  0.91384089  1
  O  O326  1  0.32338337  0.75171318  0.41391360  1
  O  O327  1  0.31406165  0.75147311  0.91248510  1
  O  O328  1  0.66635379  0.24284381  0.41486820  1
  O  O329  1  0.65094417  0.24523235  0.91373620  1
  O  O330  1  0.66416330  0.75568202  0.43426892  1
  O  O331  1  0.66522558  0.75706950  0.91313969  1
  O  O332  1  1.00679551  0.26353580  0.42824463  1
  O  O333  1  1.00892152  0.25385662  0.91219707  1
  O  O334  1  0.98189396  0.74911607  0.41294274  1
  O  O335  1  1.02228162  0.73747372  0.91527652  1
  O  O336  1  0.21003039  0.08639706  0.19782179  1
  O  O337  1  0.21757582  0.07633782  0.69279547  1
  O  O338  1  0.20938427  0.58374501  0.19340198  1
  O  O339  1  0.21203150  0.58275919  0.69211660  1
  O  O340  1  0.54274249  0.09052778  0.19029787  1
  O  O341  1  0.54124594  0.08247965  0.69223007  1
  O  O342  1  0.53975283  0.57887619  0.19911107  1
  O  O343  1  0.54359634  0.58292369  0.69920150  1
  O  O344  1  0.87767303  0.08443360  0.19360583  1
  O  O345  1  0.87960583  0.08667306  0.69079822  1
  O  O346  1  0.87738178  0.58334097  0.19251351  1
  O  O347  1  0.87751365  0.57906266  0.69193274  1
  O  O348  1  0.04025539  0.32760039  0.19210329  1
  O  O349  1  0.04217284  0.33528048  0.69399664  1
  O  O350  1  0.04466506  0.83658289  0.19252346  1
  O  O351  1  0.04948568  0.82994908  0.68919163  1
  O  O352  1  0.37544796  0.33320719  0.19515463  1
  O  O353  1  0.38214601  0.34070943  0.69545175  1
  O  O354  1  0.37759206  0.83366851  0.20103650  1
  O  O355  1  0.37457043  0.83195936  0.69497156  1
  O  O356  1  0.70829435  0.33443286  0.19490873  1
  O  O357  1  0.70792423  0.33428441  0.69470151  1
  O  O358  1  0.69711973  0.83236142  0.19401218  1
  O  O359  1  0.71198945  0.83224530  0.70105212  1
  O  O360  1  0.21323688  0.41699983  0.20070345  1
  O  O361  1  0.21129276  0.41805587  0.69435334  1
  O  O362  1  0.21038177  0.92027871  0.19491163  1
  O  O363  1  0.21137867  0.91739268  0.69286132  1
  O  O364  1  0.54428788  0.41504605  0.19950435  1
  O  O365  1  0.54198207  0.41674476  0.69876957  1
  O  O366  1  0.54165861  0.91700031  0.19697492  1
  O  O367  1  0.53968734  0.91452356  0.69357024  1
  O  O368  1  0.87680536  0.41296812  0.19599499  1
  O  O369  1  0.87613607  0.41385601  0.69493225  1
  O  O370  1  0.88181788  0.92535810  0.19246620  1
  O  O371  1  0.87234124  0.91935288  0.69154360  1
  O  O372  1  0.04633514  0.16479176  0.19621158  1
  O  O373  1  0.03585974  0.16919713  0.69383236  1
  O  O374  1  0.04483623  0.66741176  0.19884780  1
  O  O375  1  0.04479154  0.66581797  0.69795734  1
  O  O376  1  0.37449563  0.16923933  0.19641036  1
  O  O377  1  0.38197301  0.15806681  0.69293217  1
  O  O378  1  0.37631276  0.66397337  0.19643866  1
  O  O379  1  0.37573295  0.66792761  0.69651119  1
  O  O380  1  0.71185245  0.16799687  0.20110227  1
  O  O381  1  0.70994141  0.16757677  0.69848617  1
  O  O382  1  0.70785638  0.66178801  0.19201295  1
  O  O383  1  0.70706880  0.66306053  0.69502992  1
  O  O384  1  0.12537298  0.08169212  0.30878558  1
  O  O385  1  0.12234508  0.08044463  0.80692038  1
  O  O386  1  0.12512500  0.58550844  0.30413915  1
  O  O387  1  0.12416157  0.58012705  0.80181848  1
  O  O388  1  0.45206733  0.09124011  0.30611262  1
  O  O389  1  0.45596829  0.08061910  0.80501608  1
  O  O390  1  0.45364565  0.58298014  0.31079482  1
  O  O391  1  0.45317258  0.58290692  0.80207077  1
  O  O392  1  0.79255642  0.08551481  0.30540314  1
  O  O393  1  0.79157310  0.08204773  0.79839906  1
  O  O394  1  0.78909483  0.58256074  0.30677353  1
  O  O395  1  0.78923659  0.58066512  0.79944756  1
  O  O396  1  0.29513251  0.33202977  0.31186276  1
  O  O397  1  0.28664558  0.33988157  0.80701455  1
  O  O398  1  0.28738438  0.83499946  0.30484355  1
  O  O399  1  0.28828347  0.83375319  0.80329048  1
  O  O400  1  0.62586479  0.33153902  0.30906968  1
  O  O401  1  0.62421078  0.33134596  0.80482381  1
  O  O402  1  0.61983131  0.83323379  0.30177186  1
  O  O403  1  0.62021997  0.83474374  0.80358477  1
  O  O404  1  0.95771525  0.33141859  0.31014310  1
  O  O405  1  0.95773288  0.33508491  0.80356837  1
  O  O406  1  0.96673315  0.83222959  0.30362490  1
  O  O407  1  0.95587930  0.83083128  0.79583392  1
  O  O408  1  0.12281586  0.42297718  0.30562504  1
  O  O409  1  0.12486227  0.41763523  0.80320196  1
  O  O410  1  0.12421266  0.91529942  0.30477053  1
  O  O411  1  0.13051050  0.91907606  0.80622954  1
  O  O412  1  0.45364232  0.41407821  0.30358217  1
  O  O413  1  0.45762820  0.41505435  0.80958763  1
  O  O414  1  0.45145372  0.91840933  0.30883035  1
  O  O415  1  0.45536841  0.91610502  0.80298113  1
  O  O416  1  0.78894847  0.41157959  0.30722899  1
  O  O417  1  0.79108904  0.41313257  0.80688686  1
  O  O418  1  0.78825725  0.92566449  0.30623032  1
  O  O419  1  0.79188600  0.91643259  0.80651356  1
  O  O420  1  0.28855903  0.16690860  0.30736457  1
  O  O421  1  0.29702632  0.15833339  0.80862370  1
  O  O422  1  0.28769600  0.66875573  0.30399578  1
  O  O423  1  0.28617098  0.66624483  0.80549009  1
  O  O424  1  0.62080679  0.16572957  0.30486059  1
  O  O425  1  0.62147432  0.16320151  0.80504180  1
  O  O426  1  0.62080656  0.66465932  0.29960842  1
  O  O427  1  0.62325341  0.66826300  0.80820588  1
  O  O428  1  0.95707828  0.16764860  0.30014391  1
  O  O429  1  0.95988597  0.16803518  0.80663253  1
  O  O430  1  0.95544638  0.66669457  0.30358375  1
  O  O431  1  0.95691428  0.66267680  0.80460709  1
  F  F432  1  0.04862761  0.00216221  0.20512454  1
  F  F433  1  0.05078453  0.00705193  0.69799388  1
  F  F434  1  0.04638740  0.50499052  0.19641284  1
  F  F435  1  0.04540521  0.49809183  0.69904659  1
  F  F436  1  0.37048955  0.00416827  0.20103537  1
  F  F437  1  0.37851594  -0.00265742  0.70122796  1
  F  F438  1  0.37884326  0.50017383  0.20608734  1
  F  F439  1  0.37838795  0.49850531  0.70330188  1
  F  F440  1  0.71238036  0.00223024  0.19966557  1
  F  F441  1  0.71105531  -0.00228929  0.70017374  1
  F  F442  1  0.70279847  0.49861259  0.20275439  1
  F  F443  1  0.70955481  0.49599119  0.70296611  1
  F  F444  1  0.21418006  0.24541010  0.20202366  1
  F  F445  1  0.20199267  0.26433211  0.68784840  1
  F  F446  1  0.21275040  0.75179604  0.20129051  1
  F  F447  1  0.21347781  0.75022842  0.70063868  1
  F  F448  1  0.54494503  0.25230772  0.20480148  1
  F  F449  1  0.54474007  0.24987483  0.70142195  1
  F  F450  1  0.53812685  0.74753619  0.20124597  1
  F  F451  1  0.54326920  0.74761791  0.70396877  1
  F  F452  1  0.87798332  0.25241536  0.20277214  1
  F  F453  1  0.87932357  0.25124231  0.70325899  1
  F  F454  1  0.88097571  0.73935150  0.19652676  1
  F  F455  1  0.87654952  0.74454850  0.69853505  1
  F  F456  1  0.28733856  0.00136530  0.30018428  1
  F  F457  1  0.28980729  -0.00247568  0.79811451  1
  F  F458  1  0.28654820  0.50325534  0.30102829  1
  F  F459  1  0.28700907  0.50027682  0.79727734  1
  F  F460  1  0.62381798  0.00327663  0.29659198  1
  F  F461  1  0.61961318  -0.00079844  0.79451836  1
  F  F462  1  0.62114034  0.49749218  0.30373343  1
  F  F463  1  0.62217373  0.49784327  0.80079417  1
  F  F464  1  0.95677929  0.00036578  0.29870556  1
  F  F465  1  0.95467814  0.00469774  0.79648365  1
  F  F466  1  0.95967423  0.50569775  0.30128606  1
  F  F467  1  0.95550796  0.49806183  0.79502537  1
  F  F468  1  0.11997003  0.24580027  0.30304813  1
  F  F469  1  0.11811962  0.26162300  0.80153741  1
  F  F470  1  0.12321728  0.75258336  0.29676978  1
  F  F471  1  0.12451227  0.75123767  0.79616943  1
  F  F472  1  0.45359433  0.24957328  0.29886877  1
  F  F473  1  0.46609332  0.24821601  0.80148986  1
  F  F474  1  0.45274815  0.74796274  0.30124546  1
  F  F475  1  0.45216574  0.75185996  0.79858578  1
  F  F476  1  0.78924813  0.25295179  0.29963721  1
  F  F477  1  0.78859834  0.25125717  0.79850063  1
  F  F478  1  0.78334825  0.73809100  0.29948320  1
  F  F479  1  0.78905733  0.74614479  0.79694708  1
