# generated using pymatgen
data_K24Na3Li5Mg64Fe17Si79(O5F)48
_symmetry_space_group_name_H-M   'P 1'
_cell_length_a   16.06747239
_cell_length_b   18.56067545
_cell_length_c   20.54232770
_cell_angle_alpha   90.00410659
_cell_angle_beta   100.00291102
_cell_angle_gamma   89.97807055
_symmetry_Int_Tables_number   1
_chemical_formula_structural   K24Na3Li5Mg64Fe17Si79(O5F)48
_chemical_formula_sum   'K24 Na3 Li5 Mg64 Fe17 Si79 O240 F48'
_cell_volume   6033.07227349
_cell_formula_units_Z   1
loop_
 _symmetry_equiv_pos_site_id
 _symmetry_equiv_pos_as_xyz
  1  'x, y, z'
loop_
 _atom_site_type_symbol
 _atom_site_label
 _atom_site_symmetry_multiplicity
 _atom_site_fract_x
 _atom_site_fract_y
 _atom_site_fract_z
 _atom_site_occupancy
  K  K0  1  -0.00095421  0.00581489  -0.00358273  1
  K  K1  1  -0.00474048  0.00068996  0.49926350  1
  K  K2  1  -0.00324159  0.49940626  0.00408393  1
  K  K3  1  -0.01093761  0.49159053  0.49439478  1
  K  K4  1  0.33269743  0.00242862  -0.00097572  1
  K  K5  1  0.33811143  0.00404954  0.49813299  1
  K  K6  1  0.33269831  0.50057562  0.00262321  1
  K  K7  1  0.32620365  0.49242164  0.49088990  1
  K  K8  1  0.66580794  0.00070192  -0.00079742  1
  K  K9  1  0.66534656  0.00103877  0.49506773  1
  K  K10  1  0.66755871  0.49710804  0.00337906  1
  K  K11  1  0.66888465  0.49250514  0.48498525  1
  K  K12  1  0.16489538  0.25416740  0.00247318  1
  K  K13  1  0.17096396  0.26088237  0.49305872  1
  K  K14  1  0.16605586  0.75500116  -0.00163456  1
  K  K15  1  0.16216739  0.74817335  0.50506338  1
  K  K16  1  0.50745551  0.24512856  0.00557176  1
  K  K17  1  0.49362868  0.25303895  0.48983024  1
  K  K18  1  0.50338149  0.75055710  -0.00177278  1
  K  K19  1  0.50744125  0.74894695  0.49464136  1
  K  K20  1  0.83541335  0.25290259  -0.00218690  1
  K  K21  1  0.82239202  0.25149910  0.49196000  1
  K  K22  1  0.83219959  0.74681101  0.00239015  1
  K  K23  1  0.82807832  0.75347899  0.49229634  1
  Na  Na24  1  0.32621899  0.75303879  0.74981066  1
  Na  Na25  1  0.50511529  0.17135406  0.24462048  1
  Na  Na26  1  0.66522344  0.08227829  0.75463850  1
  Li  Li27  1  0.66316552  0.24838811  0.24466074  1
  Li  Li28  1  0.49963927  0.49762250  0.25354097  1
  Li  Li29  1  0.17050694  0.83376314  0.75787304  1
  Li  Li30  1  -0.00175781  0.58132171  0.24988750  1
  Li  Li31  1  0.50518108  0.16531905  0.75198588  1
  Mg  Mg32  1  0.00211917  0.75106222  0.75113962  1
  Mg  Mg33  1  0.50398596  0.00037705  0.24920571  1
  Mg  Mg34  1  0.16950728  -0.00076179  0.24866467  1
  Mg  Mg35  1  0.33490373  0.25336551  0.25010237  1
  Mg  Mg36  1  0.16350130  0.50085694  0.25168478  1
  Mg  Mg37  1  0.66356386  0.74924178  0.74725026  1
  Mg  Mg38  1  0.66226498  0.24780511  0.75055758  1
  Mg  Mg39  1  0.33461233  0.24849213  0.74633521  1
  Mg  Mg40  1  0.83242303  0.50060084  0.75153564  1
  Mg  Mg41  1  0.49917500  0.00228207  0.74795673  1
  Mg  Mg42  1  0.83521774  0.49735967  0.25406093  1
  Mg  Mg43  1  0.16563214  0.50182623  0.75253715  1
  Mg  Mg44  1  0.83475662  0.00102893  0.25037384  1
  Mg  Mg45  1  0.66738091  0.74968011  0.25067700  1
  Mg  Mg46  1  0.33429548  0.74843685  0.25087841  1
  Mg  Mg47  1  0.16654059  -0.00253612  0.74887207  1
  Mg  Mg48  1  0.00040583  0.24974758  0.25269121  1
  Mg  Mg49  1  0.83255632  -0.00094162  0.75037982  1
  Mg  Mg50  1  -0.00042913  0.74954588  0.24784035  1
  Mg  Mg51  1  -0.00129212  0.25210376  0.75333912  1
  Mg  Mg52  1  0.49785739  0.49804663  0.74969308  1
  Mg  Mg53  1  0.00492164  0.91467357  0.75080447  1
  Mg  Mg54  1  0.00147057  0.41673447  0.75160087  1
  Mg  Mg55  1  0.00062019  0.08435841  0.75240339  1
  Mg  Mg56  1  -0.00067182  0.41665614  0.25415246  1
  Mg  Mg57  1  0.16938102  0.16630533  0.25220698  1
  Mg  Mg58  1  0.66683022  0.91605940  0.74891013  1
  Mg  Mg59  1  0.33855674  0.08619188  0.24998971  1
  Mg  Mg60  1  0.50190859  0.32938030  0.74842265  1
  Mg  Mg61  1  0.16701435  0.33644316  0.25182813  1
  Mg  Mg62  1  0.83213755  0.33188147  0.25294356  1
  Mg  Mg63  1  0.83563247  0.83344027  0.75138145  1
  Mg  Mg64  1  0.33284811  0.41403117  0.74867924  1
  Mg  Mg65  1  0.66608768  0.91384839  0.24960882  1
  Mg  Mg66  1  0.66538019  0.58376049  0.74809211  1
  Mg  Mg67  1  0.66679299  0.41412644  0.25517953  1
  Mg  Mg68  1  0.16607784  0.33507213  0.74980197  1
  Mg  Mg69  1  0.16187890  0.66565732  0.24740289  1
  Mg  Mg70  1  0.66619438  0.41454480  0.75108937  1
  Mg  Mg71  1  0.33017033  0.91543168  0.75001498  1
  Mg  Mg72  1  0.50092964  0.66315255  0.25337241  1
  Mg  Mg73  1  0.49540975  0.66590668  0.74850983  1
  Mg  Mg74  1  0.66583094  0.58061502  0.25396213  1
  Mg  Mg75  1  0.16786522  0.67039461  0.74918659  1
  Mg  Mg76  1  0.16488931  0.83316967  0.24649081  1
  Mg  Mg77  1  0.66721786  0.08675662  0.24860477  1
  Mg  Mg78  1  0.50296260  0.83292438  0.25072713  1
  Mg  Mg79  1  0.16715415  0.16583519  0.74713341  1
  Mg  Mg80  1  0.00168777  0.58605584  0.75210752  1
  Mg  Mg81  1  0.83513680  0.66684280  0.74973491  1
  Mg  Mg82  1  0.33595082  0.08481102  0.74560968  1
  Mg  Mg83  1  0.33272548  0.41712643  0.25141278  1
  Mg  Mg84  1  0.33585474  0.91581622  0.25064660  1
  Mg  Mg85  1  -0.00187643  0.91494033  0.24572723  1
  Mg  Mg86  1  0.83105213  0.16715542  0.25124763  1
  Mg  Mg87  1  0.33116779  0.58418047  0.74838447  1
  Mg  Mg88  1  0.83252956  0.16561263  0.75324999  1
  Mg  Mg89  1  0.83398611  0.33457819  0.75276681  1
  Mg  Mg90  1  0.83125206  0.83402852  0.24937036  1
  Mg  Mg91  1  0.83484588  0.66342368  0.25031856  1
  Mg  Mg92  1  0.49686857  0.83436742  0.74735889  1
  Mg  Mg93  1  0.33294328  0.58156324  0.24978384  1
  Mg  Mg94  1  -0.00042493  0.08306362  0.25109810  1
  Mg  Mg95  1  0.50205291  0.33596578  0.25332311  1
  Fe  Fe96  1  0.81077448  0.07823391  0.89127187  1
  Fe  Fe97  1  0.64264031  0.83511518  0.39229374  1
  Fe  Fe98  1  0.02552652  0.83900709  0.10796480  1
  Fe  Fe99  1  0.97347011  0.33945297  0.89196305  1
  Fe  Fe100  1  0.14503095  0.91898436  0.88923381  1
  Fe  Fe101  1  0.80885937  0.41180645  0.39443508  1
  Fe  Fe102  1  0.30837737  0.66928393  0.88936091  1
  Fe  Fe103  1  0.97834170  0.32827607  0.39373518  1
  Fe  Fe104  1  0.14734230  0.41999696  0.89003780  1
  Fe  Fe105  1  0.85653864  0.08469610  0.11242252  1
  Fe  Fe106  1  0.52372134  0.07915452  0.10684648  1
  Fe  Fe107  1  0.97803783  0.66520747  0.88914710  1
  Fe  Fe108  1  0.19008036  0.41810848  0.11119294  1
  Fe  Fe109  1  0.69397488  0.82801721  0.10959744  1
  Fe  Fe110  1  0.63865960  0.33059809  0.88955511  1
  Fe  Fe111  1  0.30586975  0.33330962  0.39140848  1
  Fe  Fe112  1  0.69137595  0.17342118  0.10756594  1
  Si  Si113  1  0.19163817  0.41666213  0.61142906  1
  Si  Si114  1  0.47467535  0.58254601  0.38673123  1
  Si  Si115  1  0.97610004  0.83432529  0.88680442  1
  Si  Si116  1  0.31039086  0.66672882  0.38609637  1
  Si  Si117  1  0.85787537  0.41766871  0.61380907  1
  Si  Si118  1  0.97472251  0.83580300  0.38591294  1
  Si  Si119  1  0.18717221  0.58769031  0.11295975  1
  Si  Si120  1  0.30819646  0.32992116  0.88287569  1
  Si  Si121  1  0.85772564  0.58383566  0.61228981  1
  Si  Si122  1  0.47230547  0.57786381  0.88530230  1
  Si  Si123  1  0.52292875  0.08383200  0.61212302  1
  Si  Si124  1  0.86011243  0.57885081  0.11737615  1
  Si  Si125  1  0.18995817  0.08316858  0.60969873  1
  Si  Si126  1  0.19164602  0.91698351  0.61135622  1
  Si  Si127  1  0.63425724  0.66442748  0.88165404  1
  Si  Si128  1  0.80835132  0.90705361  0.88639786  1
  Si  Si129  1  0.14559601  0.07455649  0.38662540  1
  Si  Si130  1  0.02482601  0.66688394  0.61209532  1
  Si  Si131  1  0.68930982  0.65735450  0.11398084  1
  Si  Si132  1  0.81144827  0.08657083  0.38926316  1
  Si  Si133  1  0.36302428  0.83054140  0.11729551  1
  Si  Si134  1  0.98433956  0.16050577  0.39078920  1
  Si  Si135  1  0.30971450  0.16226880  0.38966761  1
  Si  Si136  1  0.63588258  0.33051113  0.39086715  1
  Si  Si137  1  0.46962937  0.41318760  0.88400416  1
  Si  Si138  1  0.69241754  0.33372093  0.61293997  1
  Si  Si139  1  0.35689627  0.17275885  0.11333579  1
  Si  Si140  1  0.02394491  0.83306935  0.61283220  1
  Si  Si141  1  0.02062009  0.66972597  0.11321969  1
  Si  Si142  1  0.20140539  0.91865915  0.11320655  1
  Si  Si143  1  0.52198737  0.58158486  0.11933450  1
  Si  Si144  1  0.47578163  0.92092350  0.88287621  1
  Si  Si145  1  0.52610151  0.41942403  0.12089120  1
  Si  Si146  1  0.69116407  0.16858758  0.61359368  1
  Si  Si147  1  0.80052350  0.42256553  0.88785854  1
  Si  Si148  1  0.52334825  0.58345939  0.61071268  1
  Si  Si149  1  0.02339616  0.32701866  0.11573340  1
  Si  Si150  1  0.35840346  0.33307562  0.61115710  1
  Si  Si151  1  0.02964241  0.16132445  0.11724495  1
  Si  Si152  1  0.63687376  0.83098103  0.88129824  1
  Si  Si153  1  0.14859895  0.08824887  0.88448833  1
  Si  Si154  1  0.85735470  0.08381110  0.61330201  1
  Si  Si155  1  0.98125935  0.16787611  0.88927624  1
  Si  Si156  1  0.31529486  0.83863535  0.89054845  1
  Si  Si157  1  0.30696745  0.83122344  0.38503024  1
  Si  Si158  1  0.85977387  0.41432590  0.11617642  1
  Si  Si159  1  0.36282366  0.33742942  0.11395542  1
  Si  Si160  1  0.02488245  0.33306218  0.61291450  1
  Si  Si161  1  0.64288155  0.66470668  0.39000817  1
  Si  Si162  1  0.35618086  0.16614751  0.60947822  1
  Si  Si163  1  0.13878397  0.42537324  0.39274956  1
  Si  Si164  1  0.85926737  0.91643734  0.61358380  1
  Si  Si165  1  0.52195113  0.91292015  0.11096789  1
  Si  Si166  1  0.64319579  0.16385397  0.38723974  1
  Si  Si167  1  0.14501964  0.58552366  0.88745109  1
  Si  Si168  1  0.69183334  0.83374706  0.61313251  1
  Si  Si169  1  0.19808270  0.08600781  0.11598518  1
  Si  Si170  1  0.14147147  0.59105125  0.38532510  1
  Si  Si171  1  0.80378857  0.58787813  0.88510146  1
  Si  Si172  1  0.63828573  0.16517241  0.88776299  1
  Si  Si173  1  0.35847212  0.83495802  0.61069798  1
  Si  Si174  1  0.14342784  0.91111168  0.38472764  1
  Si  Si175  1  0.81271917  0.92124820  0.39059333  1
  Si  Si176  1  0.69107550  0.66659166  0.61181801  1
  Si  Si177  1  0.81170208  0.58444010  0.38946587  1
  Si  Si178  1  0.31160796  0.16846441  0.88057143  1
  Si  Si179  1  0.52502117  0.41699705  0.61201722  1
  Si  Si180  1  0.19035916  0.58279643  0.61109318  1
  Si  Si181  1  0.52428124  0.91729502  0.61014176  1
  Si  Si182  1  0.35710582  0.66639028  0.11664594  1
  Si  Si183  1  0.47273734  0.41701748  0.38980244  1
  Si  Si184  1  0.47274901  0.08461320  0.88132670  1
  Si  Si185  1  0.68889789  0.34227019  0.11571942  1
  Si  Si186  1  0.02333100  0.16672006  0.61264162  1
  Si  Si187  1  0.35815356  0.66569620  0.61094917  1
  Si  Si188  1  0.97395969  0.67161269  0.38537092  1
  Si  Si189  1  0.85648599  0.91845987  0.11228561  1
  Si  Si190  1  0.47018385  0.91643358  0.38905258  1
  Si  Si191  1  0.47632201  0.08024939  0.38632200  1
  O  O192  1  0.27464282  0.12061048  0.08327987  1
  O  O193  1  0.26591237  0.12416778  0.57810671  1
  O  O194  1  0.27297798  0.61945887  0.08706498  1
  O  O195  1  0.26712081  0.62508649  0.58100718  1
  O  O196  1  0.61170684  0.10762024  0.06615964  1
  O  O197  1  0.60144016  0.12581940  0.58423706  1
  O  O198  1  0.60542798  0.60559273  0.08769314  1
  O  O199  1  0.60113963  0.62526459  0.58214350  1
  O  O200  1  0.96161370  0.10233347  0.08572569  1
  O  O201  1  0.93407933  0.12427705  0.58237711  1
  O  O202  1  0.93964992  0.61468687  0.08801182  1
  O  O203  1  0.93426408  0.62531135  0.58246453  1
  O  O204  1  0.09934654  0.35535885  0.08032524  1
  O  O205  1  0.10252456  0.37336207  0.58306011  1
  O  O206  1  0.12608265  0.86769594  0.07824018  1
  O  O207  1  0.10151104  0.87418416  0.58282492  1
  O  O208  1  0.45107257  0.36286077  0.08850157  1
  O  O209  1  0.43579890  0.37447498  0.58250708  1
  O  O210  1  0.44871170  0.84872733  0.08887325  1
  O  O211  1  0.43525954  0.87459076  0.57815456  1
  O  O212  1  0.77084422  0.37495217  0.08473545  1
  O  O213  1  0.76915945  0.37542803  0.58331236  1
  O  O214  1  0.79548017  0.85152495  0.08213093  1
  O  O215  1  0.76969321  0.87376113  0.58421216  1
  O  O216  1  0.28888190  0.39115788  0.07926011  1
  O  O217  1  0.26897834  0.37556524  0.58173624  1
  O  O218  1  0.28947160  0.88978002  0.08975308  1
  O  O219  1  0.26749884  0.87516897  0.57938845  1
  O  O220  1  0.61201370  0.40191412  0.09062647  1
  O  O221  1  0.60287187  0.37654908  0.58335221  1
  O  O222  1  0.60255892  0.88897954  0.07781062  1
  O  O223  1  0.60282630  0.87565874  0.58225903  1
  O  O224  1  0.93625590  0.37328226  0.08724492  1
  O  O225  1  0.93678237  0.37786845  0.58615012  1
  O  O226  1  0.94568002  0.91129025  0.08435829  1
  O  O227  1  0.93477890  0.87658339  0.58061929  1
  O  O228  1  0.11727188  0.13818466  0.08956575  1
  O  O229  1  0.09932237  0.12484457  0.58188081  1
  O  O230  1  0.10696184  0.64208712  0.08640986  1
  O  O231  1  0.10098026  0.62545766  0.58092678  1
  O  O232  1  0.43452510  0.14576761  0.07991208  1
  O  O233  1  0.43262936  0.12488316  0.57881048  1
  O  O234  1  0.44043370  0.63453570  0.08909387  1
  O  O235  1  0.43501109  0.62612133  0.57862560  1
  O  O236  1  0.78900027  0.15738884  0.07358853  1
  O  O237  1  0.76710816  0.12467881  0.58335823  1
  O  O238  1  0.77031955  0.61966969  0.08599372  1
  O  O239  1  0.76818241  0.62641189  0.58208815  1
  O  O240  1  0.06281217  0.10169521  0.41676075  1
  O  O241  1  0.06404606  0.11399171  0.91263635  1
  O  O242  1  0.06404878  0.63084638  0.41573722  1
  O  O243  1  0.05605869  0.59176334  0.91597115  1
  O  O244  1  0.39938237  0.11893038  0.41774231  1
  O  O245  1  0.38602661  0.11002297  0.90916047  1
  O  O246  1  0.39508045  0.61966813  0.41792189  1
  O  O247  1  0.39630603  0.60212157  0.92181239  1
  O  O248  1  0.73444212  0.12421064  0.42219250  1
  O  O249  1  0.70589314  0.10170103  0.91381228  1
  O  O250  1  0.72951538  0.61862461  0.41801934  1
  O  O251  1  0.71533806  0.61341212  0.91051452  1
  O  O252  1  0.22257178  0.38193133  0.42809942  1
  O  O253  1  0.22646207  0.34435207  0.91610076  1
  O  O254  1  0.22386088  0.85878606  0.41511293  1
  O  O255  1  0.23741267  0.86140101  0.92805390  1
  O  O256  1  0.55631452  0.36815602  0.42064365  1
  O  O257  1  0.53799059  0.35622760  0.91928814  1
  O  O258  1  0.54835465  0.86960809  0.42707917  1
  O  O259  1  0.55789128  0.86818610  0.91002184  1
  O  O260  1  0.89467937  0.35562212  0.43963793  1
  O  O261  1  0.87263617  0.36675799  0.92111251  1
  O  O262  1  0.90304719  0.87818640  0.41924337  1
  O  O263  1  0.88221590  0.84627933  0.90939278  1
  O  O264  1  0.06113660  0.39770209  0.42671921  1
  O  O265  1  0.05286340  0.40644046  0.92757233  1
  O  O266  1  0.06373376  0.87817236  0.41538989  1
  O  O267  1  0.04045722  0.89841977  0.91632847  1
  O  O268  1  0.40043657  0.38784289  0.42933332  1
  O  O269  1  0.37948869  0.39260082  0.90803461  1
  O  O270  1  0.38398630  0.88568397  0.41527894  1
  O  O271  1  0.39628007  0.89556757  0.91671517  1
  O  O272  1  0.71806687  0.37186329  0.43035429  1
  O  O273  1  0.71376471  0.40726531  0.91575048  1
  O  O274  1  0.74197635  0.88608591  0.42821660  1
  O  O275  1  0.72309179  0.87415060  0.91175821  1
  O  O276  1  0.23296511  0.11734228  0.41765612  1
  O  O277  1  0.22479594  0.14868736  0.90860362  1
  O  O278  1  0.22857383  0.63730272  0.41679566  1
  O  O279  1  0.20584203  0.65214924  0.91864471  1
  O  O280  1  0.56678062  0.11985870  0.41710948  1
  O  O281  1  0.54699498  0.14079207  0.91145182  1
  O  O282  1  0.56177168  0.62663217  0.41754586  1
  O  O283  1  0.55483437  0.63080807  0.91147903  1
  O  O284  1  0.90041596  0.12885204  0.41934364  1
  O  O285  1  0.90404970  0.13836909  0.92324185  1
  O  O286  1  0.89554274  0.63660063  0.41690873  1
  O  O287  1  0.87517425  0.64355499  0.91839743  1
  O  O288  1  0.18524448  0.00293961  0.08743821  1
  O  O289  1  0.18168665  0.00005523  0.57896584  1
  O  O290  1  0.16365704  0.51142889  0.07760135  1
  O  O291  1  0.18422153  0.49954223  0.58062545  1
  O  O292  1  0.48120686  -0.01336527  0.07793225  1
  O  O293  1  0.51767573  0.00025131  0.57969108  1
  O  O294  1  0.49538730  0.50053223  0.09119193  1
  O  O295  1  0.51694342  0.50017854  0.58163761  1
  O  O296  1  0.81042181  -0.00618171  0.08700139  1
  O  O297  1  0.85065023  -0.00004902  0.58398380  1
  O  O298  1  0.85265068  0.49701427  0.08594167  1
  O  O299  1  0.85046801  0.50064631  0.58316720  1
  O  O300  1  0.00305534  0.24314394  0.09037282  1
  O  O301  1  0.01608483  0.24991012  0.58348731  1
  O  O302  1  -0.00673879  0.74582194  0.07721679  1
  O  O303  1  0.01733547  0.74997153  0.58114200  1
  O  O304  1  0.33534017  0.25573391  0.08579734  1
  O  O305  1  0.35032133  0.25028257  0.58086989  1
  O  O306  1  0.33593753  0.74904097  0.08942513  1
  O  O307  1  0.35063884  0.75016323  0.58333522  1
  O  O308  1  0.65869960  0.26810806  0.07894964  1
  O  O309  1  0.68440014  0.25130897  0.58126923  1
  O  O310  1  0.66855223  0.73336410  0.07651785  1
  O  O311  1  0.68376745  0.75023854  0.58349356  1
  O  O312  1  0.16380845  -0.00820662  0.41603499  1
  O  O313  1  0.18049735  0.01307491  0.91882576  1
  O  O314  1  0.15549602  0.51110341  0.41810341  1
  O  O315  1  0.19492545  0.51082803  0.91167159  1
  O  O316  1  0.48236058  -0.00112175  0.41947237  1
  O  O317  1  0.49900070  0.00305647  0.91047157  1
  O  O318  1  0.49118561  0.50148202  0.41742146  1
  O  O319  1  0.49959768  0.49512301  0.91004955  1
  O  O320  1  0.82698868  0.00434195  0.42032141  1
  O  O321  1  0.83474436  -0.01765237  0.92229863  1
  O  O322  1  0.82961558  0.50822748  0.42649415  1
  O  O323  1  0.82833136  0.50629156  0.91213801  1
  O  O324  1  0.31694899  0.23873508  0.42728655  1
  O  O325  1  0.34527380  0.24864693  0.90689569  1
  O  O326  1  0.32946188  0.74972412  0.41493073  1
  O  O327  1  0.35210706  0.76023184  0.91784579  1
  O  O328  1  0.64149421  0.24544530  0.41897646  1
  O  O329  1  0.67037923  0.24031534  0.92567070  1
  O  O330  1  0.65637369  0.74124933  0.42797159  1
  O  O331  1  0.64778279  0.74746807  0.90968653  1
  O  O332  1  1.01468325  0.23496983  0.42726401  1
  O  O333  1  1.01118595  0.24640836  0.91904251  1
  O  O334  1  0.98508452  0.75407633  0.41764714  1
  O  O335  1  1.01298606  0.75793587  0.91778921  1
  O  O336  1  0.21423049  0.08297211  0.19695257  1
  O  O337  1  0.20874296  0.08407065  0.68973333  1
  O  O338  1  0.20806347  0.58595700  0.19431422  1
  O  O339  1  0.20755603  0.58039915  0.69061712  1
  O  O340  1  0.55093582  0.07327955  0.19747770  1
  O  O341  1  0.53411323  0.08006647  0.69015581  1
  O  O342  1  0.54412852  0.58621508  0.19887907  1
  O  O343  1  0.54151613  0.58339407  0.69101294  1
  O  O344  1  0.88063100  0.08338352  0.20538128  1
  O  O345  1  0.87852464  0.08409924  0.69286026  1
  O  O346  1  0.87321722  0.58104112  0.19705487  1
  O  O347  1  0.87266715  0.58351168  0.69217328  1
  O  O348  1  0.04466237  0.33170565  0.19666523  1
  O  O349  1  0.04363832  0.33213100  0.69265306  1
  O  O350  1  0.04554018  0.83332049  0.20051298  1
  O  O351  1  0.03420745  0.83254034  0.69137350  1
  O  O352  1  0.37752013  0.33684824  0.19465306  1
  O  O353  1  0.37549004  0.33353448  0.69107249  1
  O  O354  1  0.37812615  0.83113390  0.19834060  1
  O  O355  1  0.37949077  0.84054787  0.68958969  1
  O  O356  1  0.71294449  0.33912436  0.19550873  1
  O  O357  1  0.71184436  0.33551309  0.69278704  1
  O  O358  1  0.71244188  0.83113664  0.20174841  1
  O  O359  1  0.70863605  0.83152127  0.69308385  1
  O  O360  1  0.20900804  0.42000305  0.20276985  1
  O  O361  1  0.21109016  0.41625471  0.69120098  1
  O  O362  1  0.21413951  0.91662394  0.19474377  1
  O  O363  1  0.21328386  0.92137449  0.69001988  1
  O  O364  1  0.54466250  0.41945603  0.20051913  1
  O  O365  1  0.54132032  0.41886271  0.69189543  1
  O  O366  1  0.54079812  0.91336595  0.19299513  1
  O  O367  1  0.54182556  0.91520905  0.69005653  1
  O  O368  1  0.87799005  0.41657199  0.19616726  1
  O  O369  1  0.87375227  0.41917162  0.69375368  1
  O  O370  1  0.87584888  0.91562310  0.19531752  1
  O  O371  1  0.87743989  0.91533132  0.69351526  1
  O  O372  1  0.04819590  0.16372900  0.19872745  1
  O  O373  1  0.04212340  0.16624011  0.69284768  1
  O  O374  1  0.04244383  0.67112864  0.19361609  1
  O  O375  1  0.04152545  0.66558016  0.69160476  1
  O  O376  1  0.36626235  0.16954139  0.19343370  1
  O  O377  1  0.36849091  0.16641730  0.68842016  1
  O  O378  1  0.37622433  0.66621933  0.19730271  1
  O  O379  1  0.38041905  0.65901576  0.68968403  1
  O  O380  1  0.71425540  0.16455402  0.19869474  1
  O  O381  1  0.71323697  0.17342858  0.69226631  1
  O  O382  1  0.70890052  0.66278560  0.19518819  1
  O  O383  1  0.70807402  0.66574129  0.69205052  1
  O  O384  1  0.12783071  0.07900519  0.30653682  1
  O  O385  1  0.12671430  0.08570974  0.80275077  1
  O  O386  1  0.12663435  0.58830416  0.30600735  1
  O  O387  1  0.12299047  0.58566822  0.80438245  1
  O  O388  1  0.45445216  0.07640455  0.30740426  1
  O  O389  1  0.45309089  0.08117745  0.80144113  1
  O  O390  1  0.45284929  0.58717524  0.30757769  1
  O  O391  1  0.45590048  0.58116834  0.80365598  1
  O  O392  1  0.79253342  0.08266756  0.30986855  1
  O  O393  1  0.80087485  0.08057490  0.80064008  1
  O  O394  1  0.79231089  0.58460159  0.30884914  1
  O  O395  1  0.78654883  0.58628825  0.80325710  1
  O  O396  1  0.28746390  0.33295228  0.30069237  1
  O  O397  1  0.28959985  0.33129541  0.80114417  1
  O  O398  1  0.28936334  0.83207154  0.30478404  1
  O  O399  1  0.29128159  0.84477024  0.81070420  1
  O  O400  1  0.62102967  0.33665427  0.31173061  1
  O  O401  1  0.62055415  0.33428570  0.79705875  1
  O  O402  1  0.62101526  0.83187105  0.30136409  1
  O  O403  1  0.62104791  0.83086007  0.80048277  1
  O  O404  1  0.95746089  0.33192815  0.30194330  1
  O  O405  1  0.95439638  0.33602367  0.79848887  1
  O  O406  1  0.95586022  0.83418063  0.30609022  1
  O  O407  1  0.95663549  0.83369051  0.80446731  1
  O  O408  1  0.12250143  0.42002893  0.31177048  1
  O  O409  1  0.12261578  0.41697936  0.79665356  1
  O  O410  1  0.12734214  0.91464349  0.30500362  1
  O  O411  1  0.12218613  0.91953909  0.79792039  1
  O  O412  1  0.45189199  0.41598532  0.31014754  1
  O  O413  1  0.45501855  0.41436883  0.80225068  1
  O  O414  1  0.45597890  0.91424397  0.30836501  1
  O  O415  1  0.45582189  0.91725004  0.80209744  1
  O  O416  1  0.79005556  0.41564679  0.30312585  1
  O  O417  1  0.78763341  0.42005163  0.80546324  1
  O  O418  1  0.79422260  0.91732610  0.31037055  1
  O  O419  1  0.78889587  0.91221178  0.80469486  1
  O  O420  1  0.29123512  0.16401352  0.30906263  1
  O  O421  1  0.29056310  0.16656869  0.79965918  1
  O  O422  1  0.29086979  0.66699098  0.30600691  1
  O  O423  1  0.28489820  0.65792230  0.79908102  1
  O  O424  1  0.63272218  0.16189291  0.30953045  1
  O  O425  1  0.61969690  0.17525966  0.80822110  1
  O  O426  1  0.62440581  0.66632011  0.30925080  1
  O  O427  1  0.61967682  0.66515291  0.80068258  1
  O  O428  1  0.96519348  0.16390960  0.31052640  1
  O  O429  1  0.96009486  0.16731019  0.80671180  1
  O  O430  1  0.95558991  0.67206286  0.30611598  1
  O  O431  1  0.95353561  0.66775000  0.79652164  1
  F  F432  1  0.04954807  -0.00061610  0.20450345  1
  F  F433  1  0.04377893  0.00380287  0.69757943  1
  F  F434  1  0.04523001  0.49710901  0.20461962  1
  F  F435  1  0.04242648  0.50276831  0.69925183  1
  F  F436  1  0.37885386  -0.00155716  0.20405319  1
  F  F437  1  0.37689706  -0.00077204  0.69741735  1
  F  F438  1  0.37366828  0.50103200  0.20361951  1
  F  F439  1  0.37838107  0.49823532  0.69842619  1
  F  F440  1  0.71407619  -0.00243353  0.20820132  1
  F  F441  1  0.71646684  -0.01249904  0.69501047  1
  F  F442  1  0.71269006  0.50213479  0.20512804  1
  F  F443  1  0.71041514  0.50064844  0.70003320  1
  F  F444  1  0.21030939  0.24826573  0.20364044  1
  F  F445  1  0.21037346  0.25050941  0.69757267  1
  F  F446  1  0.21377724  0.74927601  0.20271348  1
  F  F447  1  0.19691273  0.74521844  0.68783522  1
  F  F448  1  0.54763434  0.26532871  0.19886434  1
  F  F449  1  0.54596219  0.25465161  0.69223585  1
  F  F450  1  0.54332608  0.74560864  0.20377139  1
  F  F451  1  0.54410671  0.74867024  0.69545717  1
  F  F452  1  0.88110328  0.24789112  0.20386890  1
  F  F453  1  0.87820910  0.24876247  0.70123636  1
  F  F454  1  0.87707556  0.74884596  0.20337927  1
  F  F455  1  0.87399510  0.75189884  0.69787612  1
  F  F456  1  0.28926120  -0.00163517  0.29948073  1
  F  F457  1  0.28831721  0.00419809  0.79303539  1
  F  F458  1  0.28652557  0.50525805  0.30285334  1
  F  F459  1  0.28913292  0.49745639  0.79265754  1
  F  F460  1  0.62219980  -0.00697263  0.30334812  1
  F  F461  1  0.61407542  -0.01348710  0.79862304  1
  F  F462  1  0.62815005  0.50129838  0.30569300  1
  F  F463  1  0.61888079  0.50191562  0.79390093  1
  F  F464  1  0.96008850  -0.00485680  0.30128209  1
  F  F465  1  0.95571841  -0.00120652  0.79399413  1
  F  F466  1  0.95367636  0.49830727  0.30287244  1
  F  F467  1  0.95219454  0.50182011  0.79486135  1
  F  F468  1  0.12412456  0.24896228  0.30081686  1
  F  F469  1  0.12231289  0.24868654  0.79369762  1
  F  F470  1  0.12409998  0.74980847  0.30002767  1
  F  F471  1  0.11944524  0.74900481  0.79609450  1
  F  F472  1  0.44977598  0.25822031  0.30342172  1
  F  F473  1  0.45061059  0.25116743  0.79237442  1
  F  F474  1  0.45456184  0.74906980  0.30102718  1
  F  F475  1  0.46652305  0.75031226  0.79671791  1
  F  F476  1  0.79960340  0.24928328  0.30488377  1
  F  F477  1  0.78725546  0.25163018  0.79691357  1
  F  F478  1  0.79001267  0.74688157  0.30088715  1
  F  F479  1  0.78356813  0.74902848  0.79428898  1
