# generated using pymatgen
data_K24Na3Li5Mg64Fe17Si79(O5F)48
_symmetry_space_group_name_H-M   'P 1'
_cell_length_a   16.09534008
_cell_length_b   18.59099372
_cell_length_c   20.55624613
_cell_angle_alpha   90.01519523
_cell_angle_beta   100.00731242
_cell_angle_gamma   89.98126861
_symmetry_Int_Tables_number   1
_chemical_formula_structural   K24Na3Li5Mg64Fe17Si79(O5F)48
_chemical_formula_sum   'K24 Na3 Li5 Mg64 Fe17 Si79 O240 F48'
_cell_volume   6057.42742673
_cell_formula_units_Z   1
loop_
 _symmetry_equiv_pos_site_id
 _symmetry_equiv_pos_as_xyz
  1  'x, y, z'
loop_
 _atom_site_type_symbol
 _atom_site_label
 _atom_site_symmetry_multiplicity
 _atom_site_fract_x
 _atom_site_fract_y
 _atom_site_fract_z
 _atom_site_occupancy
  K  K0  1  -0.00712552  -0.00764565  0.00237424  1
  K  K1  1  0.00460552  -0.01311080  0.49901724  1
  K  K2  1  0.01066758  0.50151868  0.00411763  1
  K  K3  1  0.00713332  0.51406228  0.50615804  1
  K  K4  1  0.33639073  -0.00746378  0.00871855  1
  K  K5  1  0.34127441  -0.00214139  0.49362943  1
  K  K6  1  0.32983204  0.50668328  0.00311880  1
  K  K7  1  0.33139321  0.50219954  0.50166046  1
  K  K8  1  0.66530225  -0.00653388  0.00384780  1
  K  K9  1  0.65340564  -0.00483153  0.49293637  1
  K  K10  1  0.65377441  0.51377335  -0.00352922  1
  K  K11  1  0.65310027  0.50195083  0.49768421  1
  K  K12  1  0.18530130  0.25826634  0.01368876  1
  K  K13  1  0.17255183  0.25405587  0.49680833  1
  K  K14  1  0.17211744  0.75151981  -0.00008412  1
  K  K15  1  0.16276318  0.74331576  0.51075379  1
  K  K16  1  0.49293554  0.24879143  0.00922614  1
  K  K17  1  0.50155865  0.24731644  0.49439799  1
  K  K18  1  0.48093479  0.74329089  -0.00478210  1
  K  K19  1  0.50045230  0.75097563  0.49906342  1
  K  K20  1  0.83509932  0.24849138  0.00233469  1
  K  K21  1  0.82832902  0.25615782  0.49583559  1
  K  K22  1  0.84484327  0.75121630  -0.00056807  1
  K  K23  1  0.83446143  0.76199714  0.50148378  1
  Na  Na24  1  0.33316417  0.74660184  0.75552839  1
  Na  Na25  1  0.16678133  0.66766011  0.74862615  1
  Na  Na26  1  0.00461153  0.58309723  0.74938647  1
  Li  Li27  1  0.00982041  0.75371657  0.24963942  1
  Li  Li28  1  0.16932938  0.50062051  0.24535892  1
  Li  Li29  1  0.49836264  0.33290304  0.25280803  1
  Li  Li30  1  0.49053943  0.66645865  0.75450604  1
  Li  Li31  1  0.16167318  0.82897697  0.24677087  1
  Mg  Mg32  1  0.33000147  0.75144285  0.24863249  1
  Mg  Mg33  1  -0.00016861  0.25084907  0.24588036  1
  Mg  Mg34  1  0.00057162  0.24923959  0.75086249  1
  Mg  Mg35  1  0.16991219  0.49991311  0.75093120  1
  Mg  Mg36  1  0.33590818  0.25080061  0.24917154  1
  Mg  Mg37  1  0.66788655  0.24967226  0.74478825  1
  Mg  Mg38  1  0.66307058  0.25176427  0.25316759  1
  Mg  Mg39  1  0.00061538  0.75117050  0.75035408  1
  Mg  Mg40  1  0.49945581  -0.00174624  0.25225198  1
  Mg  Mg41  1  0.50157410  -0.00110805  0.74583009  1
  Mg  Mg42  1  0.66747345  0.74999504  0.25255829  1
  Mg  Mg43  1  0.50063146  0.50310265  0.74848303  1
  Mg  Mg44  1  0.33573068  0.24949626  0.74707809  1
  Mg  Mg45  1  0.16611864  -0.00263958  0.24582856  1
  Mg  Mg46  1  0.83647377  -0.00061701  0.24762553  1
  Mg  Mg47  1  0.83314055  -0.00010968  0.74850311  1
  Mg  Mg48  1  0.49845646  0.49525921  0.25283568  1
  Mg  Mg49  1  0.83395299  0.50060069  0.75093591  1
  Mg  Mg50  1  0.83525971  0.50121124  0.25320304  1
  Mg  Mg51  1  0.16737504  -0.00076496  0.75079815  1
  Mg  Mg52  1  0.66371682  0.74864012  0.75053400  1
  Mg  Mg53  1  0.00285096  0.41894092  0.24843316  1
  Mg  Mg54  1  0.33563108  0.58371933  0.74999041  1
  Mg  Mg55  1  0.33202254  0.41581475  0.25027962  1
  Mg  Mg56  1  0.16593827  0.16584180  0.24680370  1
  Mg  Mg57  1  0.66871674  0.91382506  0.25093245  1
  Mg  Mg58  1  0.16877476  0.16537779  0.75034148  1
  Mg  Mg59  1  0.83096527  0.16633589  0.74638833  1
  Mg  Mg60  1  0.66224017  0.58626538  0.75015530  1
  Mg  Mg61  1  0.16811121  0.33312357  0.74952914  1
  Mg  Mg62  1  -0.00281859  0.08357725  0.24466948  1
  Mg  Mg63  1  0.83810098  0.83321311  0.24808378  1
  Mg  Mg64  1  0.66606074  0.91526932  0.74863235  1
  Mg  Mg65  1  0.83503770  0.66592406  0.75097558  1
  Mg  Mg66  1  0.00293632  0.58550927  0.24996984  1
  Mg  Mg67  1  0.83462221  0.83373298  0.75048350  1
  Mg  Mg68  1  -0.00016102  0.91488098  0.75222039  1
  Mg  Mg69  1  0.66436301  0.41531128  0.25360619  1
  Mg  Mg70  1  0.16726357  0.33742890  0.24762161  1
  Mg  Mg71  1  0.50120599  0.33524011  0.74776366  1
  Mg  Mg72  1  0.83217752  0.33464113  0.74768720  1
  Mg  Mg73  1  0.00002769  0.08414975  0.74998275  1
  Mg  Mg74  1  0.49928548  0.16594956  0.25124992  1
  Mg  Mg75  1  0.33565364  0.41495959  0.74827388  1
  Mg  Mg76  1  0.16503985  0.83339908  0.75149731  1
  Mg  Mg77  1  0.83719491  0.66834727  0.25134513  1
  Mg  Mg78  1  0.49907236  0.82930948  0.74953164  1
  Mg  Mg79  1  0.33569934  0.08381845  0.74804768  1
  Mg  Mg80  1  0.83328852  0.33550246  0.25307512  1
  Mg  Mg81  1  0.66713800  0.58314531  0.25436320  1
  Mg  Mg82  1  0.32934309  0.91279508  0.24903098  1
  Mg  Mg83  1  0.33220130  0.08251290  0.24820883  1
  Mg  Mg84  1  0.00179342  0.41630931  0.75134686  1
  Mg  Mg85  1  0.00067054  0.91309272  0.24633701  1
  Mg  Mg86  1  0.33267301  0.91480849  0.74988216  1
  Mg  Mg87  1  0.50193511  0.16443986  0.74537582  1
  Mg  Mg88  1  0.83262080  0.16623316  0.24714970  1
  Mg  Mg89  1  0.50030876  0.83296229  0.25252004  1
  Mg  Mg90  1  0.49795428  0.66474217  0.25229227  1
  Mg  Mg91  1  0.16317359  0.66869311  0.24883669  1
  Mg  Mg92  1  0.66825680  0.08422869  0.25182756  1
  Mg  Mg93  1  0.66544403  0.08470594  0.74450635  1
  Mg  Mg94  1  0.32740452  0.58221987  0.24853619  1
  Mg  Mg95  1  0.66377944  0.41714976  0.74676122  1
  Fe  Fe96  1  0.47110529  0.08476132  0.38898130  1
  Fe  Fe97  1  0.85337982  0.08591328  0.10574847  1
  Fe  Fe98  1  0.97757862  0.82778552  0.89172457  1
  Fe  Fe99  1  0.69586130  0.16996673  0.60525095  1
  Fe  Fe100  1  0.02340556  0.83430786  0.60938020  1
  Fe  Fe101  1  0.47384708  0.58349251  0.89167264  1
  Fe  Fe102  1  0.36638077  0.33164265  0.11071197  1
  Fe  Fe103  1  0.52606612  0.07831441  0.60563336  1
  Fe  Fe104  1  0.52227646  0.42407245  0.60868135  1
  Fe  Fe105  1  0.18586805  0.08257029  0.10898652  1
  Fe  Fe106  1  0.36021481  0.83721075  0.11081098  1
  Fe  Fe107  1  0.85766480  0.91335025  0.10653443  1
  Fe  Fe108  1  0.30213236  0.66581817  0.89856637  1
  Fe  Fe109  1  0.64595303  0.83025263  0.39192916  1
  Fe  Fe110  1  0.19277914  0.41747516  0.10832927  1
  Fe  Fe111  1  0.19109205  0.58031086  0.60809443  1
  Fe  Fe112  1  0.64344670  0.33705486  0.39253198  1
  Si  Si113  1  0.52460447  0.58129711  0.11887749  1
  Si  Si114  1  0.97277345  0.16844950  0.38384196  1
  Si  Si115  1  0.85739302  0.58456899  0.11616676  1
  Si  Si116  1  0.68946641  0.66356225  0.11850210  1
  Si  Si117  1  0.64338234  0.32850594  0.88439808  1
  Si  Si118  1  0.69316411  0.34009298  0.61067836  1
  Si  Si119  1  0.13789896  0.57318457  0.89034978  1
  Si  Si120  1  0.31060844  0.33050798  0.88414580  1
  Si  Si121  1  0.18912575  0.41078707  0.61228370  1
  Si  Si122  1  0.69339059  0.66637129  0.61444836  1
  Si  Si123  1  0.85372444  0.57950146  0.61434437  1
  Si  Si124  1  0.69487986  0.34078276  0.11726461  1
  Si  Si125  1  0.47096091  0.91125871  0.39074042  1
  Si  Si126  1  0.86332437  0.41398253  0.61467070  1
  Si  Si127  1  0.30149423  0.33559391  0.38660574  1
  Si  Si128  1  0.64351780  0.16511053  0.88412573  1
  Si  Si129  1  0.19498563  0.08379572  0.61445855  1
  Si  Si130  1  0.47551476  0.91839343  0.88417724  1
  Si  Si131  1  0.69382173  0.83267084  0.61547695  1
  Si  Si132  1  0.69020396  0.17748705  0.11385706  1
  Si  Si133  1  0.18604270  0.91489830  0.11140198  1
  Si  Si134  1  0.69427761  0.82618034  0.11393713  1
  Si  Si135  1  0.13963977  0.91933728  0.38282364  1
  Si  Si136  1  0.02344010  0.17189553  0.10928161  1
  Si  Si137  1  0.97646815  0.33344138  0.38563624  1
  Si  Si138  1  0.53301301  0.41958251  0.11526462  1
  Si  Si139  1  0.53405738  0.08361831  0.11623201  1
  Si  Si140  1  0.46727602  0.41861296  0.38955710  1
  Si  Si141  1  0.81491229  0.58387673  0.38744912  1
  Si  Si142  1  0.30451229  0.66743650  0.38502676  1
  Si  Si143  1  0.52207478  0.90769645  0.61235439  1
  Si  Si144  1  0.30568941  0.84365807  0.88843565  1
  Si  Si145  1  0.14200406  0.92533326  0.88993047  1
  Si  Si146  1  0.64490891  0.65865938  0.39017645  1
  Si  Si147  1  0.13726985  0.41853819  0.38486121  1
  Si  Si148  1  0.85866682  0.41956651  0.11627477  1
  Si  Si149  1  0.14130316  0.08997835  0.88591702  1
  Si  Si150  1  0.18781499  0.58725717  0.11358199  1
  Si  Si151  1  0.31134293  0.16573401  0.88439256  1
  Si  Si152  1  0.02316523  0.66724905  0.11531620  1
  Si  Si153  1  0.35795333  0.16751349  0.61161182  1
  Si  Si154  1  0.35730706  0.66820836  0.61250588  1
  Si  Si155  1  0.13933967  0.58408880  0.38401153  1
  Si  Si156  1  0.47832416  0.41108678  0.88748043  1
  Si  Si157  1  0.97216470  0.16848990  0.88487235  1
  Si  Si158  1  0.81137721  0.08252426  0.38468748  1
  Si  Si159  1  0.35761765  0.66528468  0.11529686  1
  Si  Si160  1  0.29959673  0.17008122  0.38710739  1
  Si  Si161  1  0.02008679  0.33498297  0.11195659  1
  Si  Si162  1  0.80530288  0.41664147  0.88435957  1
  Si  Si163  1  0.01448620  0.66888908  0.60820127  1
  Si  Si164  1  0.97621050  0.66891776  0.38535307  1
  Si  Si165  1  0.81510513  0.91833648  0.38747030  1
  Si  Si166  1  0.02811599  0.83053248  0.11357630  1
  Si  Si167  1  0.35839477  0.83288929  0.61682129  1
  Si  Si168  1  0.80535838  0.58292507  0.88642679  1
  Si  Si169  1  0.47739473  0.08347720  0.88442521  1
  Si  Si170  1  0.47058089  0.58401512  0.38657085  1
  Si  Si171  1  0.80470315  0.91670739  0.88579295  1
  Si  Si172  1  0.52213609  0.59300945  0.61181068  1
  Si  Si173  1  0.53417878  0.91773766  0.11332278  1
  Si  Si174  1  0.64858505  0.16505311  0.38973681  1
  Si  Si175  1  0.85389152  0.92342357  0.61193351  1
  Si  Si176  1  0.13481805  0.08417551  0.38354236  1
  Si  Si177  1  0.30112689  0.83219120  0.38418728  1
  Si  Si178  1  0.97792907  0.83377493  0.38358674  1
  Si  Si179  1  0.36108020  0.15861396  0.10978946  1
  Si  Si180  1  0.97396069  0.65958339  0.88862769  1
  Si  Si181  1  0.19587072  0.91861923  0.61259974  1
  Si  Si182  1  0.80866165  0.08192502  0.88333398  1
  Si  Si183  1  0.86446778  0.08713206  0.61251321  1
  Si  Si184  1  0.35634689  0.33091634  0.61162361  1
  Si  Si185  1  0.02604202  0.32757048  0.61556758  1
  Si  Si186  1  0.14225049  0.40960617  0.88658929  1
  Si  Si187  1  0.64004970  0.83629099  0.88435115  1
  Si  Si188  1  0.64503104  0.67124382  0.88803495  1
  Si  Si189  1  0.97185120  0.33335518  0.88511483  1
  Si  Si190  1  0.81486452  0.42058430  0.38997344  1
  Si  Si191  1  0.02953287  0.16328084  0.61530318  1
  O  O192  1  0.28572967  0.10452682  0.07723928  1
  O  O193  1  0.27519835  0.11569342  0.58489153  1
  O  O194  1  0.27323672  0.61709097  0.08708369  1
  O  O195  1  0.28255013  0.61846569  0.57134237  1
  O  O196  1  0.60736239  0.12707982  0.08519545  1
  O  O197  1  0.62042148  0.09997642  0.57037519  1
  O  O198  1  0.60794550  0.61222977  0.09062999  1
  O  O199  1  0.60423504  0.62810016  0.58257785  1
  O  O200  1  0.95111863  0.11687586  0.07423122  1
  O  O201  1  0.95654830  0.10426940  0.58818299  1
  O  O202  1  0.93745488  0.61743087  0.08577292  1
  O  O203  1  0.93043601  0.61482765  0.58300926  1
  O  O204  1  0.09559058  0.35905976  0.07527866  1
  O  O205  1  0.11013884  0.35245341  0.58698925  1
  O  O206  1  0.11682033  0.84964082  0.08732207  1
  O  O207  1  0.11705032  0.87239142  0.57527178  1
  O  O208  1  0.46536282  0.36273380  0.07943562  1
  O  O209  1  0.43399407  0.35745926  0.57767088  1
  O  O210  1  0.45113847  0.87740379  0.07541504  1
  O  O211  1  0.44322843  0.85253627  0.58537299  1
  O  O212  1  0.77907832  0.36626495  0.08693216  1
  O  O213  1  0.78454600  0.36109367  0.58651090  1
  O  O214  1  0.77227704  0.84385318  0.07733231  1
  O  O215  1  0.76738522  0.87584791  0.58524290  1
  O  O216  1  0.27857940  0.38675162  0.06544072  1
  O  O217  1  0.27112821  0.37833267  0.58348202  1
  O  O218  1  0.26764628  0.89492987  0.07736827  1
  O  O219  1  0.28271183  0.89066154  0.58697929  1
  O  O220  1  0.62365580  0.40102009  0.08935152  1
  O  O221  1  0.62713213  0.40346636  0.58398122  1
  O  O222  1  0.61593252  0.88155126  0.08673722  1
  O  O223  1  0.60399826  0.87146585  0.58526570  1
  O  O224  1  0.93904439  0.38987314  0.08552330  1
  O  O225  1  0.94571151  0.37998436  0.58646792  1
  O  O226  1  0.95465496  0.88245707  0.07469935  1
  O  O227  1  0.92908230  0.89469413  0.57633454  1
  O  O228  1  0.10984620  0.15901359  0.08030054  1
  O  O229  1  0.11407892  0.13712315  0.58665699  1
  O  O230  1  0.10505743  0.63939619  0.08431280  1
  O  O231  1  0.09080588  0.63198107  0.57674649  1
  O  O232  1  0.44636550  0.12374905  0.08500104  1
  O  O233  1  0.43575058  0.14359775  0.57759128  1
  O  O234  1  0.44094760  0.62845311  0.09054565  1
  O  O235  1  0.44656474  0.65129511  0.58448359  1
  O  O236  1  0.76732780  0.15591026  0.07731605  1
  O  O237  1  0.80205699  0.14961613  0.58001678  1
  O  O238  1  0.77096608  0.63135443  0.08810350  1
  O  O239  1  0.76609123  0.62265777  0.58272673  1
  O  O240  1  0.05486692  0.11870501  0.41451402  1
  O  O241  1  0.06403044  0.13197906  0.91338448  1
  O  O242  1  0.06284282  0.62343977  0.41616644  1
  O  O243  1  0.04706656  0.59824010  0.91122755  1
  O  O244  1  0.38071660  0.12666832  0.42378029  1
  O  O245  1  0.39726925  0.11942700  0.91375117  1
  O  O246  1  0.39707095  0.63056069  0.41537395  1
  O  O247  1  0.39818085  0.61814082  0.94176731  1
  O  O248  1  0.72956638  0.10880256  0.41513041  1
  O  O249  1  0.72931940  0.11868976  0.91257844  1
  O  O250  1  0.72875137  0.60630601  0.41556410  1
  O  O251  1  0.73215519  0.62426130  0.91826085  1
  O  O252  1  0.22451698  0.37591035  0.41673350  1
  O  O253  1  0.22860011  0.36233239  0.91249266  1
  O  O254  1  0.22633270  0.87563240  0.41394886  1
  O  O255  1  0.23498299  0.89138074  0.91932126  1
  O  O256  1  0.55081088  0.37701263  0.42595149  1
  O  O257  1  0.56159314  0.35778132  0.91370123  1
  O  O258  1  0.55165590  0.86298488  0.42474110  1
  O  O259  1  0.55883410  0.86963998  0.91382237  1
  O  O260  1  0.89809731  0.36844926  0.41632282  1
  O  O261  1  0.89569531  0.37596730  0.91376029  1
  O  O262  1  0.90137999  0.87115153  0.41573790  1
  O  O263  1  0.88067650  0.86664745  0.92085545  1
  O  O264  1  0.06184013  0.37837768  0.41734501  1
  O  O265  1  0.06328898  0.36948044  0.91470122  1
  O  O266  1  0.06325175  0.88030692  0.41417253  1
  O  O267  1  0.06989912  0.88806755  0.92374092  1
  O  O268  1  0.38645385  0.38076686  0.41726787  1
  O  O269  1  0.39690318  0.37329683  0.91477821  1
  O  O270  1  0.38890801  0.87269520  0.41678604  1
  O  O271  1  0.39573623  0.88830390  0.91477912  1
  O  O272  1  0.73885750  0.39670702  0.42631548  1
  O  O273  1  0.72986621  0.37443097  0.91433505  1
  O  O274  1  0.74124197  0.88850836  0.42456291  1
  O  O275  1  0.71750233  0.89185988  0.91212659  1
  O  O276  1  0.21581859  0.13500417  0.41367802  1
  O  O277  1  0.23008951  0.13306145  0.91287699  1
  O  O278  1  0.23020113  0.62295078  0.41445383  1
  O  O279  1  0.21011918  0.62319267  0.93193176  1
  O  O280  1  0.56961284  0.13628425  0.42144160  1
  O  O281  1  0.56330064  0.13000548  0.91373531  1
  O  O282  1  0.56356462  0.61999016  0.41643533  1
  O  O283  1  0.57302399  0.63900770  0.92494963  1
  O  O284  1  0.89147604  0.13664622  0.41319879  1
  O  O285  1  0.89553034  0.12696131  0.91282238  1
  O  O286  1  0.89517273  0.63650742  0.41719859  1
  O  O287  1  0.89317427  0.62271158  0.91808529  1
  O  O288  1  0.14556501  -0.00909023  0.08000949  1
  O  O289  1  0.17768458  0.00298865  0.58440645  1
  O  O290  1  0.16305076  0.51127434  0.07760458  1
  O  O291  1  0.16358877  0.48521753  0.57453601  1
  O  O292  1  0.53262141  0.00188231  0.08563556  1
  O  O293  1  0.49596130  -0.01626700  0.57726196  1
  O  O294  1  0.50872450  0.50146796  0.08605313  1
  O  O295  1  0.49648894  0.51708564  0.57385667  1
  O  O296  1  0.81856869  -0.00056146  0.06635924  1
  O  O297  1  0.83255340  0.00689580  0.58545391  1
  O  O298  1  0.83849851  0.50184759  0.08734333  1
  O  O299  1  0.84531987  0.49561649  0.58522008  1
  O  O300  1  -0.01377516  0.25415775  0.08754108  1
  O  O301  1  0.00396267  0.24489170  0.58668678  1
  O  O302  1  0.00106879  0.74775308  0.08602558  1
  O  O303  1  -0.00850197  0.74539088  0.56934208  1
  O  O304  1  0.34842983  0.23696979  0.07469051  1
  O  O305  1  0.32661340  0.24868180  0.58679900  1
  O  O306  1  0.34443090  0.74236019  0.07925573  1
  O  O307  1  0.33072421  0.75259188  0.58857410  1
  O  O308  1  0.66370653  0.26113199  0.08844898  1
  O  O309  1  0.66190299  0.26390188  0.57732492  1
  O  O310  1  0.66333349  0.74351186  0.08958688  1
  O  O311  1  0.69200585  0.74987081  0.58668243  1
  O  O312  1  0.14939063  0.00225115  0.41457314  1
  O  O313  1  0.14992326  0.01003427  0.91708094  1
  O  O314  1  0.14477037  0.50122684  0.41391704  1
  O  O315  1  0.15190819  0.48855587  0.92062166  1
  O  O316  1  0.48040542  -0.00906602  0.42339142  1
  O  O317  1  0.49350535  0.00154424  0.91373285  1
  O  O318  1  0.47046930  0.50312464  0.41806994  1
  O  O319  1  0.50014638  0.48684067  0.92340846  1
  O  O320  1  0.83948319  0.00196586  0.41300652  1
  O  O321  1  0.82159707  0.00070208  0.91240234  1
  O  O322  1  0.84468848  0.50320843  0.41474575  1
  O  O323  1  0.80989822  0.49861752  0.91422701  1
  O  O324  1  0.30507959  0.25358716  0.41734901  1
  O  O325  1  0.32555620  0.24765366  0.91309073  1
  O  O326  1  0.30554559  0.74951882  0.41517955  1
  O  O327  1  0.31341457  0.76579554  0.92251011  1
  O  O328  1  0.67794017  0.24329757  0.42072977  1
  O  O329  1  0.66107668  0.24647086  0.91480581  1
  O  O330  1  0.66505448  0.73520637  0.42619160  1
  O  O331  1  0.66400917  0.75591885  0.91434781  1
  O  O332  1  0.99013023  0.25045666  0.41460101  1
  O  O333  1  0.97250390  0.25074768  0.91414766  1
  O  O334  1  0.99090369  0.75142065  0.41373105  1
  O  O335  1  0.99727233  0.73440107  0.92839279  1
  O  O336  1  0.21029378  0.08338432  0.20123037  1
  O  O337  1  0.21085942  0.08462820  0.69521660  1
  O  O338  1  0.20799727  0.58737831  0.19380286  1
  O  O339  1  0.21791484  0.57145788  0.69731598  1
  O  O340  1  0.54942397  0.08227102  0.19634346  1
  O  O341  1  0.54451604  0.08216388  0.69867291  1
  O  O342  1  0.54446439  0.58209313  0.19947167  1
  O  O343  1  0.54734723  0.58218914  0.69116751  1
  O  O344  1  0.87598891  0.08511889  0.19862270  1
  O  O345  1  0.88000711  0.08571158  0.69407802  1
  O  O346  1  0.87523532  0.58332408  0.19635760  1
  O  O347  1  0.86579604  0.58055561  0.69384646  1
  O  O348  1  0.04031455  0.33595702  0.19314933  1
  O  O349  1  0.04335432  0.32818503  0.69607976  1
  O  O350  1  0.04059421  0.83449146  0.19281077  1
  O  O351  1  0.04385112  0.83881963  0.70033153  1
  O  O352  1  0.37667059  0.33360809  0.20156597  1
  O  O353  1  0.37650281  0.33128032  0.69308927  1
  O  O354  1  0.38116935  0.83260130  0.20243822  1
  O  O355  1  0.38071680  0.84060565  0.69591350  1
  O  O356  1  0.71480797  0.33784169  0.19742974  1
  O  O357  1  0.71188974  0.33538117  0.69285696  1
  O  O358  1  0.71270038  0.83014677  0.19494225  1
  O  O359  1  0.71128202  0.83376476  0.69585432  1
  O  O360  1  0.21238552  0.41548214  0.19931489  1
  O  O361  1  0.20991818  0.41006148  0.69323669  1
  O  O362  1  0.21058907  0.91875826  0.19195595  1
  O  O363  1  0.21026689  0.92215924  0.69345949  1
  O  O364  1  0.54811004  0.42263345  0.19522695  1
  O  O365  1  0.54396348  0.41728829  0.70081144  1
  O  O366  1  0.54550399  0.91686768  0.19416840  1
  O  O367  1  0.54389010  0.91430650  0.69330808  1
  O  O368  1  0.87582848  0.41856493  0.19681552  1
  O  O369  1  0.87949092  0.41469431  0.69519165  1
  O  O370  1  0.87725743  0.91683402  0.19901734  1
  O  O371  1  0.87379685  0.92080015  0.69298818  1
  O  O372  1  0.04042076  0.16838338  0.19136777  1
  O  O373  1  0.04619062  0.16620434  0.69598184  1
  O  O374  1  0.04191834  0.66309878  0.19458744  1
  O  O375  1  0.03069037  0.67679827  0.68714586  1
  O  O376  1  0.37518391  0.16384022  0.19100678  1
  O  O377  1  0.37644854  0.16556325  0.69314830  1
  O  O378  1  0.37646502  0.66554255  0.19640167  1
  O  O379  1  0.37487205  0.65894281  0.69095647  1
  O  O380  1  0.70995099  0.17098403  0.19469137  1
  O  O381  1  0.71251974  0.16737394  0.69870514  1
  O  O382  1  0.71036711  0.66367465  0.19900316  1
  O  O383  1  0.71056450  0.66617904  0.69483957  1
  O  O384  1  0.11736051  0.08528844  0.30366770  1
  O  O385  1  0.12362493  0.08749599  0.80516263  1
  O  O386  1  0.12068454  0.58568616  0.30490997  1
  O  O387  1  0.13062011  0.56934069  0.81208475  1
  O  O388  1  0.45360629  0.08185679  0.29746250  1
  O  O389  1  0.45718655  0.08440262  0.80430642  1
  O  O390  1  0.45519949  0.58353255  0.30635061  1
  O  O391  1  0.45587094  0.57779834  0.80133069  1
  O  O392  1  0.79162624  0.08414649  0.30431515  1
  O  O393  1  0.79131062  0.08353553  0.80304411  1
  O  O394  1  0.79343020  0.58460298  0.30696046  1
  O  O395  1  0.78882143  0.58260924  0.80609097  1
  O  O396  1  0.28590367  0.33293740  0.30708875  1
  O  O397  1  0.29169123  0.32907378  0.80350728  1
  O  O398  1  0.28856064  0.83171192  0.30498446  1
  O  O399  1  0.28426049  0.84626938  0.80858057  1
  O  O400  1  0.62542782  0.33478602  0.30196753  1
  O  O401  1  0.62716670  0.32985196  0.80413154  1
  O  O402  1  0.62367473  0.83190986  0.30014980  1
  O  O403  1  0.62377471  0.83589699  0.80405112  1
  O  O404  1  0.95760959  0.33433572  0.30527844  1
  O  O405  1  0.95549891  0.33148305  0.80471666  1
  O  O406  1  0.95702921  0.83459901  0.30451387  1
  O  O407  1  0.95183979  0.83515028  0.80038474  1
  O  O408  1  0.11789604  0.41336414  0.30579326  1
  O  O409  1  0.12335931  0.40918256  0.80616178  1
  O  O410  1  0.12027628  0.92190454  0.30376858  1
  O  O411  1  0.12323124  0.92468634  0.80884203  1
  O  O412  1  0.45318557  0.42068975  0.30975302  1
  O  O413  1  0.45771648  0.41073325  0.80678911  1
  O  O414  1  0.45804381  0.91414464  0.30950287  1
  O  O415  1  0.45850230  0.91993970  0.80397246  1
  O  O416  1  0.79430271  0.41852647  0.30893910  1
  O  O417  1  0.78815076  0.41491182  0.80408987  1
  O  O418  1  0.79185525  0.91620994  0.30690012  1
  O  O419  1  0.78896154  0.91769800  0.80460238  1
  O  O420  1  0.28677529  0.16918317  0.30667911  1
  O  O421  1  0.29290120  0.16560450  0.80376618  1
  O  O422  1  0.28943296  0.66595110  0.30518745  1
  O  O423  1  0.29699494  0.65367161  0.81244249  1
  O  O424  1  0.62838307  0.16468162  0.30811133  1
  O  O425  1  0.62380373  0.16697955  0.80424252  1
  O  O426  1  0.62530618  0.66342355  0.30927799  1
  O  O427  1  0.63151636  0.66784981  0.80809241  1
  O  O428  1  0.95689875  0.17008464  0.30382241  1
  O  O429  1  0.95611043  0.16745522  0.80423508  1
  O  O430  1  0.95466515  0.66199161  0.30641359  1
  O  O431  1  0.94992494  0.67156704  0.80939929  1
  F  F432  1  0.04347184  0.00090372  0.20021204  1
  F  F433  1  0.04643187  0.00316714  0.70370310  1
  F  F434  1  0.03546440  0.50113583  0.19908588  1
  F  F435  1  0.05066805  0.48591101  0.69883113  1
  F  F436  1  0.37931321  -0.00489062  0.20202026  1
  F  F437  1  0.37830756  0.00127989  0.70185968  1
  F  F438  1  0.38012049  0.50159802  0.20239251  1
  F  F439  1  0.38053062  0.49290751  0.70020845  1
  F  F440  1  0.71223515  -0.00028638  0.20409495  1
  F  F441  1  0.71251927  -0.00114325  0.70143764  1
  F  F442  1  0.71419579  0.50085586  0.20704449  1
  F  F443  1  0.71312290  0.50069511  0.70376513  1
  F  F444  1  0.21169324  0.25075198  0.20265946  1
  F  F445  1  0.21199933  0.24754092  0.70212718  1
  F  F446  1  0.21404605  0.74473158  0.19943740  1
  F  F447  1  0.20409866  0.76483676  0.69354477  1
  F  F448  1  0.54769879  0.24219181  0.20173700  1
  F  F449  1  0.54551225  0.25023969  0.70105616  1
  F  F450  1  0.54580952  0.74500598  0.20419513  1
  F  F451  1  0.55071956  0.75555523  0.69844071  1
  F  F452  1  0.87747898  0.25382386  0.20250615  1
  F  F453  1  0.88107156  0.25065225  0.70205297  1
  F  F454  1  0.87135102  0.74739665  0.20014522  1
  F  F455  1  0.87251874  0.74966412  0.70037379  1
  F  F456  1  0.28776923  -0.00250062  0.29889296  1
  F  F457  1  0.28929877  0.00457266  0.79784142  1
  F  F458  1  0.29258430  0.50152526  0.30031854  1
  F  F459  1  0.28977755  0.48725517  0.80073062  1
  F  F460  1  0.62326283  -0.00161270  0.29889714  1
  F  F461  1  0.62308843  -0.00036069  0.79722282  1
  F  F462  1  0.62222419  0.50080923  0.30236023  1
  F  F463  1  0.62502752  0.50045191  0.79964740  1
  F  F464  1  0.95760465  0.00182466  0.29890390  1
  F  F465  1  0.95368944  0.00332377  0.79804510  1
  F  F466  1  0.95548907  0.49987304  0.29985365  1
  F  F467  1  0.94841295  0.48759225  0.80249524  1
  F  F468  1  0.11871404  0.25087817  0.29534473  1
  F  F469  1  0.12278522  0.24820922  0.79896808  1
  F  F470  1  0.12385218  0.74616925  0.30093007  1
  F  F471  1  0.11618134  0.75975108  0.80507984  1
  F  F472  1  0.45141235  0.24145425  0.30208332  1
  F  F473  1  0.45607542  0.24763607  0.79559687  1
  F  F474  1  0.45555606  0.74626420  0.30138024  1
  F  F475  1  0.46976597  0.75466038  0.80595634  1
  F  F476  1  0.79041706  0.25039287  0.29850050  1
  F  F477  1  0.79056176  0.25184057  0.79813876  1
  F  F478  1  0.78915422  0.74939395  0.30038364  1
  F  F479  1  0.78582144  0.75046960  0.79723886  1
