# generated using pymatgen
data_K24Na3Li5Mg64Fe17Si79(O5F)48
_symmetry_space_group_name_H-M   'P 1'
_cell_length_a   16.10586924
_cell_length_b   18.61387589
_cell_length_c   20.59681694
_cell_angle_alpha   90.02450473
_cell_angle_beta   100.03967846
_cell_angle_gamma   89.96001420
_symmetry_Int_Tables_number   1
_chemical_formula_structural   K24Na3Li5Mg64Fe17Si79(O5F)48
_chemical_formula_sum   'K24 Na3 Li5 Mg64 Fe17 Si79 O240 F48'
_cell_volume   6080.21987851
_cell_formula_units_Z   1
loop_
 _symmetry_equiv_pos_site_id
 _symmetry_equiv_pos_as_xyz
  1  'x, y, z'
loop_
 _atom_site_type_symbol
 _atom_site_label
 _atom_site_symmetry_multiplicity
 _atom_site_fract_x
 _atom_site_fract_y
 _atom_site_fract_z
 _atom_site_occupancy
  K  K0  1  0.01043911  -0.00416839  0.00380287  1
  K  K1  1  0.01430890  -0.00262426  0.49654719  1
  K  K2  1  -0.00605601  0.50416068  0.00159308  1
  K  K3  1  0.00018394  0.50449891  0.49607738  1
  K  K4  1  0.33238403  -0.01451926  0.00823655  1
  K  K5  1  0.32341790  -0.01239633  0.48535739  1
  K  K6  1  0.33683048  0.50002746  0.00721398  1
  K  K7  1  0.33562030  0.51268504  0.49560243  1
  K  K8  1  0.66340726  -0.00355122  0.00580497  1
  K  K9  1  0.65911302  -0.00396383  0.48976040  1
  K  K10  1  0.67591667  0.49921757  0.00508873  1
  K  K11  1  0.66309128  0.49837619  0.49196820  1
  K  K12  1  0.16194066  0.25096341  0.00474358  1
  K  K13  1  0.15566038  0.25333442  0.50054939  1
  K  K14  1  0.16945473  0.73744156  0.01112877  1
  K  K15  1  0.16828787  0.74544945  0.48612685  1
  K  K16  1  0.49270006  0.26545266  0.00466048  1
  K  K17  1  0.50051572  0.25566956  0.49528641  1
  K  K18  1  0.48912943  0.73835245  0.01494769  1
  K  K19  1  0.49448988  0.74051776  0.49450157  1
  K  K20  1  0.83290704  0.26018263  0.01150619  1
  K  K21  1  0.83402686  0.27084662  0.49920729  1
  K  K22  1  0.84325235  0.74636569  0.00606813  1
  K  K23  1  0.82788243  0.74335530  0.49208629  1
  Na  Na24  1  0.50290126  0.49894350  0.25607729  1
  Na  Na25  1  0.50177138  0.66899161  0.24986336  1
  Na  Na26  1  0.16829791  0.67472670  0.25496875  1
  Li  Li27  1  0.33134934  0.74712804  0.74850522  1
  Li  Li28  1  0.66057264  0.74618254  0.24960669  1
  Li  Li29  1  0.50571456  0.34150288  0.25670037  1
  Li  Li30  1  0.32491940  0.90598851  0.24549325  1
  Li  Li31  1  0.17346206  0.83346864  0.25303879  1
  Mg  Mg32  1  0.00117422  0.74789518  0.75210498  1
  Mg  Mg33  1  0.66355453  0.25177909  0.24953615  1
  Mg  Mg34  1  0.16553756  0.50118888  0.25179658  1
  Mg  Mg35  1  0.49863448  0.50176323  0.74776898  1
  Mg  Mg36  1  0.83211068  0.50097598  0.24977578  1
  Mg  Mg37  1  0.16896043  -0.00261002  0.74582415  1
  Mg  Mg38  1  0.83253640  0.49853276  0.75135318  1
  Mg  Mg39  1  0.83498922  -0.00013221  0.75124619  1
  Mg  Mg40  1  0.00297310  0.75280961  0.25277097  1
  Mg  Mg41  1  0.66645680  0.74923597  0.74928133  1
  Mg  Mg42  1  0.83289244  -0.00299115  0.24740381  1
  Mg  Mg43  1  0.66684910  0.25129748  0.75212596  1
  Mg  Mg44  1  0.33972417  0.25387336  0.25373355  1
  Mg  Mg45  1  0.00070533  0.25370973  0.74934796  1
  Mg  Mg46  1  0.16347257  0.50117583  0.75317125  1
  Mg  Mg47  1  0.49553143  -0.00238505  0.24563857  1
  Mg  Mg48  1  0.33116661  0.25157645  0.75214007  1
  Mg  Mg49  1  -0.00068227  0.24963019  0.24711085  1
  Mg  Mg50  1  0.33205458  0.75320278  0.24948361  1
  Mg  Mg51  1  0.17188517  -0.00362704  0.24834254  1
  Mg  Mg52  1  0.49997016  -0.00134641  0.74938263  1
  Mg  Mg53  1  0.83084218  0.83204443  0.24858862  1
  Mg  Mg54  1  0.66518506  0.41665769  0.25365377  1
  Mg  Mg55  1  0.49793656  0.83182228  0.74818263  1
  Mg  Mg56  1  0.00103255  0.58477710  0.75456677  1
  Mg  Mg57  1  0.00206132  0.08376388  0.74994991  1
  Mg  Mg58  1  0.66724887  0.91582113  0.75101683  1
  Mg  Mg59  1  0.66585261  0.08250306  0.24907489  1
  Mg  Mg60  1  0.49598190  0.66671106  0.74638183  1
  Mg  Mg61  1  0.66667809  0.08409050  0.75153122  1
  Mg  Mg62  1  0.16994177  0.16580726  0.24995946  1
  Mg  Mg63  1  0.83052467  0.66861003  0.25080394  1
  Mg  Mg64  1  0.50194157  0.16754515  0.25066771  1
  Mg  Mg65  1  0.33230093  0.91322620  0.74530817  1
  Mg  Mg66  1  0.83567415  0.16619935  0.75295645  1
  Mg  Mg67  1  0.83510909  0.66541639  0.75364621  1
  Mg  Mg68  1  0.17117936  0.83166654  0.74609590  1
  Mg  Mg69  1  0.33421804  0.58427168  0.25268359  1
  Mg  Mg70  1  0.16847707  0.66598053  0.75331892  1
  Mg  Mg71  1  0.00366411  0.91383872  0.74952632  1
  Mg  Mg72  1  0.66305269  0.91259698  0.24622505  1
  Mg  Mg73  1  0.16640115  0.16602286  0.74823963  1
  Mg  Mg74  1  0.83608976  0.33715439  0.75087734  1
  Mg  Mg75  1  0.33678396  0.41754844  0.25352333  1
  Mg  Mg76  1  0.66684045  0.41593994  0.74918118  1
  Mg  Mg77  1  0.83109830  0.33555470  0.24847897  1
  Mg  Mg78  1  0.16470150  0.33720159  0.75079805  1
  Mg  Mg79  1  -0.00025425  0.41500404  0.75215293  1
  Mg  Mg80  1  -0.00160425  0.41715272  0.24936081  1
  Mg  Mg81  1  0.49808359  0.33572762  0.75207958  1
  Mg  Mg82  1  0.00326323  0.08163074  0.24983808  1
  Mg  Mg83  1  0.33466862  0.08242138  0.24785218  1
  Mg  Mg84  1  0.49895598  0.16623646  0.75067143  1
  Mg  Mg85  1  0.49747573  0.83282744  0.24714677  1
  Mg  Mg86  1  0.66802059  0.58633789  0.25212003  1
  Mg  Mg87  1  0.16772860  0.33386369  0.25174445  1
  Mg  Mg88  1  0.83305714  0.16467009  0.24817237  1
  Mg  Mg89  1  0.33141277  0.58726863  0.74892053  1
  Mg  Mg90  1  0.00447194  0.91451827  0.24894042  1
  Mg  Mg91  1  0.33246359  0.08348451  0.74864376  1
  Mg  Mg92  1  0.83611360  0.83423284  0.75329379  1
  Mg  Mg93  1  0.66443615  0.58411783  0.74924442  1
  Mg  Mg94  1  0.32964259  0.41670349  0.75088707  1
  Mg  Mg95  1  -0.00029572  0.58685137  0.25014095  1
  Fe  Fe96  1  0.35372146  0.82795532  0.10727943  1
  Fe  Fe97  1  0.30586140  0.32929275  0.89119046  1
  Fe  Fe98  1  0.85376117  0.42371584  0.60779751  1
  Fe  Fe99  1  0.02643288  0.33929076  0.60674499  1
  Fe  Fe100  1  0.47023740  0.41940239  0.39679134  1
  Fe  Fe101  1  0.52591661  0.58218995  0.60827856  1
  Fe  Fe102  1  0.14740913  0.58529633  0.89566510  1
  Fe  Fe103  1  0.64120210  0.32996108  0.39196748  1
  Fe  Fe104  1  0.14003625  0.41587910  0.89489164  1
  Fe  Fe105  1  0.97183042  0.67099315  0.89413241  1
  Fe  Fe106  1  0.80166271  0.41558331  0.89096125  1
  Fe  Fe107  1  0.14315731  0.91512795  0.38586953  1
  Fe  Fe108  1  0.80498098  0.58610536  0.38866467  1
  Fe  Fe109  1  0.14295059  0.57928420  0.39093584  1
  Fe  Fe110  1  0.85818747  0.42083525  0.10986088  1
  Fe  Fe111  1  0.19241837  0.91471834  0.60598382  1
  Fe  Fe112  1  0.97172497  0.32712667  0.89470282  1
  Si  Si113  1  0.30272090  0.33166872  0.38862257  1
  Si  Si114  1  0.35536951  0.65706726  0.11249926  1
  Si  Si115  1  0.64112595  0.67153629  0.38809743  1
  Si  Si116  1  0.02603228  0.67005921  0.11585092  1
  Si  Si117  1  0.47534432  0.58893367  0.38959671  1
  Si  Si118  1  0.85793297  0.91461027  0.11142286  1
  Si  Si119  1  0.47552780  0.91732716  0.38274177  1
  Si  Si120  1  0.31152706  0.67126073  0.88655570  1
  Si  Si121  1  0.97397981  0.67142287  0.38804953  1
  Si  Si122  1  0.36572496  0.83606835  0.61124689  1
  Si  Si123  1  0.64362684  0.83078923  0.88500571  1
  Si  Si124  1  0.69310312  0.83758174  0.61629663  1
  Si  Si125  1  0.46804550  0.42163804  0.88571079  1
  Si  Si126  1  0.69134739  0.32597602  0.61478996  1
  Si  Si127  1  0.81108483  0.41661265  0.38745805  1
  Si  Si128  1  0.47512982  0.08165370  0.38360176  1
  Si  Si129  1  0.19024893  0.57803036  0.11748493  1
  Si  Si130  1  0.85712418  0.59245240  0.11099071  1
  Si  Si131  1  0.18898286  0.08644362  0.61185099  1
  Si  Si132  1  0.63891803  0.83721497  0.38338773  1
  Si  Si133  1  0.53066606  0.57945570  0.11435628  1
  Si  Si134  1  0.97092140  0.32831601  0.38258777  1
  Si  Si135  1  0.80685023  0.91933350  0.88661144  1
  Si  Si136  1  0.69541992  0.67321477  0.61444520  1
  Si  Si137  1  0.80090819  0.58780603  0.88813491  1
  Si  Si138  1  0.69059379  0.16112573  0.61619577  1
  Si  Si139  1  0.02515935  0.16490454  0.11405448  1
  Si  Si140  1  0.63935102  0.16839745  0.88637860  1
  Si  Si141  1  0.31368006  0.16036796  0.88682215  1
  Si  Si142  1  0.02238974  0.82786064  0.61225890  1
  Si  Si143  1  0.02308678  0.66354353  0.61612643  1
  Si  Si144  1  0.20011017  0.41981327  0.61154002  1
  Si  Si145  1  0.62968525  0.33466606  0.88726300  1
  Si  Si146  1  0.52406407  0.08423034  0.11382950  1
  Si  Si147  1  0.52590065  0.41002970  0.61433080  1
  Si  Si148  1  0.52924158  0.41489438  0.11563920  1
  Si  Si149  1  0.68886162  0.67064281  0.11314978  1
  Si  Si150  1  0.35566298  0.67015682  0.61240544  1
  Si  Si151  1  0.97907984  0.84253954  0.88920391  1
  Si  Si152  1  0.80591854  0.08409421  0.88703826  1
  Si  Si153  1  0.52847937  0.91727021  0.61484936  1
  Si  Si154  1  0.31167608  0.16808962  0.38379256  1
  Si  Si155  1  0.35704245  0.16742731  0.61521343  1
  Si  Si156  1  0.02054289  0.16716338  0.61289961  1
  Si  Si157  1  0.63528434  0.66688986  0.88402684  1
  Si  Si158  1  0.35957569  0.16983115  0.11487247  1
  Si  Si159  1  0.85843875  0.08029750  0.61583158  1
  Si  Si160  1  0.85883472  0.08104399  0.11297334  1
  Si  Si161  1  0.31451961  0.83377183  0.88187305  1
  Si  Si162  1  0.31324266  0.83239653  0.38649020  1
  Si  Si163  1  0.02950492  0.33126524  0.11349262  1
  Si  Si164  1  0.14551623  0.08636998  0.38522290  1
  Si  Si165  1  0.69157836  0.16366350  0.11383053  1
  Si  Si166  1  0.97150292  0.83615239  0.38441578  1
  Si  Si167  1  0.98035708  0.15618513  0.88862195  1
  Si  Si168  1  0.85400793  0.59003313  0.61580632  1
  Si  Si169  1  0.52448898  0.91829056  0.10908905  1
  Si  Si170  1  0.19403055  0.41428011  0.11743699  1
  Si  Si171  1  0.02422996  0.83511789  0.11327639  1
  Si  Si172  1  0.68939915  0.32957659  0.11131109  1
  Si  Si173  1  0.36082508  0.33587134  0.11756383  1
  Si  Si174  1  0.19155030  0.58605540  0.61485430  1
  Si  Si175  1  0.36203420  0.33213213  0.61606748  1
  Si  Si176  1  0.18888353  0.92016221  0.10998691  1
  Si  Si177  1  0.69118494  0.83628398  0.11236199  1
  Si  Si178  1  0.64648051  0.15932286  0.38725212  1
  Si  Si179  1  0.47245130  0.58549161  0.88415251  1
  Si  Si180  1  0.97447784  0.16370328  0.38294356  1
  Si  Si181  1  0.19291743  0.08530061  0.11262086  1
  Si  Si182  1  0.14903062  0.91496333  0.88311085  1
  Si  Si183  1  0.14723075  0.07836520  0.88296087  1
  Si  Si184  1  0.13799764  0.40812623  0.38702949  1
  Si  Si185  1  0.80618882  0.91335887  0.38254744  1
  Si  Si186  1  0.52255043  0.08225299  0.61538416  1
  Si  Si187  1  0.47905268  0.91519288  0.88388282  1
  Si  Si188  1  0.31489146  0.66952009  0.38878510  1
  Si  Si189  1  0.47727817  0.07859281  0.88475955  1
  Si  Si190  1  0.85996314  0.91490289  0.61594949  1
  Si  Si191  1  0.81114176  0.07705035  0.38310964  1
  O  O192  1  0.26990840  0.12809392  0.08449945  1
  O  O193  1  0.27151387  0.12275166  0.58541903  1
  O  O194  1  0.26782952  0.61016091  0.08320499  1
  O  O195  1  0.26483297  0.62940534  0.58462999  1
  O  O196  1  0.60388718  0.12028765  0.08413332  1
  O  O197  1  0.60564557  0.11240607  0.58723206  1
  O  O198  1  0.60183572  0.62602652  0.07985234  1
  O  O199  1  0.62094499  0.62216871  0.57831718  1
  O  O200  1  0.93687565  0.12076975  0.08439502  1
  O  O201  1  0.93962728  0.11131269  0.58701365  1
  O  O202  1  0.93463483  0.63428086  0.08179151  1
  O  O203  1  0.94093870  0.61368584  0.58829899  1
  O  O204  1  0.11541128  0.35999332  0.08865705  1
  O  O205  1  0.12568748  0.36875687  0.57483988  1
  O  O206  1  0.09337874  0.88448097  0.08324532  1
  O  O207  1  0.09670661  0.85747201  0.57640647  1
  O  O208  1  0.43697344  0.37549682  0.08693257  1
  O  O209  1  0.44748131  0.35367555  0.58857897  1
  O  O210  1  0.44269181  0.87638810  0.07176748  1
  O  O211  1  0.45401429  0.86177632  0.58428558  1
  O  O212  1  0.76049086  0.36662030  0.07624779  1
  O  O213  1  0.76758105  0.35395772  0.58141648  1
  O  O214  1  0.76914338  0.87385460  0.07960958  1
  O  O215  1  0.77380867  0.86988997  0.58681685  1
  O  O216  1  0.27441493  0.38070528  0.08729428  1
  O  O217  1  0.28741101  0.38884027  0.58724060  1
  O  O218  1  0.25410077  0.88033910  0.07043594  1
  O  O219  1  0.29280986  0.88997684  0.57660547  1
  O  O220  1  0.59743370  0.36697953  0.08124832  1
  O  O221  1  0.60573269  0.37216159  0.58803130  1
  O  O222  1  0.60870651  0.88602318  0.08144019  1
  O  O223  1  0.61466631  0.89263609  0.58781307  1
  O  O224  1  0.94941951  0.37659893  0.07858898  1
  O  O225  1  0.94243596  0.39905560  0.56567346  1
  O  O226  1  0.93209238  0.87378646  0.07971105  1
  O  O227  1  0.93653093  0.87765226  0.58596702  1
  O  O228  1  0.10296399  0.12747532  0.08375845  1
  O  O229  1  0.10551753  0.13700377  0.58615722  1
  O  O230  1  0.10370726  0.62603548  0.09046073  1
  O  O231  1  0.10239100  0.62827754  0.58632945  1
  O  O232  1  0.43689839  0.12942279  0.08492338  1
  O  O233  1  0.43883410  0.13141703  0.58719222  1
  O  O234  1  0.43594222  0.61394540  0.08681733  1
  O  O235  1  0.42803314  0.63585614  0.57633321  1
  O  O236  1  0.76915478  0.12266301  0.08373949  1
  O  O237  1  0.77032874  0.12424408  0.58740457  1
  O  O238  1  0.76992779  0.63929818  0.08197320  1
  O  O239  1  0.78683418  0.65688523  0.59229431  1
  O  O240  1  0.06292516  0.12263123  0.41254718  1
  O  O241  1  0.06148785  0.09989825  0.91185377  1
  O  O242  1  0.05249871  0.62231251  0.42369983  1
  O  O243  1  0.05553787  0.61122418  0.93515303  1
  O  O244  1  0.39635831  0.11959232  0.41296746  1
  O  O245  1  0.39196930  0.10190689  0.91226442  1
  O  O246  1  0.39824788  0.62334778  0.42399994  1
  O  O247  1  0.39300182  0.61736500  0.91534391  1
  O  O248  1  0.72770633  0.10336554  0.41227113  1
  O  O249  1  0.72962284  0.12722899  0.91507795  1
  O  O250  1  0.71759786  0.62426937  0.42971678  1
  O  O251  1  0.71045110  0.61144830  0.91302819  1
  O  O252  1  0.21009210  0.34544052  0.41102821  1
  O  O253  1  0.21050543  0.33900952  0.92669355  1
  O  O254  1  0.24059305  0.86513140  0.42435885  1
  O  O255  1  0.23173937  0.86485842  0.91164866  1
  O  O256  1  0.55639294  0.35876180  0.43566549  1
  O  O257  1  0.54215158  0.36129596  0.91139702  1
  O  O258  1  0.56436752  0.87690933  0.41685395  1
  O  O259  1  0.56464964  0.86861757  0.91368294  1
  O  O260  1  0.89020581  0.35831956  0.41088011  1
  O  O261  1  0.87210484  0.34215272  0.92532312  1
  O  O262  1  0.88328784  0.85951456  0.41202654  1
  O  O263  1  0.90069878  0.88800035  0.91537915  1
  O  O264  1  0.05406398  0.37491079  0.41343192  1
  O  O265  1  0.04394464  0.39915019  0.93117501  1
  O  O266  1  0.04344456  0.89127652  0.41824357  1
  O  O267  1  0.06501649  0.89207714  0.91353969  1
  O  O268  1  0.36979017  0.38703204  0.42750522  1
  O  O269  1  0.38942475  0.40045948  0.92046401  1
  O  O270  1  0.40035548  0.88051524  0.41497315  1
  O  O271  1  0.39594593  0.88667036  0.91185621  1
  O  O272  1  0.73589776  0.38802330  0.42354845  1
  O  O273  1  0.70188493  0.38736886  0.92236551  1
  O  O274  1  0.72376379  0.88688972  0.41319651  1
  O  O275  1  0.73153275  0.87503125  0.91439503  1
  O  O276  1  0.22865261  0.13816917  0.41209822  1
  O  O277  1  0.22829025  0.12919341  0.91302135  1
  O  O278  1  0.23705926  0.63829870  0.42131588  1
  O  O279  1  0.23426906  0.65466927  0.92381612  1
  O  O280  1  0.56456362  0.12184813  0.41431797  1
  O  O281  1  0.56182292  0.12670096  0.91441808  1
  O  O282  1  0.55335126  0.64700830  0.41285986  1
  O  O283  1  0.55152242  0.63991678  0.91239418  1
  O  O284  1  0.89599460  0.12483634  0.41177954  1
  O  O285  1  0.89867925  0.11731568  0.91631730  1
  O  O286  1  0.89184576  0.65106267  0.42002501  1
  O  O287  1  0.86629383  0.65046765  0.91786776  1
  O  O288  1  0.18077632  0.00549906  0.07902652  1
  O  O289  1  0.16911992  0.00991234  0.57672121  1
  O  O290  1  0.17250524  0.49522396  0.08742053  1
  O  O291  1  0.18724226  0.50395765  0.58463737  1
  O  O292  1  0.51572745  0.00348297  0.08127629  1
  O  O293  1  0.50582348  -0.00024853  0.58701269  1
  O  O294  1  0.52684609  0.49653718  0.08244870  1
  O  O295  1  0.50425588  0.48673036  0.58000386  1
  O  O296  1  0.85026541  -0.00124994  0.08235099  1
  O  O297  1  0.84380232  -0.00256049  0.58753137  1
  O  O298  1  0.84420076  0.51460536  0.07575366  1
  O  O299  1  0.81581152  0.51751980  0.58033054  1
  O  O300  1  0.01539282  0.24674586  0.08593486  1
  O  O301  1  -0.00325883  0.24257807  0.57713187  1
  O  O302  1  0.02491986  0.75253786  0.08377118  1
  O  O303  1  0.00041410  0.74498857  0.58634546  1
  O  O304  1  0.35274520  0.25260204  0.08588950  1
  O  O305  1  0.34087833  0.24955181  0.58709593  1
  O  O306  1  0.34709009  0.73296985  0.07248232  1
  O  O307  1  0.34340846  0.75399751  0.58554373  1
  O  O308  1  0.68135184  0.24445400  0.08319959  1
  O  O309  1  0.67068090  0.24170401  0.58781350  1
  O  O310  1  0.67569187  0.75421968  0.08299377  1
  O  O311  1  0.67156972  0.75716458  0.58792893  1
  O  O312  1  0.16335677  0.01034562  0.42100962  1
  O  O313  1  0.17359563  -0.00311448  0.91061472  1
  O  O314  1  0.16299067  0.48311873  0.42410325  1
  O  O315  1  0.19426266  0.49913673  0.92817181  1
  O  O316  1  0.48478248  0.00023221  0.41481704  1
  O  O317  1  0.50100998  -0.00305852  0.91291598  1
  O  O318  1  0.50090409  0.51340048  0.42750413  1
  O  O319  1  0.49899982  0.50395435  0.91148773  1
  O  O320  1  0.83098240  -0.00485319  0.41178731  1
  O  O321  1  0.80236345  0.00148686  0.91569917  1
  O  O322  1  0.84371626  0.49409691  0.41748017  1
  O  O323  1  0.82793372  0.51045697  0.92066770  1
  O  O324  1  0.33072281  0.24846307  0.41468354  1
  O  O325  1  0.34554408  0.23499715  0.92090716  1
  O  O326  1  0.33501009  0.75185965  0.41856483  1
  O  O327  1  0.34368123  0.75431656  0.91037844  1
  O  O328  1  0.66990489  0.23360935  0.42456704  1
  O  O329  1  0.64444886  0.24999160  0.91512927  1
  O  O330  1  0.65494621  0.75720227  0.41561731  1
  O  O331  1  0.65673525  0.74910346  0.91390529  1
  O  O332  1  0.98512400  0.24545068  0.41193342  1
  O  O333  1  1.00454455  0.23035796  0.92564190  1
  O  O334  1  0.99699227  0.75575999  0.41257274  1
  O  O335  1  0.99098559  0.76768296  0.92704050  1
  O  O336  1  0.21007915  0.08625395  0.19262774  1
  O  O337  1  0.21019733  0.08375150  0.69301090  1
  O  O338  1  0.21193914  0.57627162  0.19614959  1
  O  O339  1  0.21004934  0.58503285  0.69491955  1
  O  O340  1  0.54384317  0.08320959  0.19381278  1
  O  O341  1  0.54280931  0.08267666  0.69596044  1
  O  O342  1  0.55653757  0.58112297  0.19186348  1
  O  O343  1  0.54412925  0.58459951  0.70021138  1
  O  O344  1  0.87635176  0.08176356  0.19296404  1
  O  O345  1  0.87547550  0.08121060  0.69649101  1
  O  O346  1  0.87665530  0.58786628  0.19121818  1
  O  O347  1  0.87358050  0.58571366  0.69664520  1
  O  O348  1  0.04425779  0.33034387  0.19435564  1
  O  O349  1  0.04614991  0.33216172  0.69845844  1
  O  O350  1  0.03261630  0.83481877  0.19155744  1
  O  O351  1  0.04129016  0.83255467  0.69339038  1
  O  O352  1  0.37349022  0.33208986  0.19640870  1
  O  O353  1  0.37856115  0.33082270  0.69640100  1
  O  O354  1  0.37902245  0.83400433  0.19603262  1
  O  O355  1  0.38401298  0.84070233  0.69124682  1
  O  O356  1  0.71127426  0.32837619  0.19149684  1
  O  O357  1  0.70806771  0.32730063  0.69573503  1
  O  O358  1  0.71413095  0.84111984  0.19108947  1
  O  O359  1  0.71172781  0.83760037  0.69680844  1
  O  O360  1  0.20964831  0.41357839  0.19761331  1
  O  O361  1  0.21180134  0.41912183  0.69199559  1
  O  O362  1  0.21100033  0.92533992  0.18830735  1
  O  O363  1  0.21192520  0.91628690  0.69783587  1
  O  O364  1  0.55170011  0.41214653  0.19354251  1
  O  O365  1  0.54235944  0.41360632  0.69564215  1
  O  O366  1  0.54288932  0.92054400  0.18937280  1
  O  O367  1  0.54670369  0.91834905  0.69547277  1
  O  O368  1  0.87806707  0.41565454  0.20095133  1
  O  O369  1  0.87829276  0.41832192  0.69965296  1
  O  O370  1  0.87511124  0.91751258  0.19129524  1
  O  O371  1  0.87684395  0.91659460  0.69659072  1
  O  O372  1  0.04312753  0.16399890  0.19422738  1
  O  O373  1  0.04020472  0.16451640  0.69405304  1
  O  O374  1  0.03341451  0.67112390  0.19435187  1
  O  O375  1  0.04365076  0.66792812  0.69599745  1
  O  O376  1  0.37724418  0.16776858  0.19470387  1
  O  O377  1  0.37755369  0.16527211  0.69572482  1
  O  O378  1  0.36608809  0.66440074  0.19118967  1
  O  O379  1  0.37677235  0.66569441  0.69255944  1
  O  O380  1  0.71170177  0.16197510  0.19383820  1
  O  O381  1  0.70920427  0.16142626  0.69667057  1
  O  O382  1  0.71009183  0.66816266  0.19195659  1
  O  O383  1  0.70949097  0.67080522  0.69563898  1
  O  O384  1  0.12482840  0.08627275  0.30430721  1
  O  O385  1  0.12676962  0.08050263  0.80234400  1
  O  O386  1  0.11525567  0.57558779  0.30152499  1
  O  O387  1  0.12273527  0.58602592  0.80225681  1
  O  O388  1  0.45833410  0.08273937  0.30356770  1
  O  O389  1  0.45983853  0.08159778  0.80429889  1
  O  O390  1  0.44787539  0.58287824  0.31165301  1
  O  O391  1  0.45413599  0.58535074  0.80398853  1
  O  O392  1  0.79223188  0.08043069  0.30266031  1
  O  O393  1  0.78882329  0.08225862  0.80650056  1
  O  O394  1  0.79110030  0.58460897  0.29719986  1
  O  O395  1  0.78443593  0.58635785  0.80626260  1
  O  O396  1  0.28804894  0.33107079  0.30768230  1
  O  O397  1  0.28733172  0.33238255  0.79842908  1
  O  O398  1  0.29157107  0.83367468  0.30781442  1
  O  O399  1  0.29324722  0.83663135  0.80261612  1
  O  O400  1  0.62696897  0.32985533  0.30099759  1
  O  O401  1  0.61871683  0.33122900  0.80627553  1
  O  O402  1  0.62056684  0.84012614  0.30430319  1
  O  O403  1  0.62519893  0.83449830  0.80471544  1
  O  O404  1  0.95636333  0.32757624  0.30233662  1
  O  O405  1  0.95444667  0.32850910  0.80196903  1
  O  O406  1  0.95154014  0.83877152  0.30366580  1
  O  O407  1  0.95803834  0.83859072  0.80812449  1
  O  O408  1  0.11996202  0.41184511  0.30595462  1
  O  O409  1  0.12235377  0.41790122  0.80135508  1
  O  O410  1  0.12052276  0.92285228  0.29627139  1
  O  O411  1  0.12566622  0.91533510  0.80292520  1
  O  O412  1  0.44955990  0.40702737  0.30880453  1
  O  O413  1  0.45343592  0.41910167  0.80456227  1
  O  O414  1  0.46354425  0.92057450  0.30391172  1
  O  O415  1  0.46125620  0.91646768  0.80368067  1
  O  O416  1  0.79110306  0.41374087  0.30622505  1
  O  O417  1  0.78370166  0.41551648  0.79880025  1
  O  O418  1  0.78788649  0.91744663  0.30232783  1
  O  O419  1  0.78950524  0.91883221  0.80608605  1
  O  O420  1  0.29273215  0.16684756  0.30354738  1
  O  O421  1  0.29283591  0.16233237  0.80561694  1
  O  O422  1  0.30122732  0.66879710  0.30942814  1
  O  O423  1  0.29076671  0.66565499  0.80658929  1
  O  O424  1  0.62704130  0.16166175  0.30635167  1
  O  O425  1  0.62243546  0.16482711  0.80586356  1
  O  O426  1  0.63591437  0.66756291  0.30988664  1
  O  O427  1  0.62087295  0.67038929  0.80392319  1
  O  O428  1  0.95591957  0.16329944  0.30240631  1
  O  O429  1  0.95742385  0.15915838  0.80769673  1
  O  O430  1  0.95641654  0.66921366  0.30669378  1
  O  O431  1  0.95486574  0.66996687  0.80134597  1
  F  F432  1  0.04223969  0.00440894  0.19669055  1
  F  F433  1  0.04421117  -0.00087643  0.70155989  1
  F  F434  1  0.04321669  0.49614473  0.19900041  1
  F  F435  1  0.04269786  0.50255495  0.70233460  1
  F  F436  1  0.38186051  0.01103724  0.19365339  1
  F  F437  1  0.38147633  0.00197675  0.70109977  1
  F  F438  1  0.36608921  0.49866886  0.20021729  1
  F  F439  1  0.37741310  0.50042673  0.70168929  1
  F  F440  1  0.71209868  0.00110442  0.19886032  1
  F  F441  1  0.71243962  0.00025945  0.70329525  1
  F  F442  1  0.71410190  0.49477215  0.19970832  1
  F  F443  1  0.70806055  0.50193994  0.70148296  1
  F  F444  1  0.21377370  0.24919988  0.20336272  1
  F  F445  1  0.21338077  0.24447161  0.69997812  1
  F  F446  1  0.21661775  0.76079527  0.19595954  1
  F  F447  1  0.20838866  0.74781846  0.70127421  1
  F  F448  1  0.54979224  0.23674245  0.19617729  1
  F  F449  1  0.54506269  0.24712381  0.70359732  1
  F  F450  1  0.54963948  0.76400661  0.19376166  1
  F  F451  1  0.54799949  0.75349784  0.69943082  1
  F  F452  1  0.87876194  0.24531708  0.19848139  1
  F  F453  1  0.87647307  0.24366414  0.70268396  1
  F  F454  1  0.87816490  0.75217382  0.20110373  1
  F  F455  1  0.87776899  0.75571341  0.70405428  1
  F  F456  1  0.28812030  0.00908165  0.29882765  1
  F  F457  1  0.29157377  0.00045374  0.79627942  1
  F  F458  1  0.28450561  0.49712633  0.30139364  1
  F  F459  1  0.28836607  0.50224932  0.79561490  1
  F  F460  1  0.62137678  -0.00028496  0.29418599  1
  F  F461  1  0.62242245  0.00015177  0.79917963  1
  F  F462  1  0.63961634  0.50104701  0.30467646  1
  F  F463  1  0.61920431  0.49835418  0.79755420  1
  F  F464  1  0.95265387  0.00090574  0.29488803  1
  F  F465  1  0.95581741  -0.00131732  0.79764930  1
  F  F466  1  0.95463258  0.50137675  0.29626135  1
  F  F467  1  0.95318238  0.50268283  0.79959320  1
  F  F468  1  0.11966045  0.24678243  0.29610218  1
  F  F469  1  0.12236849  0.24402025  0.79670983  1
  F  F470  1  0.11260807  0.76408139  0.30630317  1
  F  F471  1  0.12188217  0.75459944  0.79799568  1
  F  F472  1  0.45539453  0.24001741  0.30230965  1
  F  F473  1  0.45507514  0.24742354  0.79837438  1
  F  F474  1  0.45244041  0.76112087  0.30141738  1
  F  F475  1  0.46153927  0.75134144  0.79669222  1
  F  F476  1  0.78946718  0.24603867  0.29459777  1
  F  F477  1  0.78510070  0.24416463  0.79915254  1
  F  F478  1  0.79118329  0.75390886  0.29736124  1
  F  F479  1  0.78588619  0.75470399  0.79907502  1
