# generated using pymatgen
data_K24Na3Li5Mg64Fe17Si79(O5F)48
_symmetry_space_group_name_H-M   'P 1'
_cell_length_a   16.09898843
_cell_length_b   18.60165380
_cell_length_c   20.55560121
_cell_angle_alpha   90.01503752
_cell_angle_beta   100.02179608
_cell_angle_gamma   89.98669121
_symmetry_Int_Tables_number   1
_chemical_formula_structural   K24Na3Li5Mg64Fe17Si79(O5F)48
_chemical_formula_sum   'K24 Na3 Li5 Mg64 Fe17 Si79 O240 F48'
_cell_volume   6061.81393494
_cell_formula_units_Z   1
loop_
 _symmetry_equiv_pos_site_id
 _symmetry_equiv_pos_as_xyz
  1  'x, y, z'
loop_
 _atom_site_type_symbol
 _atom_site_label
 _atom_site_symmetry_multiplicity
 _atom_site_fract_x
 _atom_site_fract_y
 _atom_site_fract_z
 _atom_site_occupancy
  K  K0  1  0.00439563  -0.01210911  -0.00128463  1
  K  K1  1  0.00648306  -0.00492212  0.50685184  1
  K  K2  1  -0.00743389  0.49897995  -0.00032881  1
  K  K3  1  -0.00123271  0.50633602  0.49637759  1
  K  K4  1  0.32724592  -0.00571637  0.00307625  1
  K  K5  1  0.34484677  -0.00345277  0.50073373  1
  K  K6  1  0.32144496  0.50415317  -0.00056851  1
  K  K7  1  0.33476901  0.50859212  0.49450061  1
  K  K8  1  0.66142775  0.00224338  -0.00968491  1
  K  K9  1  0.65996490  0.00320794  0.50204349  1
  K  K10  1  0.66856744  0.50151821  -0.00701741  1
  K  K11  1  0.66139124  0.49496928  0.50383055  1
  K  K12  1  0.17739195  0.25395878  -0.00079867  1
  K  K13  1  0.17394347  0.24960156  0.50584316  1
  K  K14  1  0.17714723  0.75110891  0.00133816  1
  K  K15  1  0.16971924  0.75049104  0.49418417  1
  K  K16  1  0.49638161  0.25229834  -0.00366203  1
  K  K17  1  0.50124667  0.25045819  0.50654276  1
  K  K18  1  0.48971190  0.73918661  -0.00032042  1
  K  K19  1  0.48752105  0.74507306  0.49652857  1
  K  K20  1  0.82042280  0.25721551  -0.01416667  1
  K  K21  1  0.82977584  0.24670139  0.50929841  1
  K  K22  1  0.83814430  0.74271232  0.00224527  1
  K  K23  1  0.84493677  0.75479179  0.49617063  1
  Na  Na24  1  0.50947757  0.49544935  0.76015715  1
  Na  Na25  1  0.33302311  0.91847645  0.25136183  1
  Na  Na26  1  0.66486696  0.08721826  0.75355590  1
  Li  Li27  1  0.65658747  0.25038166  0.75239875  1
  Li  Li28  1  0.00306007  0.74273043  0.24598944  1
  Li  Li29  1  0.66599925  0.40817437  0.75687367  1
  Li  Li30  1  0.51113680  0.17278917  0.75242889  1
  Li  Li31  1  -0.00093693  0.59387358  0.24511198  1
  Mg  Mg32  1  0.82735837  0.49805350  0.75056427  1
  Mg  Mg33  1  0.66676555  0.74937679  0.74940767  1
  Mg  Mg34  1  0.83849070  0.50257916  0.25201969  1
  Mg  Mg35  1  0.33655162  0.25031057  0.75014285  1
  Mg  Mg36  1  0.16566651  -0.00062357  0.24690659  1
  Mg  Mg37  1  -0.00066229  0.25076691  0.24842076  1
  Mg  Mg38  1  0.16556529  0.49703339  0.75135418  1
  Mg  Mg39  1  0.83286624  0.00016863  0.74892838  1
  Mg  Mg40  1  0.83294501  -0.00093266  0.25253677  1
  Mg  Mg41  1  0.33378884  0.74846426  0.74860287  1
  Mg  Mg42  1  0.50049078  0.50004342  0.25236451  1
  Mg  Mg43  1  0.66873825  0.75040974  0.25379462  1
  Mg  Mg44  1  -0.00187308  0.24862857  0.74782105  1
  Mg  Mg45  1  0.16318611  0.50419263  0.24875481  1
  Mg  Mg46  1  0.50226089  0.00259402  0.74928396  1
  Mg  Mg47  1  0.66612469  0.25002384  0.25301491  1
  Mg  Mg48  1  0.00165114  0.75166710  0.74873694  1
  Mg  Mg49  1  0.33067687  0.75106053  0.24929049  1
  Mg  Mg50  1  0.16783333  0.00135348  0.74396766  1
  Mg  Mg51  1  0.49763362  -0.00020576  0.25389750  1
  Mg  Mg52  1  0.33363298  0.25241902  0.24973144  1
  Mg  Mg53  1  0.33043813  0.58555344  0.25063159  1
  Mg  Mg54  1  0.83946292  0.66731639  0.24826307  1
  Mg  Mg55  1  0.82931483  0.16707908  0.75036629  1
  Mg  Mg56  1  0.33384662  0.08415814  0.24924195  1
  Mg  Mg57  1  0.33527699  0.58183189  0.75175194  1
  Mg  Mg58  1  0.83470683  0.66651414  0.75077837  1
  Mg  Mg59  1  0.16785689  0.66439365  0.74921402  1
  Mg  Mg60  1  0.16237736  0.66568312  0.25007491  1
  Mg  Mg61  1  0.50135410  0.83321616  0.25404306  1
  Mg  Mg62  1  0.66865717  0.58048995  0.75135289  1
  Mg  Mg63  1  0.16642721  0.16694232  0.74632081  1
  Mg  Mg64  1  0.33349315  0.91509905  0.74516744  1
  Mg  Mg65  1  0.66739318  0.41622914  0.25105762  1
  Mg  Mg66  1  -0.00121537  0.41942516  0.24898403  1
  Mg  Mg67  1  0.00027458  0.91381878  0.24912735  1
  Mg  Mg68  1  0.16375741  0.83241894  0.24778972  1
  Mg  Mg69  1  0.33875776  0.08591332  0.74788524  1
  Mg  Mg70  1  0.50098376  0.66554366  0.25328036  1
  Mg  Mg71  1  0.83355661  0.33476430  0.24924025  1
  Mg  Mg72  1  0.83612728  0.83438714  0.75048597  1
  Mg  Mg73  1  0.83740418  0.83259277  0.25390381  1
  Mg  Mg74  1  -0.00069593  0.58296295  0.75005322  1
  Mg  Mg75  1  0.16702912  0.16612238  0.24844689  1
  Mg  Mg76  1  0.49840659  0.83432306  0.74661814  1
  Mg  Mg77  1  -0.00146179  0.08430262  0.24860958  1
  Mg  Mg78  1  0.33391706  0.41698094  0.24824887  1
  Mg  Mg79  1  0.66548970  0.08368275  0.25245841  1
  Mg  Mg80  1  0.33653539  0.41452667  0.75217562  1
  Mg  Mg81  1  0.67092002  0.58470397  0.25183945  1
  Mg  Mg82  1  0.49803077  0.33558597  0.24962934  1
  Mg  Mg83  1  0.82523976  0.33123956  0.75317222  1
  Mg  Mg84  1  0.16718547  0.83447040  0.74683608  1
  Mg  Mg85  1  -0.00463992  0.41385305  0.75007829  1
  Mg  Mg86  1  -0.00122412  0.08466626  0.74565006  1
  Mg  Mg87  1  0.16634582  0.33264983  0.74821568  1
  Mg  Mg88  1  0.16645398  0.33600139  0.24772924  1
  Mg  Mg89  1  0.49796815  0.16538555  0.25121212  1
  Mg  Mg90  1  0.83210112  0.16616823  0.24961927  1
  Mg  Mg91  1  0.00137617  0.91428926  0.74806489  1
  Mg  Mg92  1  0.49984934  0.66445794  0.74978861  1
  Mg  Mg93  1  0.66672684  0.91502908  0.25566785  1
  Mg  Mg94  1  0.50547374  0.32953809  0.75383475  1
  Mg  Mg95  1  0.66717413  0.91689222  0.75003400  1
  Fe  Fe96  1  0.47716903  0.41444312  0.39154906  1
  Fe  Fe97  1  0.30898554  0.33590295  0.88800761  1
  Fe  Fe98  1  0.01893800  0.16722951  0.60621987  1
  Fe  Fe99  1  0.18627128  0.58838510  0.10861336  1
  Fe  Fe100  1  0.36005771  0.33672729  0.10818487  1
  Fe  Fe101  1  0.64466316  0.83071906  0.39451428  1
  Fe  Fe102  1  0.80203259  0.41886791  0.89057033  1
  Fe  Fe103  1  0.02655075  0.83291280  0.60701440  1
  Fe  Fe104  1  0.97368827  0.66847076  0.38895036  1
  Fe  Fe105  1  0.30661189  0.66351653  0.88957775  1
  Fe  Fe106  1  0.63460529  0.32907161  0.89726638  1
  Fe  Fe107  1  0.97845834  0.83280761  0.89048014  1
  Fe  Fe108  1  0.18809939  0.91183147  0.10747229  1
  Fe  Fe109  1  0.30636083  0.66924932  0.39050225  1
  Fe  Fe110  1  0.47614727  0.08475102  0.39246738  1
  Fe  Fe111  1  0.85873097  0.58095837  0.10969119  1
  Fe  Fe112  1  0.36400294  0.83145894  0.60741384  1
  Si  Si113  1  0.36580542  0.66385132  0.11349111  1
  Si  Si114  1  0.84911542  0.08041660  0.61062214  1
  Si  Si115  1  0.97754638  0.66529742  0.88485664  1
  Si  Si116  1  0.52812931  0.41303857  0.61744787  1
  Si  Si117  1  0.19152186  0.41358222  0.61343085  1
  Si  Si118  1  0.85618012  0.91884128  0.11552713  1
  Si  Si119  1  0.18429969  0.41794026  0.11037075  1
  Si  Si120  1  0.85732547  0.41128852  0.11315141  1
  Si  Si121  1  0.35941969  0.65934668  0.61234892  1
  Si  Si122  1  0.97327595  0.16918350  0.38394185  1
  Si  Si123  1  0.68838138  0.16532144  0.11572838  1
  Si  Si124  1  0.64733384  0.16831095  0.38816328  1
  Si  Si125  1  0.85396569  0.41893317  0.61409398  1
  Si  Si126  1  0.81185998  0.08204890  0.88655028  1
  Si  Si127  1  0.35639714  0.16523378  0.11193407  1
  Si  Si128  1  0.53333033  0.91977220  0.61135445  1
  Si  Si129  1  0.30189105  0.33339096  0.38685546  1
  Si  Si130  1  0.69200849  0.33243359  0.61481489  1
  Si  Si131  1  0.52406166  0.08168779  0.11583316  1
  Si  Si132  1  0.52857662  0.91756342  0.11673620  1
  Si  Si133  1  0.80544372  0.58000889  0.38870618  1
  Si  Si134  1  0.47903625  0.58511859  0.88825827  1
  Si  Si135  1  0.13374489  0.41106160  0.88485257  1
  Si  Si136  1  0.69164588  0.17069141  0.61543520  1
  Si  Si137  1  0.01929665  0.33840901  0.61035381  1
  Si  Si138  1  0.69300136  0.83717698  0.11764339  1
  Si  Si139  1  0.64665864  0.66275537  0.38843550  1
  Si  Si140  1  0.69622303  0.32946095  0.11705376  1
  Si  Si141  1  0.19198183  0.57743600  0.61464974  1
  Si  Si142  1  0.81102300  0.08580115  0.38575958  1
  Si  Si143  1  0.52951093  0.58012907  0.61646277  1
  Si  Si144  1  0.52619921  0.08582366  0.61611259  1
  Si  Si145  1  0.53614932  0.41814714  0.11317848  1
  Si  Si146  1  0.36090527  0.33369014  0.61396184  1
  Si  Si147  1  0.36729566  0.82933333  0.11353172  1
  Si  Si148  1  0.30779305  0.83585269  0.88521074  1
  Si  Si149  1  0.69517715  0.83199943  0.61583322  1
  Si  Si150  1  0.64732084  0.33066750  0.38765339  1
  Si  Si151  1  0.19648222  0.92135635  0.60757483  1
  Si  Si152  1  0.48037798  0.58492391  0.38992985  1
  Si  Si153  1  0.64263095  0.66999161  0.88507502  1
  Si  Si154  1  0.14007526  0.57850611  0.39015560  1
  Si  Si155  1  0.02441412  0.67053277  0.10959173  1
  Si  Si156  1  0.01763998  0.83274103  0.11232299  1
  Si  Si157  1  0.85529793  0.58301778  0.61555142  1
  Si  Si158  1  0.96977482  0.32886109  0.88502438  1
  Si  Si159  1  0.13777032  0.41383478  0.38413328  1
  Si  Si160  1  0.97668546  0.16360366  0.88439338  1
  Si  Si161  1  0.53334898  0.58381479  0.11730696  1
  Si  Si162  1  0.47606382  0.07838618  0.88556605  1
  Si  Si163  1  0.97308987  0.33320328  0.38391641  1
  Si  Si164  1  0.13901995  0.92321418  0.38465438  1
  Si  Si165  1  0.02137942  0.16694395  0.11310847  1
  Si  Si166  1  0.31404037  0.16505661  0.88537304  1
  Si  Si167  1  0.13686714  0.08699795  0.38278460  1
  Si  Si168  1  0.14566851  0.92361885  0.88385991  1
  Si  Si169  1  0.46947136  0.41919731  0.89113272  1
  Si  Si170  1  0.80937833  0.41550207  0.38519142  1
  Si  Si171  1  0.47601551  0.91370447  0.39050428  1
  Si  Si172  1  0.63865490  0.83487576  0.88365887  1
  Si  Si173  1  0.13447395  0.57700084  0.88531380  1
  Si  Si174  1  0.69388634  0.67244684  0.11501249  1
  Si  Si175  1  0.02353895  0.33109029  0.11406890  1
  Si  Si176  1  0.47369881  0.91587173  0.88326912  1
  Si  Si177  1  0.18719666  0.08459376  0.11040041  1
  Si  Si178  1  0.19529662  0.08839762  0.60958304  1
  Si  Si179  1  0.30240163  0.16808403  0.38572894  1
  Si  Si180  1  0.64186296  0.16400724  0.89156616  1
  Si  Si181  1  0.81148582  0.92208926  0.39018515  1
  Si  Si182  1  0.36233894  0.16763752  0.61386188  1
  Si  Si183  1  0.69059224  0.66710013  0.61492231  1
  Si  Si184  1  0.81033197  0.58991342  0.88632763  1
  Si  Si185  1  0.30320709  0.83775497  0.38625113  1
  Si  Si186  1  0.85536231  0.08416199  0.11437749  1
  Si  Si187  1  0.97661947  0.84033528  0.38805180  1
  Si  Si188  1  0.80593346  0.91606667  0.88830319  1
  Si  Si189  1  0.02416644  0.66001893  0.61235306  1
  Si  Si190  1  0.85526762  0.91701135  0.61252982  1
  Si  Si191  1  0.14554943  0.08683354  0.88216343  1
  O  O192  1  0.26994944  0.11872649  0.08382029  1
  O  O193  1  0.27780426  0.12115808  0.58084360  1
  O  O194  1  0.28533421  0.61859065  0.07805883  1
  O  O195  1  0.27262850  0.61173690  0.58677169  1
  O  O196  1  0.60440064  0.11742168  0.08618411  1
  O  O197  1  0.60290860  0.12728944  0.58710226  1
  O  O198  1  0.60813225  0.62515666  0.08727963  1
  O  O199  1  0.60566519  0.62040531  0.58414353  1
  O  O200  1  0.93610754  0.11834489  0.08551468  1
  O  O201  1  0.92525392  0.10715473  0.57384267  1
  O  O202  1  0.95156168  0.61416238  0.07511258  1
  O  O203  1  0.93866004  0.61031980  0.58634481  1
  O  O204  1  0.10636496  0.35810916  0.08571865  1
  O  O205  1  0.10259775  0.37216555  0.58281946  1
  O  O206  1  0.09080129  0.85822922  0.07211976  1
  O  O207  1  0.11641019  0.87349992  0.57304536  1
  O  O208  1  0.45682995  0.37164502  0.07809992  1
  O  O209  1  0.43647905  0.37460418  0.58329950  1
  O  O210  1  0.44917519  0.86666561  0.08529984  1
  O  O211  1  0.45643746  0.87120988  0.57445443  1
  O  O212  1  0.78371429  0.34892432  0.09112820  1
  O  O213  1  0.77019382  0.37133739  0.58222343  1
  O  O214  1  0.77152259  0.87175833  0.08591134  1
  O  O215  1  0.77814971  0.85920461  0.58690403  1
  O  O216  1  0.26343669  0.39104969  0.07702987  1
  O  O217  1  0.26890534  0.37320482  0.58417784  1
  O  O218  1  0.28529744  0.87401334  0.07835021  1
  O  O219  1  0.27847930  0.89728908  0.57700221  1
  O  O220  1  0.62201189  0.38625300  0.08821545  1
  O  O221  1  0.60343277  0.37490804  0.58300301  1
  O  O222  1  0.61159490  0.88828399  0.08775430  1
  O  O223  1  0.61943706  0.88803402  0.58708368  1
  O  O224  1  0.94139170  0.38049781  0.08543312  1
  O  O225  1  0.93760135  0.39227499  0.58373151  1
  O  O226  1  0.93502332  0.88710177  0.08501482  1
  O  O227  1  0.93295117  0.89358744  0.57706045  1
  O  O228  1  0.10293251  0.13679847  0.08378835  1
  O  O229  1  0.11606844  0.13667831  0.57443128  1
  O  O230  1  0.10666592  0.65819985  0.07392044  1
  O  O231  1  0.10338367  0.61934427  0.58499215  1
  O  O232  1  0.43683388  0.12399542  0.08600425  1
  O  O233  1  0.43965826  0.13009125  0.58286769  1
  O  O234  1  0.44801608  0.62786903  0.08692368  1
  O  O235  1  0.43809352  0.61732847  0.58530323  1
  O  O236  1  0.76954026  0.13130368  0.08647993  1
  O  O237  1  0.76516111  0.12956609  0.58129505  1
  O  O238  1  0.76765183  0.64458499  0.07784085  1
  O  O239  1  0.77230470  0.63325764  0.58617400  1
  O  O240  1  0.05382778  0.11749120  0.41196407  1
  O  O241  1  0.06328422  0.11687644  0.91220207  1
  O  O242  1  0.05849864  0.60156733  0.42234122  1
  O  O243  1  0.04504345  0.59983448  0.90865286  1
  O  O244  1  0.37816380  0.11809480  0.42213275  1
  O  O245  1  0.39310530  0.10948030  0.91447839  1
  O  O246  1  0.40260458  0.61332030  0.42350333  1
  O  O247  1  0.40568378  0.61312313  0.92744474  1
  O  O248  1  0.72893644  0.11476441  0.41484945  1
  O  O249  1  0.73128638  0.11476720  0.91630871  1
  O  O250  1  0.71497415  0.59746171  0.41358196  1
  O  O251  1  0.72958026  0.62716968  0.91448155  1
  O  O252  1  0.21420435  0.35794269  0.41316905  1
  O  O253  1  0.20821456  0.35834549  0.91833755  1
  O  O254  1  0.22235908  0.87617635  0.41438862  1
  O  O255  1  0.23108578  0.87742148  0.91354697  1
  O  O256  1  0.56909308  0.35126938  0.42326005  1
  O  O257  1  0.53945458  0.36441202  0.92981616  1
  O  O258  1  0.54406196  0.85353992  0.42476961  1
  O  O259  1  0.55697756  0.86639707  0.91292036  1
  O  O260  1  0.89143389  0.36370508  0.41361458  1
  O  O261  1  0.89345618  0.35409320  0.92042925  1
  O  O262  1  0.89614762  0.87500740  0.41882244  1
  O  O263  1  0.88238388  0.86613881  0.92433355  1
  O  O264  1  0.05462233  0.38301355  0.41333652  1
  O  O265  1  0.04902958  0.38339538  0.91221826  1
  O  O266  1  0.05738303  0.89510357  0.41511220  1
  O  O267  1  0.06794141  0.89727431  0.91773769  1
  O  O268  1  0.37819557  0.38384656  0.42217197  1
  O  O269  1  0.38273769  0.41011694  0.92202327  1
  O  O270  1  0.38204022  0.89441984  0.40891039  1
  O  O271  1  0.39328287  0.88418340  0.91284595  1
  O  O272  1  0.72866540  0.38388502  0.41514792  1
  O  O273  1  0.72364117  0.38617285  0.93851367  1
  O  O274  1  0.73305591  0.89789146  0.42440205  1
  O  O275  1  0.71838842  0.88734304  0.91343943  1
  O  O276  1  0.21413867  0.14168970  0.41078186  1
  O  O277  1  0.22801942  0.13591924  0.91246995  1
  O  O278  1  0.22058469  0.62474004  0.42750625  1
  O  O279  1  0.21122537  0.62686970  0.92069888  1
  O  O280  1  0.56998286  0.14608361  0.42399234  1
  O  O281  1  0.56412518  0.11809997  0.91956661  1
  O  O282  1  0.55934489  0.64177316  0.41484352  1
  O  O283  1  0.56497410  0.63473490  0.91609374  1
  O  O284  1  0.89027514  0.14048388  0.41259418  1
  O  O285  1  0.89950765  0.12748677  0.91758333  1
  O  O286  1  0.87823192  0.63265667  0.42489074  1
  O  O287  1  0.88914748  0.64620812  0.91108010  1
  O  O288  1  0.16768212  0.00804640  0.07457375  1
  O  O289  1  0.17720313  0.00581090  0.58277629  1
  O  O290  1  0.15068681  0.49471959  0.07922903  1
  O  O291  1  0.18194289  0.49559893  0.58324576  1
  O  O292  1  0.51278180  -0.00043826  0.08616480  1
  O  O293  1  0.52196801  0.00361161  0.58366089  1
  O  O294  1  0.52816201  0.50213274  0.08705608  1
  O  O295  1  0.52393608  0.49701060  0.58866887  1
  O  O296  1  0.83877074  0.00195831  0.08614069  1
  O  O297  1  0.82182074  -0.00245232  0.58603955  1
  O  O298  1  0.82843795  0.48609668  0.07797171  1
  O  O299  1  0.83405715  0.50157037  0.58576925  1
  O  O300  1  0.00118153  0.24880861  0.08549081  1
  O  O301  1  -0.00380965  0.26220174  0.57377972  1
  O  O302  1  -0.01495062  0.75226320  0.08739627  1
  O  O303  1  0.00751233  0.73712016  0.57702674  1
  O  O304  1  0.34417545  0.24183054  0.07529574  1
  O  O305  1  0.35209862  0.25084104  0.58326676  1
  O  O306  1  0.36182510  0.74665513  0.08330508  1
  O  O307  1  0.34565225  0.73632497  0.57614089  1
  O  O308  1  0.67046255  0.24769890  0.08931934  1
  O  O309  1  0.68213523  0.25137531  0.58010445  1
  O  O310  1  0.67124153  0.75625960  0.08875479  1
  O  O311  1  0.67390103  0.74995469  0.58679192  1
  O  O312  1  0.15666485  0.00642431  0.41303659  1
  O  O313  1  0.16821759  0.00620018  0.91160430  1
  O  O314  1  0.16065743  0.49267229  0.41581927  1
  O  O315  1  0.15274068  0.49392723  0.91172113  1
  O  O316  1  0.50231147  -0.00811452  0.42482302  1
  O  O317  1  0.49128528  -0.00428581  0.91643066  1
  O  O318  1  0.51125215  0.50675101  0.42158007  1
  O  O319  1  0.50612179  0.50239520  0.90979491  1
  O  O320  1  0.83755184  0.00609398  0.41454563  1
  O  O321  1  0.82251344  -0.00074439  0.91710197  1
  O  O322  1  0.82944570  0.49607410  0.41524167  1
  O  O323  1  0.83279097  0.51393790  0.92177832  1
  O  O324  1  0.31806270  0.25047279  0.41472918  1
  O  O325  1  0.33907413  0.24185071  0.91929256  1
  O  O326  1  0.32317260  0.76317519  0.42653609  1
  O  O327  1  0.32260505  0.75889766  0.92134748  1
  O  O328  1  0.68242172  0.24940157  0.41109847  1
  O  O329  1  0.65539701  0.23551541  0.93697992  1
  O  O330  1  0.68300251  0.73748329  0.42246091  1
  O  O331  1  0.65588115  0.75330332  0.91389296  1
  O  O332  1  0.99304779  0.25089097  0.41273688  1
  O  O333  1  0.99592720  0.24567729  0.91244519  1
  O  O334  1  0.99827832  0.76329542  0.42263690  1
  O  O335  1  1.01336086  0.73974810  0.91914114  1
  O  O336  1  0.20521661  0.08592188  0.19144622  1
  O  O337  1  0.21142154  0.08670658  0.69079468  1
  O  O338  1  0.21016217  0.58304785  0.19993430  1
  O  O339  1  0.20700615  0.57873016  0.69477134  1
  O  O340  1  0.54606732  0.08423668  0.19592747  1
  O  O341  1  0.53538349  0.08119989  0.69405647  1
  O  O342  1  0.54829482  0.58309054  0.19795265  1
  O  O343  1  0.54958121  0.58909175  0.69535814  1
  O  O344  1  0.87399393  0.08485977  0.19489802  1
  O  O345  1  0.87383200  0.08314877  0.69145387  1
  O  O346  1  0.87419276  0.58137144  0.20013841  1
  O  O347  1  0.87604316  0.58429347  0.69572364  1
  O  O348  1  0.04111723  0.33138639  0.19484746  1
  O  O349  1  0.03952823  0.33448824  0.69122404  1
  O  O350  1  0.04069188  0.83878176  0.19217404  1
  O  O351  1  0.04751417  0.83339480  0.69868445  1
  O  O352  1  0.37723992  0.33277916  0.19996488  1
  O  O353  1  0.37633125  0.33392534  0.69342569  1
  O  O354  1  0.38511274  0.82699933  0.19340110  1
  O  O355  1  0.37849613  0.83157236  0.69936804  1
  O  O356  1  0.71106635  0.33008093  0.19784336  1
  O  O357  1  0.71388319  0.33227789  0.69294676  1
  O  O358  1  0.71269814  0.83777190  0.19777253  1
  O  O359  1  0.71156097  0.83164692  0.69649902  1
  O  O360  1  0.20650599  0.41602356  0.19219792  1
  O  O361  1  0.20636126  0.41558448  0.69335625  1
  O  O362  1  0.19924738  0.91744086  0.19706219  1
  O  O363  1  0.21080892  0.91803833  0.68953940  1
  O  O364  1  0.54890857  0.41619818  0.19426232  1
  O  O365  1  0.54416237  0.40848967  0.69542588  1
  O  O366  1  0.54525539  0.91925062  0.19683469  1
  O  O367  1  0.54512596  0.91648295  0.69227794  1
  O  O368  1  0.87638348  0.41354023  0.19434065  1
  O  O369  1  0.87527041  0.41654899  0.69385162  1
  O  O370  1  0.87368814  0.92002769  0.19587649  1
  O  O371  1  0.87603588  0.91667801  0.69347056  1
  O  O372  1  0.03964205  0.16659205  0.19379031  1
  O  O373  1  0.04304125  0.16675939  0.69772414  1
  O  O374  1  0.04764970  0.66577500  0.18932585  1
  O  O375  1  0.04321361  0.66330752  0.69339946  1
  O  O376  1  0.37449378  0.16842404  0.19287656  1
  O  O377  1  0.37132528  0.16779205  0.69278166  1
  O  O378  1  0.38145205  0.66490792  0.19426213  1
  O  O379  1  0.37846862  0.66371980  0.69293148  1
  O  O380  1  0.70899706  0.16485481  0.19636729  1
  O  O381  1  0.71638936  0.17227577  0.69345561  1
  O  O382  1  0.71121409  0.66900903  0.19601032  1
  O  O383  1  0.71058486  0.66825388  0.69522955  1
  O  O384  1  0.11828261  0.08678898  0.30226335  1
  O  O385  1  0.12568269  0.08453596  0.80176870  1
  O  O386  1  0.12745673  0.58105061  0.31003435  1
  O  O387  1  0.12139903  0.58057095  0.80400331  1
  O  O388  1  0.45545564  0.08531262  0.30054733  1
  O  O389  1  0.45541202  0.07713069  0.80634289  1
  O  O390  1  0.45965870  0.58345794  0.30804723  1
  O  O391  1  0.45366586  0.59313654  0.80873072  1
  O  O392  1  0.79123016  0.08540005  0.30493324  1
  O  O393  1  0.80218413  0.08086472  0.80745395  1
  O  O394  1  0.78976200  0.58158543  0.30794633  1
  O  O395  1  0.79244877  0.58776085  0.80537668  1
  O  O396  1  0.28637837  0.33382840  0.30576220  1
  O  O397  1  0.28514809  0.33209602  0.79644347  1
  O  O398  1  0.28296968  0.82762631  0.30704930  1
  O  O399  1  0.28899784  0.83440991  0.80421316  1
  O  O400  1  0.62578371  0.33317751  0.30642877  1
  O  O401  1  0.62191198  0.33275212  0.80869190  1
  O  O402  1  0.62462862  0.83256677  0.30230558  1
  O  O403  1  0.62243310  0.83258103  0.80327874  1
  O  O404  1  0.95507075  0.33046246  0.30359191  1
  O  O405  1  0.95530745  0.33018859  0.80388868  1
  O  O406  1  0.95391950  0.84329858  0.30813113  1
  O  O407  1  0.95520692  0.83364988  0.79891391  1
  O  O408  1  0.12054070  0.41345727  0.30378641  1
  O  O409  1  0.11848987  0.41310075  0.80340504  1
  O  O410  1  0.11924404  0.92192051  0.30456756  1
  O  O411  1  0.12754771  0.92073826  0.80295458  1
  O  O412  1  0.45749962  0.41686329  0.30003119  1
  O  O413  1  0.45031840  0.40756318  0.81134086  1
  O  O414  1  0.46964839  0.91671109  0.31018036  1
  O  O415  1  0.45694633  0.91634175  0.80318674  1
  O  O416  1  0.79005341  0.41374401  0.30481437  1
  O  O417  1  0.79146405  0.41704975  0.80046168  1
  O  O418  1  0.79109492  0.91973771  0.30880203  1
  O  O419  1  0.79112482  0.91528226  0.80743547  1
  O  O420  1  0.28786965  0.16890090  0.30446363  1
  O  O421  1  0.29175356  0.16449629  0.80441385  1
  O  O422  1  0.28927375  0.66835887  0.29922169  1
  O  O423  1  0.28778253  0.66579546  0.79770244  1
  O  O424  1  0.62582212  0.16602703  0.30685150  1
  O  O425  1  0.62149148  0.17267896  0.81404277  1
  O  O426  1  0.62715842  0.66539705  0.30701272  1
  O  O427  1  0.62429722  0.66944244  0.80473869  1
  O  O428  1  0.95493723  0.16791557  0.30328412  1
  O  O429  1  0.95699023  0.16323695  0.80415985  1
  O  O430  1  0.95436373  0.67017052  0.30072411  1
  O  O431  1  0.95864107  0.66736084  0.80332227  1
  F  F432  1  0.03968560  0.00323812  0.20020528  1
  F  F433  1  0.04572591  0.00068781  0.69917558  1
  F  F434  1  0.04433998  0.49574814  0.20238728  1
  F  F435  1  0.04351600  0.49803829  0.70170741  1
  F  F436  1  0.38341998  0.00890225  0.19698742  1
  F  F437  1  0.37965432  -0.00050588  0.70011360  1
  F  F438  1  0.38024629  0.50256134  0.20199315  1
  F  F439  1  0.36854710  0.49890876  0.70193210  1
  F  F440  1  0.71217940  0.00110199  0.20432000  1
  F  F441  1  0.71628845  -0.00892933  0.70081630  1
  F  F442  1  0.71396665  0.49896781  0.20461972  1
  F  F443  1  0.71653603  0.51225423  0.69366878  1
  F  F444  1  0.21015341  0.25017132  0.20148215  1
  F  F445  1  0.20961148  0.24886894  0.69781985  1
  F  F446  1  0.21222308  0.75307645  0.19787588  1
  F  F447  1  0.21111448  0.74993693  0.69900989  1
  F  F448  1  0.54695603  0.24866561  0.20420350  1
  F  F449  1  0.53915504  0.25096298  0.69797995  1
  F  F450  1  0.54774351  0.74766552  0.20404257  1
  F  F451  1  0.54592413  0.75008520  0.70094434  1
  F  F452  1  0.87699877  0.24825660  0.20091939  1
  F  F453  1  0.87876910  0.24935747  0.70107310  1
  F  F454  1  0.86857768  0.75512369  0.19880641  1
  F  F455  1  0.87726912  0.74818369  0.70014562  1
  F  F456  1  0.27965490  0.01408396  0.29997376  1
  F  F457  1  0.28802358  0.00034774  0.79262418  1
  F  F458  1  0.28805066  0.49670273  0.29734146  1
  F  F459  1  0.28444974  0.49900967  0.79907433  1
  F  F460  1  0.62340964  0.00230384  0.29983941  1
  F  F461  1  0.61729476  -0.01184212  0.80311040  1
  F  F462  1  0.62362688  0.49891043  0.29839848  1
  F  F463  1  0.64178413  0.50587286  0.80789034  1
  F  F464  1  0.95335311  0.00405625  0.29747281  1
  F  F465  1  0.95678004  0.00004219  0.79414074  1
  F  F466  1  0.95004902  0.48502290  0.30619695  1
  F  F467  1  0.95274251  0.49953915  0.79550902  1
  F  F468  1  0.11930334  0.24938077  0.29592639  1
  F  F469  1  0.12049619  0.25013347  0.79554695  1
  F  F470  1  0.12248183  0.75105241  0.29578972  1
  F  F471  1  0.12405684  0.74829699  0.79631685  1
  F  F472  1  0.45569039  0.24874536  0.29888642  1
  F  F473  1  0.45056212  0.25060287  0.79970610  1
  F  F474  1  0.45484854  0.74886798  0.29894707  1
  F  F475  1  0.45746695  0.75001578  0.79773917  1
  F  F476  1  0.78988883  0.24889126  0.29818218  1
  F  F477  1  0.80145055  0.24682570  0.80543844  1
  F  F478  1  0.78912643  0.75084179  0.29972496  1
  F  F479  1  0.78824710  0.75077039  0.79769590  1
