# generated using pymatgen
data_K24Na3Li5Mg64Fe17Si79(O5F)48
_symmetry_space_group_name_H-M   'P 1'
_cell_length_a   16.08977883
_cell_length_b   18.58436641
_cell_length_c   20.55176999
_cell_angle_alpha   90.00509644
_cell_angle_beta   100.01896361
_cell_angle_gamma   89.99633708
_symmetry_Int_Tables_number   1
_chemical_formula_structural   K24Na3Li5Mg64Fe17Si79(O5F)48
_chemical_formula_sum   'K24 Na3 Li5 Mg64 Fe17 Si79 O240 F48'
_cell_volume   6051.64092473
_cell_formula_units_Z   1
loop_
 _symmetry_equiv_pos_site_id
 _symmetry_equiv_pos_as_xyz
  1  'x, y, z'
loop_
 _atom_site_type_symbol
 _atom_site_label
 _atom_site_symmetry_multiplicity
 _atom_site_fract_x
 _atom_site_fract_y
 _atom_site_fract_z
 _atom_site_occupancy
  K  K0  1  0.00563795  -0.01456672  -0.00277863  1
  K  K1  1  0.00880272  0.00175370  0.50457370  1
  K  K2  1  0.00162020  0.49854875  0.00041096  1
  K  K3  1  0.00662299  0.50054084  0.49885914  1
  K  K4  1  0.32380840  0.00028248  -0.00777784  1
  K  K5  1  0.32295663  -0.00133362  0.50588520  1
  K  K6  1  0.34406615  0.50339100  -0.00620083  1
  K  K7  1  0.32736177  0.50477522  0.49846878  1
  K  K8  1  0.66819636  0.00242741  -0.00739326  1
  K  K9  1  0.66710584  0.00380794  0.50529502  1
  K  K10  1  0.66226138  0.49976696  0.00143223  1
  K  K11  1  0.66909355  0.49463466  0.49907576  1
  K  K12  1  0.15571533  0.25388711  -0.00388370  1
  K  K13  1  0.16177876  0.24909789  0.50432807  1
  K  K14  1  0.16700954  0.75436322  0.00192969  1
  K  K15  1  0.16415871  0.73671115  0.50354585  1
  K  K16  1  0.49986662  0.25578054  -0.00280064  1
  K  K17  1  0.50997993  0.25820259  0.50542971  1
  K  K18  1  0.48826972  0.74233972  -0.00230831  1
  K  K19  1  0.48842794  0.74118029  0.49949853  1
  K  K20  1  0.83316932  0.24999306  -0.00115621  1
  K  K21  1  0.82646339  0.26369338  0.49996362  1
  K  K22  1  0.83919103  0.74643724  0.00099783  1
  K  K23  1  0.83317587  0.74528464  0.50199447  1
  Na  Na24  1  0.83281353  0.50047533  0.74636235  1
  Na  Na25  1  0.66810073  0.92053174  0.75503299  1
  Na  Na26  1  0.83246209  0.16900768  0.25354253  1
  Li  Li27  1  0.16539563  0.00207992  0.74253448  1
  Li  Li28  1  0.67019519  0.25113018  0.75839381  1
  Li  Li29  1  0.50366931  0.33597538  0.25495941  1
  Li  Li30  1  0.00189619  0.91502231  0.24563158  1
  Li  Li31  1  -0.00306281  0.41819599  0.25172683  1
  Mg  Mg32  1  -0.00325710  0.25074127  0.25138689  1
  Mg  Mg33  1  0.83700148  -0.00026401  0.25222713  1
  Mg  Mg34  1  0.00217390  0.75082270  0.24706584  1
  Mg  Mg35  1  0.49939956  -0.00139961  0.24804239  1
  Mg  Mg36  1  0.66919659  0.74916895  0.25149972  1
  Mg  Mg37  1  0.33343213  0.24879633  0.74980246  1
  Mg  Mg38  1  0.49948029  0.49906410  0.75303404  1
  Mg  Mg39  1  0.33199024  0.74994614  0.74650219  1
  Mg  Mg40  1  0.50148475  0.00307821  0.74949566  1
  Mg  Mg41  1  0.00131449  0.74867956  0.74708722  1
  Mg  Mg42  1  -0.00088736  0.25145891  0.74839956  1
  Mg  Mg43  1  0.16185921  0.49813636  0.25034760  1
  Mg  Mg44  1  0.66399449  0.25161895  0.25427334  1
  Mg  Mg45  1  0.50107959  0.49729941  0.25312929  1
  Mg  Mg46  1  0.83671981  0.50097076  0.25286331  1
  Mg  Mg47  1  0.33356176  0.74968738  0.24621177  1
  Mg  Mg48  1  0.16509150  -0.00137778  0.24532111  1
  Mg  Mg49  1  0.16667623  0.49900933  0.74913063  1
  Mg  Mg50  1  0.83279642  0.00009554  0.75368591  1
  Mg  Mg51  1  0.66678670  0.75243894  0.75188574  1
  Mg  Mg52  1  0.33615911  0.25187457  0.25182848  1
  Mg  Mg53  1  0.33337432  0.58592839  0.74981784  1
  Mg  Mg54  1  0.33065372  0.91452467  0.24407985  1
  Mg  Mg55  1  0.50163192  0.16833727  0.25326337  1
  Mg  Mg56  1  0.49899609  0.66640451  0.75136129  1
  Mg  Mg57  1  0.33492437  0.41442669  0.75239044  1
  Mg  Mg58  1  0.00010731  0.91724903  0.74687791  1
  Mg  Mg59  1  0.83223246  0.16732470  0.75472733  1
  Mg  Mg60  1  0.16384776  0.83603355  0.24323532  1
  Mg  Mg61  1  0.00049833  0.08328618  0.74591637  1
  Mg  Mg62  1  0.33454914  0.41520880  0.25285464  1
  Mg  Mg63  1  0.16680083  0.66591291  0.74708680  1
  Mg  Mg64  1  0.49994743  0.83557635  0.74758039  1
  Mg  Mg65  1  0.83830539  0.83490346  0.25064654  1
  Mg  Mg66  1  0.00059049  0.58176015  0.24932802  1
  Mg  Mg67  1  0.33070839  0.58365242  0.24776960  1
  Mg  Mg68  1  0.66958294  0.58358485  0.25107560  1
  Mg  Mg69  1  0.66802547  0.91573534  0.25002065  1
  Mg  Mg70  1  0.33002682  0.91915273  0.74374178  1
  Mg  Mg71  1  0.66783692  0.08360261  0.25336575  1
  Mg  Mg72  1  0.66739986  0.41511928  0.75398063  1
  Mg  Mg73  1  0.00156240  0.58343210  0.74836628  1
  Mg  Mg74  1  0.66632245  0.58368055  0.74951867  1
  Mg  Mg75  1  0.83731171  0.66440062  0.25128432  1
  Mg  Mg76  1  0.49854260  0.66488270  0.24942358  1
  Mg  Mg77  1  0.83396776  0.33450825  0.25367555  1
  Mg  Mg78  1  0.66971290  0.08733248  0.75452062  1
  Mg  Mg79  1  0.83411774  0.66646389  0.74849287  1
  Mg  Mg80  1  0.49767578  0.83279012  0.24645767  1
  Mg  Mg81  1  -0.00134710  0.08117322  0.25050161  1
  Mg  Mg82  1  0.83218428  0.33391992  0.75258971  1
  Mg  Mg83  1  0.50456779  0.16899659  0.74968610  1
  Mg  Mg84  1  0.00104446  0.41614375  0.74937568  1
  Mg  Mg85  1  0.50447275  0.33284567  0.75495370  1
  Mg  Mg86  1  0.16555031  0.83772585  0.74424761  1
  Mg  Mg87  1  0.16316796  0.33394503  0.25272061  1
  Mg  Mg88  1  0.66710464  0.41432350  0.25627507  1
  Mg  Mg89  1  0.33206248  0.08461019  0.24717596  1
  Mg  Mg90  1  0.16406573  0.16355106  0.74506811  1
  Mg  Mg91  1  0.16465286  0.16646427  0.24863493  1
  Mg  Mg92  1  0.16498514  0.33318998  0.75038901  1
  Mg  Mg93  1  0.16344637  0.66392817  0.24733309  1
  Mg  Mg94  1  0.33029057  0.08316038  0.74632905  1
  Mg  Mg95  1  0.83383282  0.83466082  0.75166250  1
  Fe  Fe96  1  0.01708183  0.33504131  0.60840876  1
  Fe  Fe97  1  0.13760521  0.57918556  0.39084776  1
  Fe  Fe98  1  0.02912020  0.66445743  0.10631395  1
  Fe  Fe99  1  0.81414129  0.91212589  0.89340185  1
  Fe  Fe100  1  0.36034894  0.83250163  0.10412022  1
  Fe  Fe101  1  0.35802255  0.65853231  0.10892933  1
  Fe  Fe102  1  0.85748608  0.58114947  0.10803526  1
  Fe  Fe103  1  0.14250662  0.41642505  0.89020723  1
  Fe  Fe104  1  0.02163222  0.66281635  0.60744217  1
  Fe  Fe105  1  0.64064031  0.33350951  0.39380008  1
  Fe  Fe106  1  0.19003600  0.08680713  0.60596759  1
  Fe  Fe107  1  0.80999403  0.58715539  0.39219530  1
  Fe  Fe108  1  0.36376181  0.66399257  0.60866315  1
  Fe  Fe109  1  0.19049383  0.92398832  0.10396349  1
  Fe  Fe110  1  0.64623144  0.16810459  0.89091092  1
  Fe  Fe111  1  0.30446793  0.67410923  0.88786564  1
  Fe  Fe112  1  0.47547575  0.41295949  0.89221460  1
  Si  Si113  1  0.97392326  0.67556726  0.38890901  1
  Si  Si114  1  0.18743798  0.09445726  0.11027263  1
  Si  Si115  1  0.80521354  0.42093097  0.88643421  1
  Si  Si116  1  0.98085901  0.83770283  0.38342232  1
  Si  Si117  1  0.64427644  0.16068971  0.39185990  1
  Si  Si118  1  0.69442661  0.67334333  0.11443963  1
  Si  Si119  1  0.53513592  0.58242239  0.11471281  1
  Si  Si120  1  0.30386168  0.66959534  0.38532918  1
  Si  Si121  1  0.63559171  0.66684184  0.38863884  1
  Si  Si122  1  0.13754502  0.91913936  0.87892680  1
  Si  Si123  1  0.85559351  0.08147922  0.11591088  1
  Si  Si124  1  0.35988890  0.17130566  0.11507829  1
  Si  Si125  1  0.02071604  0.83470754  0.10876550  1
  Si  Si126  1  0.52425058  0.92000718  0.61277884  1
  Si  Si127  1  0.97804484  0.16106838  0.38695486  1
  Si  Si128  1  0.14510332  0.08382195  0.38452298  1
  Si  Si129  1  0.13567450  0.08535548  0.88157998  1
  Si  Si130  1  0.30683596  0.15916569  0.88299711  1
  Si  Si131  1  0.14492319  0.91919145  0.38244904  1
  Si  Si132  1  0.47375640  0.91991014  0.88112260  1
  Si  Si133  1  0.97497523  0.17097369  0.88526271  1
  Si  Si134  1  0.68972982  0.83191848  0.61433772  1
  Si  Si135  1  0.69478323  0.83681063  0.11620708  1
  Si  Si136  1  0.68717874  0.16422418  0.11805464  1
  Si  Si137  1  0.47475581  0.08044760  0.38541208  1
  Si  Si138  1  0.47449225  0.91608260  0.38403755  1
  Si  Si139  1  0.85534903  0.58357239  0.61224724  1
  Si  Si140  1  0.01811073  0.16913494  0.11546603  1
  Si  Si141  1  0.36522177  0.16911908  0.61049897  1
  Si  Si142  1  0.63485471  0.83231022  0.88768994  1
  Si  Si143  1  0.01412861  0.16620642  0.60833380  1
  Si  Si144  1  0.01927812  0.83510495  0.60899894  1
  Si  Si145  1  0.80667275  0.58790591  0.88392421  1
  Si  Si146  1  0.35833801  0.83626769  0.60797717  1
  Si  Si147  1  0.31123593  0.16625325  0.38483150  1
  Si  Si148  1  0.85454773  0.91634385  0.61383200  1
  Si  Si149  1  0.64181612  0.66829544  0.88635650  1
  Si  Si150  1  0.46856365  0.41994276  0.39094092  1
  Si  Si151  1  0.97501630  0.66253126  0.88305084  1
  Si  Si152  1  0.85083767  0.41273727  0.11551018  1
  Si  Si153  1  0.52268565  0.08283714  0.11576438  1
  Si  Si154  1  0.14077235  0.58521535  0.88732509  1
  Si  Si155  1  0.69426905  0.33106063  0.61896942  1
  Si  Si156  1  0.18856387  0.91502798  0.60760797  1
  Si  Si157  1  0.01968753  0.33220502  0.11845455  1
  Si  Si158  1  0.64118376  0.83360138  0.38548877  1
  Si  Si159  1  0.96901674  0.33708920  0.88879366  1
  Si  Si160  1  0.14155587  0.40851806  0.38958382  1
  Si  Si161  1  0.85558441  0.08031686  0.61626947  1
  Si  Si162  1  0.19544154  0.40987260  0.61317338  1
  Si  Si163  1  0.30818368  0.83460296  0.38313269  1
  Si  Si164  1  0.69004025  0.32816517  0.11752941  1
  Si  Si165  1  0.36461502  0.33485189  0.61552363  1
  Si  Si166  1  0.81589216  0.41669065  0.39244163  1
  Si  Si167  1  0.30571749  0.32358565  0.88975314  1
  Si  Si168  1  0.30681134  0.33090140  0.38751984  1
  Si  Si169  1  0.69423994  0.66874256  0.61434181  1
  Si  Si170  1  0.64801573  0.33629270  0.89304701  1
  Si  Si171  1  0.85316254  0.41887637  0.61361359  1
  Si  Si172  1  0.46893367  0.58510020  0.38584383  1
  Si  Si173  1  0.53138345  0.41517553  0.61790283  1
  Si  Si174  1  0.81101094  0.91299779  0.38746821  1
  Si  Si175  1  0.47765620  0.58419244  0.88992941  1
  Si  Si176  1  0.47411022  0.08410197  0.88423265  1
  Si  Si177  1  0.53377184  0.58046931  0.61306178  1
  Si  Si178  1  0.30821343  0.84403629  0.88125461  1
  Si  Si179  1  0.52828013  0.41718062  0.11898440  1
  Si  Si180  1  0.81695632  0.08146733  0.89303512  1
  Si  Si181  1  0.18710185  0.40980535  0.11673086  1
  Si  Si182  1  0.97436126  0.32557152  0.38739012  1
  Si  Si183  1  0.85744358  0.91834719  0.11562281  1
  Si  Si184  1  0.35966669  0.33684258  0.11787967  1
  Si  Si185  1  0.80979387  0.07664648  0.38849752  1
  Si  Si186  1  0.53070233  0.08529435  0.61367598  1
  Si  Si187  1  0.69680553  0.16639781  0.61799580  1
  Si  Si188  1  0.19619931  0.57316919  0.11095002  1
  Si  Si189  1  0.19411863  0.57611238  0.61063409  1
  Si  Si190  1  0.53189154  0.91735018  0.11239777  1
  Si  Si191  1  0.98108542  0.82601633  0.88532171  1
  O  O192  1  0.26796163  0.13567145  0.08444936  1
  O  O193  1  0.28334481  0.12693302  0.57226087  1
  O  O194  1  0.28435426  0.58123996  0.08357957  1
  O  O195  1  0.27535519  0.60099124  0.57892996  1
  O  O196  1  0.60220476  0.11754443  0.08578269  1
  O  O197  1  0.61102670  0.12086660  0.58514147  1
  O  O198  1  0.61846504  0.61540194  0.08799059  1
  O  O199  1  0.61659846  0.61443245  0.58571358  1
  O  O200  1  0.93496729  0.11907109  0.08589688  1
  O  O201  1  0.93692931  0.10613693  0.58475563  1
  O  O202  1  0.94631701  0.60209978  0.06601064  1
  O  O203  1  0.93003239  0.60260922  0.57189433  1
  O  O204  1  0.10362306  0.35951879  0.08835900  1
  O  O205  1  0.11907277  0.35826474  0.57913742  1
  O  O206  1  0.09507583  0.86765250  0.07280276  1
  O  O207  1  0.10125575  0.86835396  0.58039556  1
  O  O208  1  0.43612698  0.37893727  0.08961015  1
  O  O209  1  0.44276738  0.37407706  0.58694003  1
  O  O210  1  0.46371313  0.86117106  0.07665180  1
  O  O211  1  0.43484725  0.88143215  0.57920113  1
  O  O212  1  0.77166112  0.35614247  0.08682526  1
  O  O213  1  0.76901632  0.36808148  0.58530390  1
  O  O214  1  0.77821290  0.86355646  0.08648656  1
  O  O215  1  0.76907008  0.86852348  0.58368946  1
  O  O216  1  0.26812936  0.37484822  0.08728450  1
  O  O217  1  0.28044882  0.38119407  0.58440090  1
  O  O218  1  0.28327203  0.90102096  0.06717800  1
  O  O219  1  0.26928594  0.87844877  0.57880291  1
  O  O220  1  0.60266164  0.37322593  0.08882784  1
  O  O221  1  0.60518814  0.37197447  0.58758294  1
  O  O222  1  0.62288496  0.89762660  0.08921573  1
  O  O223  1  0.60410330  0.87989371  0.58549611  1
  O  O224  1  0.93659854  0.38078399  0.08917529  1
  O  O225  1  0.92821189  0.39889756  0.57344444  1
  O  O226  1  0.93912401  0.89095206  0.08615005  1
  O  O227  1  0.93570131  0.88809154  0.58211757  1
  O  O228  1  0.10314567  0.14586507  0.08626648  1
  O  O229  1  0.09206963  0.14060071  0.57288362  1
  O  O230  1  0.12784475  0.63169449  0.07674498  1
  O  O231  1  0.11522868  0.62554242  0.57644997  1
  O  O232  1  0.43584976  0.12837494  0.08646504  1
  O  O233  1  0.44796196  0.13375888  0.58276876  1
  O  O234  1  0.45684817  0.62899993  0.07827585  1
  O  O235  1  0.45412428  0.62381122  0.57323712  1
  O  O236  1  0.76923213  0.12935973  0.09060834  1
  O  O237  1  0.77336271  0.12996680  0.58480995  1
  O  O238  1  0.77348562  0.65301584  0.08000976  1
  O  O239  1  0.77618270  0.63996552  0.58502206  1
  O  O240  1  0.06644230  0.11698288  0.41690690  1
  O  O241  1  0.06252896  0.12655179  0.91534285  1
  O  O242  1  0.04723386  0.62094450  0.42350137  1
  O  O243  1  0.04787230  0.60364060  0.90999533  1
  O  O244  1  0.39666035  0.11948369  0.41429280  1
  O  O245  1  0.38492512  0.10415661  0.91105742  1
  O  O246  1  0.39129193  0.62438760  0.41377740  1
  O  O247  1  0.39959944  0.61757876  0.92035746  1
  O  O248  1  0.73142854  0.11311287  0.41927946  1
  O  O249  1  0.73741867  0.10731687  0.92623990  1
  O  O250  1  0.71394311  0.62084352  0.42626491  1
  O  O251  1  0.72698919  0.62072961  0.91596100  1
  O  O252  1  0.22366795  0.35477274  0.41772457  1
  O  O253  1  0.22156700  0.34336446  0.91957864  1
  O  O254  1  0.23149119  0.87381440  0.41412485  1
  O  O255  1  0.22773922  0.88103752  0.90882107  1
  O  O256  1  0.54942601  0.37583937  0.42830468  1
  O  O257  1  0.56903849  0.35747478  0.92937564  1
  O  O258  1  0.56517527  0.87672284  0.41435211  1
  O  O259  1  0.54804160  0.86279287  0.91281829  1
  O  O260  1  0.89695609  0.36125057  0.41789983  1
  O  O261  1  0.88494630  0.36791841  0.91710679  1
  O  O262  1  0.89929473  0.87001283  0.41498162  1
  O  O263  1  0.90595365  0.84969931  0.92361533  1
  O  O264  1  0.06257400  0.36776804  0.41666334  1
  O  O265  1  0.04703111  0.38507245  0.92504480  1
  O  O266  1  0.06315162  0.88918087  0.41264370  1
  O  O267  1  0.06486985  0.87701959  0.91165097  1
  O  O268  1  0.38471655  0.38481048  0.41770884  1
  O  O269  1  0.38365773  0.37308807  0.92559841  1
  O  O270  1  0.39731880  0.87724333  0.41342380  1
  O  O271  1  0.38682448  0.90005864  0.90788192  1
  O  O272  1  0.73871883  0.38631324  0.42690481  1
  O  O273  1  0.72370687  0.39709902  0.91922373  1
  O  O274  1  0.73169319  0.87369659  0.41581426  1
  O  O275  1  0.71172953  0.88365587  0.92102600  1
  O  O276  1  0.23101117  0.13076905  0.41374326  1
  O  O277  1  0.22520908  0.12621624  0.91227948  1
  O  O278  1  0.23185749  0.63836380  0.42277402  1
  O  O279  1  0.20502573  0.64888494  0.91800015  1
  O  O280  1  0.56533666  0.11679629  0.41773841  1
  O  O281  1  0.54633859  0.13709145  0.92180787  1
  O  O282  1  0.55123967  0.63503526  0.41511299  1
  O  O283  1  0.56242966  0.63514850  0.91600110  1
  O  O284  1  0.89945859  0.11965308  0.41450340  1
  O  O285  1  0.89716650  0.13801730  0.91714388  1
  O  O286  1  0.88790762  0.66107774  0.41810579  1
  O  O287  1  0.88951555  0.63835573  0.91204408  1
  O  O288  1  0.16795389  0.01993267  0.07189160  1
  O  O289  1  0.17412021  -0.00759318  0.57093910  1
  O  O290  1  0.16293779  0.48987361  0.08759806  1
  O  O291  1  0.17467912  0.49186230  0.58566779  1
  O  O292  1  0.50883207  0.00091136  0.08641349  1
  O  O293  1  0.52080845  0.00291284  0.58219143  1
  O  O294  1  0.52598945  0.49825458  0.08703148  1
  O  O295  1  0.52773834  0.49625642  0.58659966  1
  O  O296  1  0.83587989  0.00026102  0.08445371  1
  O  O297  1  0.83207272  -0.00139834  0.58638943  1
  O  O298  1  0.82286419  0.48725319  0.07764347  1
  O  O299  1  0.81871012  0.50160521  0.59396844  1
  O  O300  1  -0.00314805  0.25083242  0.08682172  1
  O  O301  1  -0.02198173  0.24303930  0.57823983  1
  O  O302  1  -0.00718866  0.75729275  0.07553746  1
  O  O303  1  -0.00349688  0.75777898  0.57501480  1
  O  O304  1  0.35834673  0.25420363  0.08725898  1
  O  O305  1  0.35904115  0.25350411  0.58337555  1
  O  O306  1  0.32280535  0.74449603  0.06897088  1
  O  O307  1  0.35237007  0.75831646  0.57293152  1
  O  O308  1  0.67213346  0.24583093  0.08784141  1
  O  O309  1  0.68307149  0.24858131  0.58853860  1
  O  O310  1  0.66399254  0.75648768  0.08863488  1
  O  O311  1  0.67304457  0.75026282  0.58241663  1
  O  O312  1  0.16234152  0.00160406  0.41301764  1
  O  O313  1  0.14176674  0.00195948  0.90930907  1
  O  O314  1  0.15895417  0.48511456  0.42663123  1
  O  O315  1  0.17371039  0.50908556  0.92174830  1
  O  O316  1  0.48091672  -0.00207653  0.41481316  1
  O  O317  1  0.49981993  0.00087401  0.91005212  1
  O  O318  1  0.47762168  0.50435277  0.41904580  1
  O  O319  1  0.50056889  0.50636378  0.92420562  1
  O  O320  1  0.82085858  -0.00564655  0.42031676  1
  O  O321  1  0.84949691  0.00430147  0.92483046  1
  O  O322  1  0.84428879  0.49512339  0.42380413  1
  O  O323  1  0.82730846  0.50506533  0.91092303  1
  O  O324  1  0.32913623  0.24784485  0.41476932  1
  O  O325  1  0.33006424  0.23880637  0.91471447  1
  O  O326  1  0.32315324  0.75323590  0.41272653  1
  O  O327  1  0.33285134  0.76847999  0.91716487  1
  O  O328  1  0.65335243  0.23733220  0.42844680  1
  O  O329  1  0.68434517  0.25923356  0.92288384  1
  O  O330  1  0.64470217  0.75204127  0.41550054  1
  O  O331  1  0.65512807  0.74976036  0.91750698  1
  O  O332  1  0.98639401  0.24251004  0.41841237  1
  O  O333  1  0.98664894  0.25298364  0.91575787  1
  O  O334  1  1.00494175  0.75846893  0.41514741  1
  O  O335  1  1.00651748  0.74274518  0.91056915  1
  O  O336  1  0.20910691  0.08843002  0.19145379  1
  O  O337  1  0.21196875  0.08613307  0.69615889  1
  O  O338  1  0.21078238  0.57824094  0.19260886  1
  O  O339  1  0.21002970  0.57978574  0.69197837  1
  O  O340  1  0.54113873  0.08295548  0.19649217  1
  O  O341  1  0.54435918  0.08382851  0.69329551  1
  O  O342  1  0.54694187  0.58286289  0.19597807  1
  O  O343  1  0.54390690  0.58412251  0.69384126  1
  O  O344  1  0.87928382  0.07725480  0.19501739  1
  O  O345  1  0.87521881  0.08314627  0.69650208  1
  O  O346  1  0.87915157  0.58338203  0.20025769  1
  O  O347  1  0.88117653  0.59310107  0.69144919  1
  O  O348  1  0.04417775  0.32891871  0.19777156  1
  O  O349  1  0.04326716  0.33171609  0.69980459  1
  O  O350  1  0.04385440  0.83238519  0.18955436  1
  O  O351  1  0.03909712  0.83497818  0.68988553  1
  O  O352  1  0.37371999  0.33375716  0.19763844  1
  O  O353  1  0.37745754  0.33185461  0.69551364  1
  O  O354  1  0.37933481  0.83364204  0.19800724  1
  O  O355  1  0.37666204  0.83557365  0.68898994  1
  O  O356  1  0.70890944  0.33130968  0.19749931  1
  O  O357  1  0.71177648  0.33480745  0.69824197  1
  O  O358  1  0.71210459  0.83533371  0.19703249  1
  O  O359  1  0.71189226  0.82773176  0.69330737  1
  O  O360  1  0.20937002  0.41139912  0.19723225  1
  O  O361  1  0.21479470  0.41141358  0.69414089  1
  O  O362  1  0.21172245  0.91949529  0.19655065  1
  O  O363  1  0.20984805  0.91497288  0.68773708  1
  O  O364  1  0.54547664  0.41931512  0.19842808  1
  O  O365  1  0.54572030  0.41578396  0.69775251  1
  O  O366  1  0.54541802  0.91710048  0.19400895  1
  O  O367  1  0.53559430  0.91923845  0.69191076  1
  O  O368  1  0.86754699  0.41571646  0.19557894  1
  O  O369  1  0.88010606  0.40739015  0.69258157  1
  O  O370  1  0.87056663  0.91852759  0.19541988  1
  O  O371  1  0.87560139  0.91530101  0.69368058  1
  O  O372  1  0.04001604  0.16658072  0.19575718  1
  O  O373  1  0.03811854  0.16618292  0.68985527  1
  O  O374  1  0.04358321  0.66674185  0.19869181  1
  O  O375  1  0.04578269  0.66679024  0.69915966  1
  O  O376  1  0.37698803  0.16759477  0.19557231  1
  O  O377  1  0.37872552  0.16705912  0.69128741  1
  O  O378  1  0.37920202  0.66548069  0.20171718  1
  O  O379  1  0.38196041  0.66689834  0.69986223  1
  O  O380  1  0.69858822  0.16479316  0.19737092  1
  O  O381  1  0.71568564  0.16401189  0.69706303  1
  O  O382  1  0.71028163  0.67096633  0.19549414  1
  O  O383  1  0.70925839  0.66910246  0.69467620  1
  O  O384  1  0.12668821  0.08429061  0.30429858  1
  O  O385  1  0.11707097  0.08807693  0.80227013  1
  O  O386  1  0.12364373  0.58130230  0.29987777  1
  O  O387  1  0.12608341  0.58306267  0.80570740  1
  O  O388  1  0.45683723  0.08199195  0.30500291  1
  O  O389  1  0.45531262  0.08601654  0.80317732  1
  O  O390  1  0.45618036  0.58179610  0.30576199  1
  O  O391  1  0.46024093  0.58317191  0.80823177  1
  O  O392  1  0.78614632  0.07367124  0.30934169  1
  O  O393  1  0.79525822  0.08334995  0.81137418  1
  O  O394  1  0.78699417  0.58533696  0.30069286  1
  O  O395  1  0.78437076  0.59193536  0.80455258  1
  O  O396  1  0.29011262  0.33137015  0.30710247  1
  O  O397  1  0.29112166  0.32862844  0.80806724  1
  O  O398  1  0.29059135  0.83506075  0.30331808  1
  O  O399  1  0.28972764  0.83830998  0.80023422  1
  O  O400  1  0.62153203  0.33274149  0.30356935  1
  O  O401  1  0.62303114  0.33877385  0.81232247  1
  O  O402  1  0.62376478  0.83482537  0.30512097  1
  O  O403  1  0.61691661  0.82723459  0.80761354  1
  O  O404  1  0.95476548  0.32619708  0.30791368  1
  O  O405  1  0.95473304  0.33514067  0.80822704  1
  O  O406  1  0.95813237  0.83526794  0.30392914  1
  O  O407  1  0.95997527  0.83081937  0.80430260  1
  O  O408  1  0.12901222  0.41295475  0.30970902  1
  O  O409  1  0.12434439  0.41678076  0.79873827  1
  O  O410  1  0.12866711  0.91844557  0.30317876  1
  O  O411  1  0.11929883  0.91656475  0.79929831  1
  O  O412  1  0.45300044  0.41987026  0.31079467  1
  O  O413  1  0.45497972  0.41522588  0.80036713  1
  O  O414  1  0.45831079  0.91757058  0.30391965  1
  O  O415  1  0.45710368  0.91851166  0.80054522  1
  O  O416  1  0.79254620  0.41684188  0.31093298  1
  O  O417  1  0.78595118  0.41290413  0.80734742  1
  O  O418  1  0.79045638  0.91536037  0.30728262  1
  O  O419  1  0.80156461  0.91584933  0.80333290  1
  O  O420  1  0.29095128  0.16556663  0.30442806  1
  O  O421  1  0.28942974  0.16449191  0.80292166  1
  O  O422  1  0.28682356  0.66742620  0.30473309  1
  O  O423  1  0.28613588  0.66889969  0.79623402  1
  O  O424  1  0.62415593  0.16226262  0.31097524  1
  O  O425  1  0.62161423  0.16749321  0.80044533  1
  O  O426  1  0.62244890  0.66736061  0.30765464  1
  O  O427  1  0.62342895  0.66765031  0.80547779  1
  O  O428  1  0.96724880  0.16375339  0.30782519  1
  O  O429  1  0.95782751  0.16773611  0.80484360  1
  O  O430  1  0.95832521  0.67258629  0.30789423  1
  O  O431  1  0.95485219  0.66604709  0.80278920  1
  F  F432  1  0.04689966  0.00597865  0.20006794  1
  F  F433  1  0.03630887  0.00020437  0.69566275  1
  F  F434  1  0.04506085  0.49625265  0.20112280  1
  F  F435  1  0.04619402  0.50120018  0.69813905  1
  F  F436  1  0.37972919  0.00254573  0.20058697  1
  F  F437  1  0.38036497  0.00228468  0.69738302  1
  F  F438  1  0.38032191  0.49705917  0.20443592  1
  F  F439  1  0.37959560  0.50081541  0.70218925  1
  F  F440  1  0.71139449  0.00019561  0.20423396  1
  F  F441  1  0.71640544  0.01128406  0.70069489  1
  F  F442  1  0.70976709  0.49640741  0.20543809  1
  F  F443  1  0.69688312  0.49944176  0.69983834  1
  F  F444  1  0.21305996  0.24982670  0.20404989  1
  F  F445  1  0.21296106  0.24941335  0.70176424  1
  F  F446  1  0.21215926  0.74975102  0.20112347  1
  F  F447  1  0.21067199  0.75387469  0.69634284  1
  F  F448  1  0.54487269  0.24350069  0.20277815  1
  F  F449  1  0.53850013  0.25375703  0.69972662  1
  F  F450  1  0.54824932  0.74951435  0.20431955  1
  F  F451  1  0.54590673  0.75041268  0.70094864  1
  F  F452  1  0.88058190  0.25727382  0.19979239  1
  F  F453  1  0.87712441  0.24853458  0.70386899  1
  F  F454  1  0.87793272  0.75174092  0.20327597  1
  F  F455  1  0.87778863  0.75235809  0.70149425  1
  F  F456  1  0.28998434  0.00328710  0.29606886  1
  F  F457  1  0.29378921  -0.00087378  0.79538779  1
  F  F458  1  0.28734620  0.49900931  0.29760670  1
  F  F459  1  0.28912445  0.49948181  0.79635500  1
  F  F460  1  0.61953634  -0.00190956  0.29906882  1
  F  F461  1  0.61560649  0.01118692  0.80246572  1
  F  F462  1  0.62106558  0.50169866  0.30186805  1
  F  F463  1  0.62045133  0.50293477  0.80044960  1
  F  F464  1  0.95418920  0.00405957  0.30282906  1
  F  F465  1  0.95709505  0.00074373  0.79636450  1
  F  F466  1  0.95618402  0.50106372  0.30125517  1
  F  F467  1  0.96579149  0.50037944  0.79792116  1
  F  F468  1  0.12265963  0.24712296  0.29943787  1
  F  F469  1  0.12118420  0.24544741  0.79657756  1
  F  F470  1  0.12404328  0.75443534  0.29621376  1
  F  F471  1  0.12311677  0.75513599  0.79368529  1
  F  F472  1  0.45109490  0.24225750  0.30401772  1
  F  F473  1  0.45304743  0.24860532  0.79843930  1
  F  F474  1  0.45844115  0.75146258  0.30079937  1
  F  F475  1  0.45399657  0.75414097  0.79626664  1
  F  F476  1  0.78220600  0.25766003  0.30469226  1
  F  F477  1  0.79546975  0.25002482  0.80263329  1
  F  F478  1  0.78828018  0.75377610  0.29927245  1
  F  F479  1  0.78853530  0.75022572  0.79824361  1
