# generated using pymatgen
data_K24Na3Li5Mg64Fe17Si79(O5F)48
_symmetry_space_group_name_H-M   'P 1'
_cell_length_a   16.10509036
_cell_length_b   18.58321103
_cell_length_c   20.55637700
_cell_angle_alpha   89.99400325
_cell_angle_beta   100.00694073
_cell_angle_gamma   90.01501076
_symmetry_Int_Tables_number   1
_chemical_formula_structural   K24Na3Li5Mg64Fe17Si79(O5F)48
_chemical_formula_sum   'K24 Na3 Li5 Mg64 Fe17 Si79 O240 F48'
_cell_volume   6058.60532365
_cell_formula_units_Z   1
loop_
 _symmetry_equiv_pos_site_id
 _symmetry_equiv_pos_as_xyz
  1  'x, y, z'
loop_
 _atom_site_type_symbol
 _atom_site_label
 _atom_site_symmetry_multiplicity
 _atom_site_fract_x
 _atom_site_fract_y
 _atom_site_fract_z
 _atom_site_occupancy
  K  K0  1  -0.01755055  0.00441015  -0.00202520  1
  K  K1  1  0.00889497  -0.00534622  0.50416143  1
  K  K2  1  -0.00553096  0.49809572  -0.00366437  1
  K  K3  1  0.00629874  0.50164001  0.50348126  1
  K  K4  1  0.33317720  -0.00025290  -0.00743705  1
  K  K5  1  0.33000905  0.00198449  0.50251439  1
  K  K6  1  0.32513270  0.50610459  -0.00834918  1
  K  K7  1  0.33485861  0.49797678  0.50320322  1
  K  K8  1  0.68254507  -0.00399397  -0.00163176  1
  K  K9  1  0.66941033  -0.00244784  0.50790649  1
  K  K10  1  0.66739772  0.49902915  -0.00396353  1
  K  K11  1  0.67220041  0.49374567  0.50822584  1
  K  K12  1  0.15655243  0.25308027  -0.00273782  1
  K  K13  1  0.16033699  0.25396582  0.49685810  1
  K  K14  1  0.16946922  0.74421255  -0.01034184  1
  K  K15  1  0.16739272  0.74210581  0.51166400  1
  K  K16  1  0.50482735  0.25361665  -0.00741425  1
  K  K17  1  0.50243789  0.25972907  0.50793478  1
  K  K18  1  0.49722845  0.73985612  -0.01331814  1
  K  K19  1  0.50154251  0.75480903  0.51087299  1
  K  K20  1  0.84094532  0.25196734  -0.00034420  1
  K  K21  1  0.83932336  0.25618437  0.50039793  1
  K  K22  1  0.82984774  0.75447938  -0.00833163  1
  K  K23  1  0.84374950  0.75063425  0.51048513  1
  Na  Na24  1  0.16913097  0.50032041  0.25964936  1
  Na  Na25  1  0.49798599  0.17204574  0.75095477  1
  Na  Na26  1  0.83289819  0.33077818  0.25339700  1
  Li  Li27  1  0.66472893  0.75404231  0.74902849  1
  Li  Li28  1  0.33876525  0.25102738  0.75210063  1
  Li  Li29  1  0.50376359  0.82757197  0.74698273  1
  Li  Li30  1  0.82698590  0.82738026  0.75028749  1
  Li  Li31  1  0.17167046  0.66582291  0.74612326  1
  Mg  Mg32  1  0.33536832  0.74897066  0.74842208  1
  Mg  Mg33  1  0.16717707  0.00009659  0.75048987  1
  Mg  Mg34  1  0.66755003  0.25161407  0.74917896  1
  Mg  Mg35  1  0.83482443  0.50127419  0.75074145  1
  Mg  Mg36  1  0.66397004  0.74787560  0.24393777  1
  Mg  Mg37  1  0.50052343  0.00045536  0.25048251  1
  Mg  Mg38  1  0.16929248  0.50210090  0.75190741  1
  Mg  Mg39  1  -0.00125051  0.24958756  0.75540989  1
  Mg  Mg40  1  -0.00016597  0.74708073  0.24983056  1
  Mg  Mg41  1  0.49983624  -0.00158853  0.75055373  1
  Mg  Mg42  1  0.83208782  0.49788296  0.25170343  1
  Mg  Mg43  1  0.16545771  -0.00106239  0.25472161  1
  Mg  Mg44  1  0.00026642  0.25154914  0.25348428  1
  Mg  Mg45  1  0.33201391  0.24863390  0.25323824  1
  Mg  Mg46  1  0.83133137  -0.00493662  0.74975420  1
  Mg  Mg47  1  0.50134637  0.50300633  0.74796053  1
  Mg  Mg48  1  0.83432542  -0.00135929  0.24398477  1
  Mg  Mg49  1  0.49836452  0.49974199  0.24255189  1
  Mg  Mg50  1  0.00246824  0.75203389  0.74716965  1
  Mg  Mg51  1  0.66601263  0.25106575  0.24450488  1
  Mg  Mg52  1  0.33266827  0.75120173  0.25259109  1
  Mg  Mg53  1  0.50092336  0.33343973  0.75071907  1
  Mg  Mg54  1  0.16834687  0.16530396  0.25437068  1
  Mg  Mg55  1  0.16808556  0.83320247  0.25233606  1
  Mg  Mg56  1  0.33623640  0.91528806  0.74999494  1
  Mg  Mg57  1  0.33351862  0.08348983  0.25424669  1
  Mg  Mg58  1  0.33468827  0.08685374  0.75054558  1
  Mg  Mg59  1  -0.00090643  0.08372538  0.75393908  1
  Mg  Mg60  1  0.16785896  0.33528425  0.25705408  1
  Mg  Mg61  1  0.33324775  0.41521962  0.25082774  1
  Mg  Mg62  1  0.66701005  0.08491399  0.24467781  1
  Mg  Mg63  1  0.66432072  0.08267805  0.74930395  1
  Mg  Mg64  1  0.33287414  0.58666175  0.74950131  1
  Mg  Mg65  1  0.83290560  0.16547721  0.75201690  1
  Mg  Mg66  1  0.66127852  0.58260844  0.24406597  1
  Mg  Mg67  1  -0.00041167  0.41662399  0.75304405  1
  Mg  Mg68  1  0.49874330  0.83477705  0.24848326  1
  Mg  Mg69  1  0.83309954  0.67310695  0.75149700  1
  Mg  Mg70  1  0.83441138  0.16468383  0.24709068  1
  Mg  Mg71  1  0.00200194  0.41613086  0.25719340  1
  Mg  Mg72  1  0.66575971  0.91489091  0.24409178  1
  Mg  Mg73  1  -0.00226441  0.08430604  0.24980483  1
  Mg  Mg74  1  0.49807687  0.33422152  0.24337146  1
  Mg  Mg75  1  0.33452105  0.41438312  0.74984863  1
  Mg  Mg76  1  -0.00273732  0.91405391  0.24675707  1
  Mg  Mg77  1  0.33318278  0.91603748  0.25359108  1
  Mg  Mg78  1  -0.00294980  0.91407283  0.74762387  1
  Mg  Mg79  1  0.83161656  0.66454835  0.24890104  1
  Mg  Mg80  1  0.16945461  0.66468103  0.25500847  1
  Mg  Mg81  1  0.33362102  0.58379264  0.25092057  1
  Mg  Mg82  1  0.49705608  0.66519301  0.24374514  1
  Mg  Mg83  1  0.66965486  0.41709421  0.74932535  1
  Mg  Mg84  1  0.66827416  0.58932393  0.75037982  1
  Mg  Mg85  1  0.66476684  0.91119529  0.74946550  1
  Mg  Mg86  1  0.16725571  0.83168167  0.74964598  1
  Mg  Mg87  1  0.66261780  0.41647367  0.24467606  1
  Mg  Mg88  1  0.16863481  0.33189839  0.75108525  1
  Mg  Mg89  1  0.00326547  0.58693020  0.74865079  1
  Mg  Mg90  1  0.49932004  0.16555920  0.24904678  1
  Mg  Mg91  1  0.50118923  0.67232684  0.74826707  1
  Mg  Mg92  1  0.83165902  0.83354079  0.24401621  1
  Mg  Mg93  1  0.00246106  0.58182393  0.25562255  1
  Mg  Mg94  1  0.83314929  0.33721284  0.75308829  1
  Mg  Mg95  1  0.16933894  0.16745240  0.75367714  1
  Fe  Fe96  1  0.69142628  0.33062410  0.60897594  1
  Fe  Fe97  1  0.86358206  0.41733188  0.61049266  1
  Fe  Fe98  1  0.31586690  0.83573172  0.39278879  1
  Fe  Fe99  1  0.02546348  0.83686553  0.60786051  1
  Fe  Fe100  1  0.19179040  0.57331448  0.60973456  1
  Fe  Fe101  1  0.80795898  0.42341213  0.89369603  1
  Fe  Fe102  1  0.51459482  0.58523591  0.10245752  1
  Fe  Fe103  1  0.14619514  0.59340987  0.39707276  1
  Fe  Fe104  1  0.51508963  0.41303595  0.10228204  1
  Fe  Fe105  1  0.31083347  0.66513100  0.88998361  1
  Fe  Fe106  1  0.97450408  0.16314425  0.89322100  1
  Fe  Fe107  1  0.85908668  0.91087710  0.10410153  1
  Fe  Fe108  1  0.31434703  0.16228452  0.39368996  1
  Fe  Fe109  1  0.85939510  0.08807203  0.10631039  1
  Fe  Fe110  1  0.97300207  0.33227840  0.39639927  1
  Fe  Fe111  1  0.14758966  0.41485684  0.39998964  1
  Fe  Fe112  1  0.36089316  0.66818005  0.60713549  1
  Si  Si113  1  0.68485191  0.82799445  0.10808907  1
  Si  Si114  1  0.47405150  0.41713774  0.38126428  1
  Si  Si115  1  0.19792202  0.41554842  0.11697792  1
  Si  Si116  1  0.18978039  0.08064935  0.11756249  1
  Si  Si117  1  0.35184867  0.32154881  0.11088339  1
  Si  Si118  1  0.85500706  0.08262099  0.61545109  1
  Si  Si119  1  0.36339188  0.33349885  0.61611935  1
  Si  Si120  1  0.69255456  0.66163661  0.11013122  1
  Si  Si121  1  0.03234841  0.82512506  0.11108477  1
  Si  Si122  1  0.19709991  0.92388030  0.61312494  1
  Si  Si123  1  0.03028130  0.65956628  0.11582062  1
  Si  Si124  1  0.02317449  0.66572958  0.61167246  1
  Si  Si125  1  0.35217979  0.67775053  0.11143581  1
  Si  Si126  1  0.97968334  0.33505669  0.89378500  1
  Si  Si127  1  0.79669029  0.42067431  0.38569610  1
  Si  Si128  1  0.80152252  0.08055592  0.38168764  1
  Si  Si129  1  0.13746238  0.07912053  0.38891939  1
  Si  Si130  1  0.03348018  0.17368082  0.11537342  1
  Si  Si131  1  0.13680361  0.58238256  0.88815657  1
  Si  Si132  1  0.63598877  0.33467319  0.38116553  1
  Si  Si133  1  0.80536993  0.91091191  0.88291177  1
  Si  Si134  1  0.47331897  0.08408933  0.88638113  1
  Si  Si135  1  0.31776534  0.33060871  0.39054822  1
  Si  Si136  1  0.63637865  0.83479945  0.88365564  1
  Si  Si137  1  0.96559117  0.66867191  0.38787389  1
  Si  Si138  1  0.63545779  0.66607963  0.38152982  1
  Si  Si139  1  0.52257302  0.91660830  0.11201246  1
  Si  Si140  1  0.97559936  0.67119280  0.88481260  1
  Si  Si141  1  0.97708356  0.83597804  0.88394726  1
  Si  Si142  1  0.97158874  0.15940318  0.38904206  1
  Si  Si143  1  0.69724971  0.67031265  0.61668504  1
  Si  Si144  1  0.35393716  0.15786520  0.11529569  1
  Si  Si145  1  0.52494085  0.91590174  0.61464493  1
  Si  Si146  1  0.69095287  0.33760548  0.11006442  1
  Si  Si147  1  0.86145471  0.58323337  0.11580906  1
  Si  Si148  1  0.03005410  0.33974799  0.11774314  1
  Si  Si149  1  0.14766146  0.08182771  0.89081183  1
  Si  Si150  1  0.13710817  0.91183288  0.38742265  1
  Si  Si151  1  0.19216377  0.08993514  0.61555103  1
  Si  Si152  1  0.63888324  0.67025273  0.88400898  1
  Si  Si153  1  0.80196174  0.07713069  0.88698186  1
  Si  Si154  1  0.03010050  0.32799489  0.61868534  1
  Si  Si155  1  0.48301598  0.92107535  0.38646220  1
  Si  Si156  1  0.79991370  0.58474448  0.38372732  1
  Si  Si157  1  0.47670895  0.41306613  0.88372889  1
  Si  Si158  1  0.52300961  0.07776173  0.61472244  1
  Si  Si159  1  0.18905438  0.91912121  0.11632444  1
  Si  Si160  1  0.68962871  0.83460958  0.61519805  1
  Si  Si161  1  0.19845754  0.58268060  0.11681190  1
  Si  Si162  1  0.47508931  0.92173670  0.88664561  1
  Si  Si163  1  0.31147869  0.83607988  0.88813687  1
  Si  Si164  1  0.80085977  0.91604939  0.38093972  1
  Si  Si165  1  0.30987265  0.16822986  0.88735389  1
  Si  Si166  1  0.47405414  0.58057534  0.38171016  1
  Si  Si167  1  0.85703189  0.58699210  0.61503175  1
  Si  Si168  1  0.68686898  0.16206132  0.61231669  1
  Si  Si169  1  0.64123567  0.16407070  0.88384407  1
  Si  Si170  1  0.35745203  0.83816973  0.61425160  1
  Si  Si171  1  0.14386901  0.91684889  0.88602779  1
  Si  Si172  1  0.48169098  0.57801822  0.88680956  1
  Si  Si173  1  0.52313204  0.08368915  0.11211528  1
  Si  Si174  1  0.52459663  0.42177597  0.61270957  1
  Si  Si175  1  0.86201949  0.41805757  0.11791711  1
  Si  Si176  1  0.02247615  0.16412094  0.61825700  1
  Si  Si177  1  0.53301749  0.58812682  0.61270247  1
  Si  Si178  1  0.35377258  0.84167240  0.11480135  1
  Si  Si179  1  0.19220455  0.40474571  0.61605144  1
  Si  Si180  1  0.80827183  0.59436079  0.88845503  1
  Si  Si181  1  0.35930849  0.16784221  0.61579765  1
  Si  Si182  1  0.14444372  0.41688639  0.88713700  1
  Si  Si183  1  0.64107448  0.32970019  0.88818086  1
  Si  Si184  1  0.31977050  0.67032855  0.38882916  1
  Si  Si185  1  0.68626040  0.17077041  0.10779408  1
  Si  Si186  1  0.96751986  0.83457579  0.38279016  1
  Si  Si187  1  0.64214831  0.17046217  0.38179014  1
  Si  Si188  1  0.48452326  0.08141380  0.38700109  1
  Si  Si189  1  0.63951145  0.83004041  0.38180683  1
  Si  Si190  1  0.30897446  0.33492593  0.88515002  1
  Si  Si191  1  0.85376848  0.91900231  0.61089415  1
  O  O192  1  0.27610092  0.10180912  0.08869050  1
  O  O193  1  0.26785802  0.12904952  0.58348775  1
  O  O194  1  0.26749691  0.62869832  0.08284146  1
  O  O195  1  0.28013803  0.60322038  0.56999576  1
  O  O196  1  0.59613400  0.12606909  0.08144585  1
  O  O197  1  0.60602056  0.10747168  0.58534096  1
  O  O198  1  0.61907997  0.60879021  0.07566785  1
  O  O199  1  0.62109619  0.61381822  0.58651505  1
  O  O200  1  0.95209400  0.13231450  0.07680751  1
  O  O201  1  0.93866801  0.11492189  0.58831631  1
  O  O202  1  0.94160982  0.61767491  0.08595802  1
  O  O203  1  0.93930897  0.61438053  0.58484355  1
  O  O204  1  0.10350725  0.38330515  0.08646903  1
  O  O205  1  0.12225721  0.33978993  0.59638979  1
  O  O206  1  0.11620155  0.86126341  0.08624020  1
  O  O207  1  0.11772057  0.87841524  0.57494913  1
  O  O208  1  0.42995537  0.34178053  0.07507780  1
  O  O209  1  0.43652857  0.37655002  0.58454151  1
  O  O210  1  0.43359870  0.87473209  0.08354796  1
  O  O211  1  0.44154979  0.86825070  0.58551218  1
  O  O212  1  0.78067079  0.36659496  0.08900284  1
  O  O213  1  0.77941567  0.35746882  0.56781766  1
  O  O214  1  0.75778577  0.85917652  0.07203825  1
  O  O215  1  0.76594070  0.87301283  0.58248257  1
  O  O216  1  0.26653114  0.36979361  0.08227662  1
  O  O217  1  0.27474082  0.37395546  0.58656378  1
  O  O218  1  0.27553792  0.89728722  0.08799307  1
  O  O219  1  0.28406253  0.89947859  0.58754133  1
  O  O220  1  0.61643229  0.38798338  0.07164470  1
  O  O221  1  0.59628758  0.38851647  0.57558630  1
  O  O222  1  0.59694664  0.87479858  0.08243131  1
  O  O223  1  0.60342506  0.88045718  0.58253904  1
  O  O224  1  0.94148768  0.38193243  0.08784373  1
  O  O225  1  0.96379057  0.38580102  0.58232778  1
  O  O226  1  0.94913659  0.86393089  0.07224451  1
  O  O227  1  0.92660165  0.88976278  0.57237969  1
  O  O228  1  0.11798929  0.13982451  0.08914569  1
  O  O229  1  0.10277057  0.13219143  0.58682273  1
  O  O230  1  0.10378964  0.61456049  0.08672414  1
  O  O231  1  0.09965190  0.63314941  0.57928520  1
  O  O232  1  0.43375483  0.12520256  0.08374669  1
  O  O233  1  0.43687904  0.12546801  0.58696754  1
  O  O234  1  0.43097975  0.65754123  0.07659542  1
  O  O235  1  0.46127238  0.64158184  0.57613898  1
  O  O236  1  0.75802414  0.13731474  0.07172247  1
  O  O237  1  0.77122920  0.13023220  0.58479394  1
  O  O238  1  0.78116921  0.63560893  0.08585742  1
  O  O239  1  0.78120937  0.64580353  0.58669646  1
  O  O240  1  0.05124338  0.10446089  0.41557469  1
  O  O241  1  0.07511464  0.11341539  0.92766448  1
  O  O242  1  0.04475171  0.62464564  0.42551097  1
  O  O243  1  0.05561394  0.61967309  0.91683148  1
  O  O244  1  0.40490257  0.09698040  0.42239258  1
  O  O245  1  0.39876829  0.12615405  0.91837110  1
  O  O246  1  0.39180135  0.60588185  0.41207484  1
  O  O247  1  0.40870677  0.61030614  0.92311648  1
  O  O248  1  0.72514400  0.12122650  0.41118344  1
  O  O249  1  0.72016864  0.11153660  0.91517710  1
  O  O250  1  0.71784387  0.61774222  0.41189118  1
  O  O251  1  0.73309938  0.63995136  0.91596850  1
  O  O252  1  0.23892082  0.34914539  0.42590489  1
  O  O253  1  0.23441447  0.37615391  0.91731458  1
  O  O254  1  0.21486397  0.86258919  0.42172896  1
  O  O255  1  0.22954887  0.87167587  0.91682114  1
  O  O256  1  0.55168038  0.36128726  0.40963690  1
  O  O257  1  0.55564673  0.36020959  0.91392121  1
  O  O258  1  0.56107328  0.86417952  0.41241307  1
  O  O259  1  0.56394446  0.87930988  0.91687524  1
  O  O260  1  0.87062615  0.36796720  0.41920433  1
  O  O261  1  0.91219739  0.38032351  0.92754825  1
  O  O262  1  0.88868802  0.87442018  0.41014018  1
  O  O263  1  0.89646247  0.87137582  0.91342461  1
  O  O264  1  0.06063028  0.38467711  0.44276346  1
  O  O265  1  0.07291476  0.37410091  0.91920464  1
  O  O266  1  0.05055557  0.88250461  0.41246759  1
  O  O267  1  0.06316574  0.88260313  0.91583098  1
  O  O268  1  0.39317487  0.39225356  0.41347393  1
  O  O269  1  0.39617054  0.37937214  0.91387006  1
  O  O270  1  0.40308844  0.90480115  0.42118994  1
  O  O271  1  0.39521992  0.88721067  0.91712440  1
  O  O272  1  0.70927251  0.39217280  0.41106904  1
  O  O273  1  0.72077486  0.37436665  0.92667656  1
  O  O274  1  0.72507944  0.87573937  0.41131360  1
  O  O275  1  0.73068229  0.86929951  0.91482949  1
  O  O276  1  0.21634046  0.12752641  0.42380229  1
  O  O277  1  0.23618357  0.12647601  0.91990149  1
  O  O278  1  0.23651885  0.65948882  0.42115432  1
  O  O279  1  0.21925742  0.62501194  0.92491725  1
  O  O280  1  0.56217059  0.13858961  0.41265447  1
  O  O281  1  0.55943812  0.13054992  0.91237869  1
  O  O282  1  0.55470027  0.63359005  0.41058456  1
  O  O283  1  0.57035301  0.62196904  0.91633005  1
  O  O284  1  0.88995917  0.11878674  0.41355650  1
  O  O285  1  0.88443716  0.11855848  0.92465448  1
  O  O286  1  0.87911224  0.63769680  0.41243032  1
  O  O287  1  0.89444010  0.64219451  0.91570978  1
  O  O288  1  0.16172453  0.00010623  0.08745678  1
  O  O289  1  0.18165134  0.00824406  0.58543318  1
  O  O290  1  0.20004957  0.49918348  0.08979561  1
  O  O291  1  0.15984809  0.47841188  0.57999656  1
  O  O292  1  0.51433644  0.00007028  0.08379529  1
  O  O293  1  0.50683640  -0.00294135  0.58101453  1
  O  O294  1  0.47233906  0.49930235  0.06657521  1
  O  O295  1  0.50989822  0.50533579  0.58526900  1
  O  O296  1  0.84526539  -0.00045599  0.06434030  1
  O  O297  1  0.83371117  0.00288133  0.58266947  1
  O  O298  1  0.84623685  0.50071431  0.08600083  1
  O  O299  1  0.82778094  0.51070398  0.58098430  1
  O  O300  1  0.02836649  0.25765207  0.08769335  1
  O  O301  1  0.00122954  0.24573513  0.59101365  1
  O  O302  1  0.03043854  0.74083039  0.08448005  1
  O  O303  1  0.00043150  0.74399221  0.57636974  1
  O  O304  1  0.32495838  0.23741733  0.08630538  1
  O  O305  1  0.35907714  0.25041998  0.58597268  1
  O  O306  1  0.32492637  0.76170722  0.08693608  1
  O  O307  1  0.33092572  0.76334312  0.57667246  1
  O  O308  1  0.67087198  0.25430051  0.08178804  1
  O  O309  1  0.66125149  0.23702355  0.57577884  1
  O  O310  1  0.66720611  0.74422981  0.08329556  1
  O  O311  1  0.67527742  0.75186469  0.58491815  1
  O  O312  1  0.15185064  -0.00495585  0.41513670  1
  O  O313  1  0.16457982  -0.00209235  0.91716926  1
  O  O314  1  0.18424372  0.50539906  0.42990685  1
  O  O315  1  0.14672744  0.49846082  0.91832895  1
  O  O316  1  0.52404381  0.00085740  0.40875829  1
  O  O317  1  0.48572720  0.00345524  0.92082387  1
  O  O318  1  0.50118457  0.49883157  0.40864987  1
  O  O319  1  0.49954481  0.49386043  0.91358506  1
  O  O320  1  0.80468899  -0.00220695  0.41116347  1
  O  O321  1  0.80914598  -0.00711871  0.91386662  1
  O  O322  1  0.81391354  0.50405160  0.41527388  1
  O  O323  1  0.81802622  0.51850621  0.92773647  1
  O  O324  1  0.35789074  0.25353853  0.41879361  1
  O  O325  1  0.31775110  0.25182458  0.91592479  1
  O  O326  1  0.36575578  0.74595107  0.41479919  1
  O  O327  1  0.32872909  0.75978455  0.92524191  1
  O  O328  1  0.65980374  0.25273792  0.41004876  1
  O  O329  1  0.65294888  0.24537876  0.91561248  1
  O  O330  1  0.65297330  0.74816134  0.41095223  1
  O  O331  1  0.63550728  0.75258745  0.91444243  1
  O  O332  1  0.98596156  0.23426851  0.42812070  1
  O  O333  1  0.98957023  0.25596759  0.92818777  1
  O  O334  1  0.97273566  0.75368929  0.41377219  1
  O  O335  1  0.99344535  0.75377188  0.91500247  1
  O  O336  1  0.20920908  0.07933860  0.19785157  1
  O  O337  1  0.20876068  0.08640583  0.69591671  1
  O  O338  1  0.21708043  0.59026320  0.19576901  1
  O  O339  1  0.21365880  0.57759986  0.70024007  1
  O  O340  1  0.54178701  0.08233942  0.19275005  1
  O  O341  1  0.54455341  0.07611582  0.69398436  1
  O  O342  1  0.54129918  0.58502534  0.19534016  1
  O  O343  1  0.54689732  0.58596507  0.69353910  1
  O  O344  1  0.87828056  0.08178941  0.19903286  1
  O  O345  1  0.87355311  0.08176702  0.69570943  1
  O  O346  1  0.87641410  0.58427941  0.19620890  1
  O  O347  1  0.87630468  0.58586546  0.69616893  1
  O  O348  1  0.04685040  0.33498702  0.19721306  1
  O  O349  1  0.04290840  0.33002662  0.69993083  1
  O  O350  1  0.04420219  0.83023552  0.19213269  1
  O  O351  1  0.04656900  0.83709075  0.69901437  1
  O  O352  1  0.37354557  0.32706179  0.19187715  1
  O  O353  1  0.38153833  0.33564257  0.69555949  1
  O  O354  1  0.37771174  0.83933724  0.19494735  1
  O  O355  1  0.37354524  0.83578101  0.69433742  1
  O  O356  1  0.69877032  0.33427676  0.18988588  1
  O  O357  1  0.71328094  0.33327725  0.70101268  1
  O  O358  1  0.70549727  0.83193079  0.18951112  1
  O  O359  1  0.70784105  0.83652823  0.69368646  1
  O  O360  1  0.21698252  0.40886311  0.19601484  1
  O  O361  1  0.21214647  0.41260127  0.69689605  1
  O  O362  1  0.20795881  0.91875152  0.19667752  1
  O  O363  1  0.21020948  0.92101491  0.69404688  1
  O  O364  1  0.54055251  0.41598993  0.19507603  1
  O  O365  1  0.54478722  0.41953249  0.69370808  1
  O  O366  1  0.54138882  0.91729014  0.19271447  1
  O  O367  1  0.54503075  0.92042845  0.69381969  1
  O  O368  1  0.88049471  0.42340643  0.19684025  1
  O  O369  1  0.88139196  0.41665461  0.70294491  1
  O  O370  1  0.87696499  0.91416947  0.19699462  1
  O  O371  1  0.87758358  0.92129169  0.69060848  1
  O  O372  1  0.04736730  0.16716651  0.19617472  1
  O  O373  1  0.04403545  0.16322729  0.69845972  1
  O  O374  1  0.04293227  0.66514230  0.19560674  1
  O  O375  1  0.03937262  0.66779862  0.69234640  1
  O  O376  1  0.37758730  0.16049001  0.19537508  1
  O  O377  1  0.36838447  0.16537974  0.69403313  1
  O  O378  1  0.37381152  0.67244283  0.19239177  1
  O  O379  1  0.38102499  0.66600882  0.69885205  1
  O  O380  1  0.70578604  0.16572191  0.18884095  1
  O  O381  1  0.70873846  0.16403855  0.69326182  1
  O  O382  1  0.70895073  0.66507205  0.19155549  1
  O  O383  1  0.71421032  0.66764468  0.69606042  1
  O  O384  1  0.12212756  0.08121113  0.30750120  1
  O  O385  1  0.12635295  0.08353347  0.80980701  1
  O  O386  1  0.11730133  0.59477240  0.30614965  1
  O  O387  1  0.11982128  0.57927163  0.80867118  1
  O  O388  1  0.46092966  0.08310686  0.30555048  1
  O  O389  1  0.45162615  0.07771071  0.80763229  1
  O  O390  1  0.45716938  0.58425802  0.30124425  1
  O  O391  1  0.46149752  0.58129878  0.80643455  1
  O  O392  1  0.78502511  0.07946477  0.30137562  1
  O  O393  1  0.78883384  0.08037190  0.80616731  1
  O  O394  1  0.78393272  0.58521072  0.30298655  1
  O  O395  1  0.79157571  0.58747869  0.80808478  1
  O  O396  1  0.29545494  0.33177777  0.30861886  1
  O  O397  1  0.28793087  0.33557132  0.80598973  1
  O  O398  1  0.28972021  0.83502578  0.30025135  1
  O  O399  1  0.29161028  0.83709753  0.80762989  1
  O  O400  1  0.62020394  0.33121826  0.30092170  1
  O  O401  1  0.62555446  0.33376425  0.80770951  1
  O  O402  1  0.62259554  0.83282610  0.30110218  1
  O  O403  1  0.62042226  0.83745927  0.80528276  1
  O  O404  1  0.96471108  0.33101366  0.30598917  1
  O  O405  1  0.95975429  0.33299891  0.81248985  1
  O  O406  1  0.95334567  0.83175905  0.30232737  1
  O  O407  1  0.96109659  0.83561010  0.80499465  1
  O  O408  1  0.12002484  0.40863839  0.30894603  1
  O  O409  1  0.12546030  0.41564565  0.80689281  1
  O  O410  1  0.12073343  0.91377389  0.30586921  1
  O  O411  1  0.12542581  0.91900783  0.80603000  1
  O  O412  1  0.45643658  0.41510247  0.30084823  1
  O  O413  1  0.45879935  0.41721440  0.80370668  1
  O  O414  1  0.46091621  0.91735801  0.30507374  1
  O  O415  1  0.45464184  0.92293219  0.80746334  1
  O  O416  1  0.77872276  0.42485763  0.30576498  1
  O  O417  1  0.78884153  0.42077805  0.80294205  1
  O  O418  1  0.78411654  0.91514133  0.30057182  1
  O  O419  1  0.78734531  0.91567673  0.80376452  1
  O  O420  1  0.29030102  0.16394365  0.30149409  1
  O  O421  1  0.28912338  0.16354910  0.80824456  1
  O  O422  1  0.29625380  0.66789541  0.30682467  1
  O  O423  1  0.29182858  0.66841302  0.80075738  1
  O  O424  1  0.62211136  0.16565771  0.30122237  1
  O  O425  1  0.63255735  0.16636201  0.80477566  1
  O  O426  1  0.62092232  0.66856506  0.30109674  1
  O  O427  1  0.62086645  0.66586739  0.80494094  1
  O  O428  1  0.95660041  0.16375239  0.30817988  1
  O  O429  1  0.95430652  0.16461552  0.80151229  1
  O  O430  1  0.95107369  0.66831182  0.30643149  1
  O  O431  1  0.95918466  0.66918047  0.80498882  1
  F  F432  1  0.04621888  -0.00105407  0.20352616  1
  F  F433  1  0.04574628  0.00281523  0.70434645  1
  F  F434  1  0.03350696  0.50001447  0.20296040  1
  F  F435  1  0.04651329  0.49862303  0.70524920  1
  F  F436  1  0.37894934  -0.00005783  0.20429656  1
  F  F437  1  0.37748038  0.00142501  0.70175044  1
  F  F438  1  0.37595248  0.49996588  0.19874731  1
  F  F439  1  0.38016645  0.49910756  0.70338138  1
  F  F440  1  0.70882452  -0.00109056  0.19630568  1
  F  F441  1  0.71121563  -0.00026133  0.70202347  1
  F  F442  1  0.71188185  0.50127655  0.19870636  1
  F  F443  1  0.71268669  0.50467754  0.70271116  1
  F  F444  1  0.21123177  0.24954965  0.20481243  1
  F  F445  1  0.20632608  0.24787119  0.70456557  1
  F  F446  1  0.21068799  0.74950835  0.20325073  1
  F  F447  1  0.21544820  0.75807572  0.69951725  1
  F  F448  1  0.54279562  0.24600994  0.19825779  1
  F  F449  1  0.55107231  0.26026192  0.69811221  1
  F  F450  1  0.54338031  0.75314984  0.19780693  1
  F  F451  1  0.54457031  0.74895900  0.69782928  1
  F  F452  1  0.88505289  0.23927251  0.19824914  1
  F  F453  1  0.87842448  0.25049115  0.70489482  1
  F  F454  1  0.87784574  0.74782452  0.19998979  1
  F  F455  1  0.88156330  0.74950366  0.70086113  1
  F  F456  1  0.28838611  -0.00082913  0.30050654  1
  F  F457  1  0.28735305  0.00122240  0.79765443  1
  F  F458  1  0.30590218  0.49967236  0.30182338  1
  F  F459  1  0.29156837  0.49629409  0.80142844  1
  F  F460  1  0.62303758  -0.00066713  0.29323935  1
  F  F461  1  0.62164692  0.00007175  0.79942461  1
  F  F462  1  0.61910150  0.50114683  0.29503637  1
  F  F463  1  0.62259069  0.50180204  0.79681243  1
  F  F464  1  0.95451960  -0.00317812  0.29875224  1
  F  F465  1  0.95368032  -0.00163284  0.79846681  1
  F  F466  1  0.94979262  0.50288340  0.30346031  1
  F  F467  1  0.95698952  0.50400878  0.80080737  1
  F  F468  1  0.12287231  0.24630902  0.30033734  1
  F  F469  1  0.12165028  0.24873105  0.80304069  1
  F  F470  1  0.11874394  0.75240311  0.29747176  1
  F  F471  1  0.12058549  0.75468930  0.80104389  1
  F  F472  1  0.45643369  0.24904381  0.29450395  1
  F  F473  1  0.45569908  0.26185896  0.80667546  1
  F  F474  1  0.45772247  0.75108437  0.29411446  1
  F  F475  1  0.45440684  0.74970133  0.80139731  1
  F  F476  1  0.77909298  0.23580732  0.29758865  1
  F  F477  1  0.78961700  0.24774203  0.80020113  1
  F  F478  1  0.78408289  0.75121413  0.29320897  1
  F  F479  1  0.79327801  0.74897207  0.80435681  1
