# generated using pymatgen
data_K24Na3Li5Mg64Fe17Si79(O5F)48
_symmetry_space_group_name_H-M   'P 1'
_cell_length_a   16.07957179
_cell_length_b   18.56249011
_cell_length_c   20.53489084
_cell_angle_alpha   90.00128550
_cell_angle_beta   100.00517260
_cell_angle_gamma   89.99754406
_symmetry_Int_Tables_number   1
_chemical_formula_structural   K24Na3Li5Mg64Fe17Si79(O5F)48
_chemical_formula_sum   'K24 Na3 Li5 Mg64 Fe17 Si79 O240 F48'
_cell_volume   6035.97811027
_cell_formula_units_Z   1
loop_
 _symmetry_equiv_pos_site_id
 _symmetry_equiv_pos_as_xyz
  1  'x, y, z'
loop_
 _atom_site_type_symbol
 _atom_site_label
 _atom_site_symmetry_multiplicity
 _atom_site_fract_x
 _atom_site_fract_y
 _atom_site_fract_z
 _atom_site_occupancy
  K  K0  1  0.00259675  0.00816562  -0.00225668  1
  K  K1  1  0.00891282  0.00730152  0.49912340  1
  K  K2  1  -0.00291955  0.49314527  -0.00264306  1
  K  K3  1  0.00494713  0.49071045  0.49466401  1
  K  K4  1  0.33085419  0.00527989  0.00203078  1
  K  K5  1  0.33004298  0.00900471  0.49566530  1
  K  K6  1  0.31881711  0.50415344  -0.00276343  1
  K  K7  1  0.32222657  0.50384110  0.49334717  1
  K  K8  1  0.66854847  0.00212284  -0.00097924  1
  K  K9  1  0.65910771  -0.00035811  0.49245403  1
  K  K10  1  0.67759697  0.49223879  -0.00377998  1
  K  K11  1  0.66859062  0.50010275  0.50100727  1
  K  K12  1  0.17541248  0.24753535  -0.00167213  1
  K  K13  1  0.14936769  0.24556051  0.50172540  1
  K  K14  1  0.17525595  0.74766806  -0.00027069  1
  K  K15  1  0.17146102  0.74588249  0.49565302  1
  K  K16  1  0.50301719  0.25195294  -0.00066983  1
  K  K17  1  0.49657232  0.24794203  0.49932343  1
  K  K18  1  0.48831867  0.74928192  -0.00189234  1
  K  K19  1  0.50228215  0.74960232  0.49359249  1
  K  K20  1  0.83016152  0.25355668  -0.00394285  1
  K  K21  1  0.84776132  0.25238279  0.50387244  1
  K  K22  1  0.83738740  0.74803111  0.00078020  1
  K  K23  1  0.82802276  0.75417225  0.49754249  1
  Na  Na24  1  0.50026629  0.50041799  0.75270322  1
  Na  Na25  1  0.32978545  0.57982805  0.25458752  1
  Na  Na26  1  0.66259875  0.07700993  0.24885359  1
  Li  Li27  1  0.50111816  -0.00046026  0.24990968  1
  Li  Li28  1  0.49960726  -0.00132144  0.75803014  1
  Li  Li29  1  -0.00112567  0.41907936  0.24369056  1
  Li  Li30  1  0.00124508  0.57569252  0.25239839  1
  Li  Li31  1  0.00120704  0.41257639  0.74696133  1
  Mg  Mg32  1  0.00101678  0.25240073  0.24648049  1
  Mg  Mg33  1  0.33258153  0.75077337  0.75434769  1
  Mg  Mg34  1  0.16076727  0.49932765  0.24965864  1
  Mg  Mg35  1  0.66510131  0.75027478  0.25454407  1
  Mg  Mg36  1  0.50186563  0.49876962  0.25252218  1
  Mg  Mg37  1  -0.00230969  0.74996877  0.75134176  1
  Mg  Mg38  1  0.33070021  0.25043266  0.74911402  1
  Mg  Mg39  1  0.83259448  -0.00053832  0.25283893  1
  Mg  Mg40  1  0.66596695  0.25069249  0.74976686  1
  Mg  Mg41  1  0.16576023  0.00118428  0.74819777  1
  Mg  Mg42  1  0.83450015  0.49788867  0.74752037  1
  Mg  Mg43  1  0.33369123  0.25126018  0.24823313  1
  Mg  Mg44  1  0.33237124  0.74784571  0.25432167  1
  Mg  Mg45  1  0.66811861  0.24711580  0.24670147  1
  Mg  Mg46  1  0.16250456  0.49831013  0.74830009  1
  Mg  Mg47  1  0.84140923  0.50062000  0.24964159  1
  Mg  Mg48  1  0.83008952  0.00013775  0.75113048  1
  Mg  Mg49  1  0.16856229  0.00233320  0.25072819  1
  Mg  Mg50  1  0.66520633  0.74971997  0.75133902  1
  Mg  Mg51  1  0.00144971  0.25113719  0.74464983  1
  Mg  Mg52  1  -0.00111487  0.74751484  0.25228888  1
  Mg  Mg53  1  0.16272552  0.33641840  0.24592042  1
  Mg  Mg54  1  -0.00083858  0.08527230  0.74685136  1
  Mg  Mg55  1  0.49894002  0.66461208  0.25608094  1
  Mg  Mg56  1  0.66529289  0.08325981  0.75101320  1
  Mg  Mg57  1  0.83705241  0.33520187  0.74458615  1
  Mg  Mg58  1  0.33161550  0.41721833  0.74814145  1
  Mg  Mg59  1  0.50113121  0.33387209  0.24861807  1
  Mg  Mg60  1  0.50009582  0.16401725  0.75159879  1
  Mg  Mg61  1  0.33285980  0.58471669  0.75157980  1
  Mg  Mg62  1  0.49960410  0.16449913  0.24713514  1
  Mg  Mg63  1  0.66140779  0.91647751  0.25342280  1
  Mg  Mg64  1  0.66794703  0.58219699  0.75074606  1
  Mg  Mg65  1  0.16416445  0.66378782  0.25236047  1
  Mg  Mg66  1  0.66849148  0.41600342  0.74842380  1
  Mg  Mg67  1  0.83434911  0.83378237  0.75416468  1
  Mg  Mg68  1  0.50041854  0.83615290  0.25400875  1
  Mg  Mg69  1  0.83287886  0.16514128  0.74746671  1
  Mg  Mg70  1  -0.00127746  0.91541190  0.75177365  1
  Mg  Mg71  1  0.16743528  0.83482283  0.75379839  1
  Mg  Mg72  1  0.33615084  0.08425530  0.24765785  1
  Mg  Mg73  1  0.00122260  0.91576828  0.25427334  1
  Mg  Mg74  1  0.83469003  0.66470088  0.25059383  1
  Mg  Mg75  1  0.16429597  0.33449229  0.74523998  1
  Mg  Mg76  1  0.66778253  0.58359417  0.25264111  1
  Mg  Mg77  1  0.16779708  0.16487846  0.25021863  1
  Mg  Mg78  1  0.67116922  0.41496214  0.24834676  1
  Mg  Mg79  1  0.83135221  0.83420968  0.25421369  1
  Mg  Mg80  1  0.33536275  0.91741953  0.25208924  1
  Mg  Mg81  1  0.33678143  0.91800352  0.75189763  1
  Mg  Mg82  1  0.16706557  0.66561985  0.75310620  1
  Mg  Mg83  1  0.32954528  0.41803774  0.24850943  1
  Mg  Mg84  1  0.16809199  0.83348616  0.25365359  1
  Mg  Mg85  1  0.49962931  0.66593274  0.75135125  1
  Mg  Mg86  1  0.16694178  0.16660551  0.74555552  1
  Mg  Mg87  1  0.83306794  0.16569509  0.24984897  1
  Mg  Mg88  1  0.49885155  0.33495056  0.75064858  1
  Mg  Mg89  1  0.00021921  0.58212681  0.75108484  1
  Mg  Mg90  1  0.33600353  0.08284021  0.74959872  1
  Mg  Mg91  1  0.66374128  0.91707593  0.75479704  1
  Mg  Mg92  1  0.83579362  0.66580028  0.75183393  1
  Mg  Mg93  1  0.83741710  0.33513847  0.24690228  1
  Mg  Mg94  1  0.49969153  0.83660686  0.75202796  1
  Mg  Mg95  1  0.00234089  0.08459730  0.25122318  1
  Fe  Fe96  1  0.52433582  0.08246866  0.10953460  1
  Fe  Fe97  1  0.97837092  0.83397040  0.89281509  1
  Fe  Fe98  1  0.31276308  0.33719441  0.88791449  1
  Fe  Fe99  1  0.31341446  0.16541629  0.88744888  1
  Fe  Fe100  1  0.02306115  0.16173344  0.60437495  1
  Fe  Fe101  1  0.97716933  0.66573394  0.89094000  1
  Fe  Fe102  1  0.64014503  0.83698762  0.39422803  1
  Fe  Fe103  1  0.30806597  0.66512413  0.89223026  1
  Fe  Fe104  1  0.47788026  0.91674206  0.89125296  1
  Fe  Fe105  1  0.02251328  0.33922419  0.60358151  1
  Fe  Fe106  1  0.81193740  0.41404881  0.88556871  1
  Fe  Fe107  1  0.18852807  0.41804436  0.10716578  1
  Fe  Fe108  1  0.86296020  0.41906120  0.10939815  1
  Fe  Fe109  1  0.80671553  0.08507838  0.88949926  1
  Fe  Fe110  1  0.31147056  0.66574513  0.39449766  1
  Fe  Fe111  1  0.14287877  0.08324381  0.39215091  1
  Fe  Fe112  1  0.19492291  0.08372651  0.10936658  1
  Si  Si113  1  0.80919702  0.58024570  0.38643214  1
  Si  Si114  1  0.36163537  0.83193828  0.61474207  1
  Si  Si115  1  0.36258251  0.17495491  0.11057416  1
  Si  Si116  1  0.13976001  0.92344608  0.88578897  1
  Si  Si117  1  0.64050048  0.82729498  0.88855928  1
  Si  Si118  1  0.13949617  0.41158679  0.88170660  1
  Si  Si119  1  0.31091795  0.83594893  0.38975195  1
  Si  Si120  1  0.18210740  0.58759547  0.11327028  1
  Si  Si121  1  0.97117691  0.66520151  0.38665856  1
  Si  Si122  1  0.97699275  0.32798563  0.88109243  1
  Si  Si123  1  0.85410618  0.58855083  0.11290281  1
  Si  Si124  1  0.47421403  0.42140703  0.88559073  1
  Si  Si125  1  0.85404843  0.91224446  0.61483379  1
  Si  Si126  1  0.02541863  0.66736364  0.61344988  1
  Si  Si127  1  0.52700310  0.58214384  0.61426745  1
  Si  Si128  1  0.02483146  0.83398013  0.61409100  1
  Si  Si129  1  0.35950964  0.82734409  0.11801156  1
  Si  Si130  1  0.52159596  0.91308582  0.11407536  1
  Si  Si131  1  0.35790137  0.66378521  0.11924208  1
  Si  Si132  1  0.53152113  0.41614533  0.11596417  1
  Si  Si133  1  0.52693771  0.41380448  0.61248426  1
  Si  Si134  1  0.36252263  0.34008877  0.11416432  1
  Si  Si135  1  0.02271064  0.83516444  0.11834564  1
  Si  Si136  1  0.52578356  0.91881315  0.61598636  1
  Si  Si137  1  0.64568908  0.66313678  0.39203210  1
  Si  Si138  1  0.85526149  0.58813670  0.61207379  1
  Si  Si139  1  0.80422928  0.91226328  0.89047737  1
  Si  Si140  1  0.86055516  0.08244912  0.11664807  1
  Si  Si141  1  0.31201706  0.17317002  0.38941723  1
  Si  Si142  1  0.69401471  0.33035589  0.11150525  1
  Si  Si143  1  0.47447380  0.09033350  0.38569240  1
  Si  Si144  1  0.97706112  0.16695624  0.88314238  1
  Si  Si145  1  0.97555767  0.33346859  0.38219620  1
  Si  Si146  1  0.47818973  0.58566348  0.88800799  1
  Si  Si147  1  0.69025467  0.33283892  0.60925130  1
  Si  Si148  1  0.64595161  0.33010857  0.38557193  1
  Si  Si149  1  0.19473879  0.91166010  0.61446740  1
  Si  Si150  1  0.97002243  0.16924504  0.38651660  1
  Si  Si151  1  0.85118245  0.42254887  0.60604172  1
  Si  Si152  1  0.36040350  0.33398641  0.61137664  1
  Si  Si153  1  0.14191153  0.91119228  0.39018343  1
  Si  Si154  1  0.69069456  0.83439455  0.11787124  1
  Si  Si155  1  0.47806314  0.08171994  0.88574697  1
  Si  Si156  1  0.69729331  0.16572741  0.11287397  1
  Si  Si157  1  0.02732228  0.32719482  0.10892807  1
  Si  Si158  1  0.64227719  0.16717999  0.38449691  1
  Si  Si159  1  0.80963835  0.41536097  0.38472412  1
  Si  Si160  1  0.30960779  0.33784513  0.38535367  1
  Si  Si161  1  0.19647148  0.42247442  0.60789360  1
  Si  Si162  1  0.85694826  0.91724524  0.11862100  1
  Si  Si163  1  0.69018906  0.16666630  0.61098972  1
  Si  Si164  1  0.68890131  0.66951625  0.11683731  1
  Si  Si165  1  0.85190033  0.07692734  0.60872128  1
  Si  Si166  1  0.13831094  0.58226364  0.38950502  1
  Si  Si167  1  0.46870127  0.92366698  0.38882864  1
  Si  Si168  1  0.68778199  0.83273707  0.61636098  1
  Si  Si169  1  0.02199258  0.16553559  0.11186700  1
  Si  Si170  1  0.48047983  0.41251396  0.38668848  1
  Si  Si171  1  0.13792371  0.57544207  0.88787613  1
  Si  Si172  1  0.48400130  0.57651001  0.39169187  1
  Si  Si173  1  0.02190302  0.67170223  0.11739158  1
  Si  Si174  1  0.19201493  0.91145828  0.11524497  1
  Si  Si175  1  0.81322654  0.92016940  0.39193826  1
  Si  Si176  1  0.97401678  0.83045848  0.38906893  1
  Si  Si177  1  0.14106083  0.08607705  0.88252603  1
  Si  Si178  1  0.30446263  0.83917690  0.89046973  1
  Si  Si179  1  0.63661112  0.33591527  0.88544796  1
  Si  Si180  1  0.36138582  0.16713837  0.61271245  1
  Si  Si181  1  0.52498637  0.58244547  0.11756805  1
  Si  Si182  1  0.64283855  0.66434212  0.88489252  1
  Si  Si183  1  0.14046569  0.41602452  0.38397557  1
  Si  Si184  1  0.68897483  0.66776624  0.61428860  1
  Si  Si185  1  0.80715526  0.58528357  0.88607082  1
  Si  Si186  1  0.36281525  0.66750121  0.61438313  1
  Si  Si187  1  0.63530698  0.17026498  0.88640150  1
  Si  Si188  1  0.52666592  0.08531025  0.61430022  1
  Si  Si189  1  0.19385944  0.58825080  0.61357599  1
  Si  Si190  1  0.19811857  0.07771434  0.60999389  1
  Si  Si191  1  0.80905417  0.08529860  0.38525058  1
  O  O192  1  0.28604953  0.12289689  0.07637302  1
  O  O193  1  0.27807378  0.11871226  0.58330697  1
  O  O194  1  0.26971219  0.62138704  0.09075116  1
  O  O195  1  0.26865109  0.63420451  0.58521789  1
  O  O196  1  0.62606827  0.10941997  0.08068517  1
  O  O197  1  0.60082800  0.12534565  0.58024624  1
  O  O198  1  0.60223526  0.62320649  0.08835551  1
  O  O199  1  0.60435484  0.62041158  0.58205853  1
  O  O200  1  0.94378918  0.10754577  0.08710699  1
  O  O201  1  0.92474068  0.10590880  0.57106281  1
  O  O202  1  0.93545836  0.62712575  0.08707543  1
  O  O203  1  0.93561647  0.62563250  0.58335756  1
  O  O204  1  0.11260218  0.34270525  0.07805997  1
  O  O205  1  0.11130182  0.38666357  0.56880008  1
  O  O206  1  0.10559215  0.86303187  0.08949770  1
  O  O207  1  0.10163945  0.87473398  0.58395639  1
  O  O208  1  0.45119401  0.36445803  0.08875395  1
  O  O209  1  0.43895173  0.37128594  0.58060352  1
  O  O210  1  0.44057730  0.85799758  0.08799860  1
  O  O211  1  0.43504965  0.87836593  0.58574104  1
  O  O212  1  0.76953258  0.35881052  0.07650143  1
  O  O213  1  0.76145448  0.37751761  0.57709016  1
  O  O214  1  0.77314304  0.86801798  0.08952862  1
  O  O215  1  0.77042183  0.86224272  0.58654826  1
  O  O216  1  0.29251089  0.39690648  0.08081114  1
  O  O217  1  0.27720989  0.38211294  0.58102151  1
  O  O218  1  0.27133957  0.87000781  0.08870149  1
  O  O219  1  0.26702380  0.86442257  0.58462397  1
  O  O220  1  0.61068931  0.38259856  0.08551012  1
  O  O221  1  0.60030571  0.37353454  0.57795657  1
  O  O222  1  0.60617394  0.87969744  0.08686040  1
  O  O223  1  0.60335229  0.87987360  0.58455388  1
  O  O224  1  0.95605915  0.38469574  0.07600036  1
  O  O225  1  0.92235729  0.39203151  0.56722151  1
  O  O226  1  0.93946260  0.88591888  0.08984640  1
  O  O227  1  0.93473812  0.87601482  0.58548462  1
  O  O228  1  0.09872368  0.13948417  0.07633702  1
  O  O229  1  0.11251895  0.11345381  0.57179771  1
  O  O230  1  0.10314549  0.64415067  0.08529601  1
  O  O231  1  0.10279522  0.62839097  0.58256411  1
  O  O232  1  0.44642035  0.15611624  0.08016574  1
  O  O233  1  0.43956185  0.12922204  0.58204697  1
  O  O234  1  0.43566406  0.62379282  0.08905816  1
  O  O235  1  0.43581775  0.62154707  0.58411391  1
  O  O236  1  0.78528601  0.13881893  0.08702458  1
  O  O237  1  0.76359687  0.12278596  0.58096022  1
  O  O238  1  0.76896476  0.63963481  0.08550318  1
  O  O239  1  0.77041441  0.63747796  0.58311686  1
  O  O240  1  0.04907988  0.12253982  0.42300435  1
  O  O241  1  0.05139610  0.10616894  0.90760904  1
  O  O242  1  0.05641786  0.61995076  0.41704617  1
  O  O243  1  0.05193994  0.58967623  0.91693986  1
  O  O244  1  0.40312756  0.13315068  0.42001528  1
  O  O245  1  0.39391980  0.09369476  0.91811175  1
  O  O246  1  0.40726195  0.60630908  0.42513343  1
  O  O247  1  0.40353965  0.60771493  0.92804520  1
  O  O248  1  0.72452524  0.11575343  0.41221660  1
  O  O249  1  0.71153042  0.11968237  0.92235854  1
  O  O250  1  0.73160841  0.61452659  0.41868845  1
  O  O251  1  0.71592709  0.60519032  0.91113903  1
  O  O252  1  0.23244478  0.37735708  0.41546082  1
  O  O253  1  0.21101953  0.35673923  0.91799453  1
  O  O254  1  0.22417290  0.86004798  0.41722255  1
  O  O255  1  0.21489795  0.86553438  0.91352652  1
  O  O256  1  0.56416394  0.36224339  0.41559607  1
  O  O257  1  0.55202837  0.36460126  0.91317511  1
  O  O258  1  0.54837883  0.87775809  0.42789839  1
  O  O259  1  0.55949348  0.84408127  0.92245226  1
  O  O260  1  0.89828470  0.37341678  0.41300517  1
  O  O261  1  0.89736362  0.34706902  0.91702663  1
  O  O262  1  0.90104785  0.87393037  0.42021611  1
  O  O263  1  0.87499301  0.85346044  0.92074925  1
  O  O264  1  0.06466155  0.37387477  0.41404090  1
  O  O265  1  0.05059299  0.38844423  0.90641882  1
  O  O266  1  0.06394698  0.86931573  0.41834016  1
  O  O267  1  0.05753393  0.90840565  0.91879843  1
  O  O268  1  0.39826494  0.38157159  0.41583181  1
  O  O269  1  0.39506307  0.40840574  0.92286490  1
  O  O270  1  0.38227510  0.89810989  0.41685616  1
  O  O271  1  0.37637375  0.89652608  0.92199965  1
  O  O272  1  0.73112308  0.37772700  0.41559355  1
  O  O273  1  0.71455474  0.38576290  0.91857027  1
  O  O274  1  0.74059188  0.88808988  0.42909594  1
  O  O275  1  0.71600579  0.88508021  0.91552134  1
  O  O276  1  0.24099104  0.13665504  0.42565936  1
  O  O277  1  0.21082128  0.14269822  0.91623741  1
  O  O278  1  0.22052904  0.62369053  0.42999013  1
  O  O279  1  0.21361069  0.62842149  0.92327814  1
  O  O280  1  0.56421611  0.13203650  0.41653858  1
  O  O281  1  0.54616066  0.14837733  0.90977071  1
  O  O282  1  0.57120283  0.62082835  0.42305653  1
  O  O283  1  0.55898857  0.64060172  0.91512455  1
  O  O284  1  0.88548018  0.14067960  0.41519358  1
  O  O285  1  0.89872205  0.14692762  0.92010302  1
  O  O286  1  0.89397623  0.62638721  0.41761065  1
  O  O287  1  0.87147701  0.64870089  0.91652767  1
  O  O288  1  0.17735806  -0.01213408  0.07800245  1
  O  O289  1  0.19888604  -0.00738897  0.58363676  1
  O  O290  1  0.16076129  0.51226357  0.07442222  1
  O  O291  1  0.19657288  0.50778506  0.58114088  1
  O  O292  1  0.49739527  -0.01181820  0.07652890  1
  O  O293  1  0.51792545  0.00167887  0.58575428  1
  O  O294  1  0.51731713  0.49965633  0.08835692  1
  O  O295  1  0.52008567  0.49842425  0.58596556  1
  O  O296  1  0.83750503  -0.00062955  0.08976680  1
  O  O297  1  0.83174507  -0.00774028  0.58305931  1
  O  O298  1  0.83551213  0.51259970  0.07552571  1
  O  O299  1  0.83366636  0.50801780  0.57965729  1
  O  O300  1  -0.01043469  0.24550734  0.08455320  1
  O  O301  1  0.00866661  0.24972419  0.56227917  1
  O  O302  1  0.00003401  0.75446875  0.08898852  1
  O  O303  1  0.01616731  0.75100358  0.58361023  1
  O  O304  1  0.33650997  0.25890312  0.08696734  1
  O  O305  1  0.35035995  0.25026393  0.58215198  1
  O  O306  1  0.34679995  0.74526768  0.08711577  1
  O  O307  1  0.36428284  0.74980847  0.58428732  1
  O  O308  1  0.67145064  0.24772873  0.08385028  1
  O  O309  1  0.68375579  0.24937063  0.57960970  1
  O  O310  1  0.67365384  0.75207304  0.08829865  1
  O  O311  1  0.67050521  0.75049036  0.58637168  1
  O  O312  1  0.15593279  -0.01171837  0.42662959  1
  O  O313  1  0.17233585  0.00497172  0.90982362  1
  O  O314  1  0.14301909  0.49733249  0.41683573  1
  O  O315  1  0.16713891  0.49258919  0.91073672  1
  O  O316  1  0.48270417  0.00822975  0.41591328  1
  O  O317  1  0.52434420  0.00757340  0.91506597  1
  O  O318  1  0.50361089  0.49227855  0.41878936  1
  O  O319  1  0.51322487  0.50306509  0.90630427  1
  O  O320  1  0.83168243  0.00460980  0.41722686  1
  O  O321  1  0.82873552  -0.00897237  0.92299722  1
  O  O322  1  0.82048997  0.49743726  0.41556242  1
  O  O323  1  0.83789126  0.50772074  0.91748558  1
  O  O324  1  0.32501512  0.25706271  0.41774721  1
  O  O325  1  0.35568980  0.25133051  0.92394139  1
  O  O326  1  0.34042189  0.76059758  0.42640915  1
  O  O327  1  0.32707311  0.76019070  0.92365877  1
  O  O328  1  0.66191470  0.24868799  0.41731800  1
  O  O329  1  0.65460054  0.25331491  0.91347508  1
  O  O330  1  0.65921631  0.74113195  0.42726277  1
  O  O331  1  0.67392857  0.74478421  0.91263169  1
  O  O332  1  0.98242878  0.25251744  0.41429433  1
  O  O333  1  1.01393922  0.24734454  0.90754625  1
  O  O334  1  0.97924333  0.74775373  0.41923619  1
  O  O335  1  1.02372345  0.74960672  0.93046777  1
  O  O336  1  0.21432152  0.08402423  0.20124454  1
  O  O337  1  0.20997323  0.07964832  0.69020912  1
  O  O338  1  0.19539343  0.58333906  0.19297743  1
  O  O339  1  0.20820423  0.58670225  0.69333229  1
  O  O340  1  0.53237723  0.08193296  0.19775613  1
  O  O341  1  0.54683739  0.08856058  0.69341025  1
  O  O342  1  0.54512900  0.58279674  0.19822423  1
  O  O343  1  0.54766359  0.58999730  0.69312819  1
  O  O344  1  0.87832578  0.08146169  0.19729157  1
  O  O345  1  0.87320873  0.08051385  0.68934118  1
  O  O346  1  0.86794099  0.58632547  0.19305769  1
  O  O347  1  0.87334481  0.58537944  0.69177667  1
  O  O348  1  0.04530049  0.32771037  0.18992052  1
  O  O349  1  0.04447792  0.33223753  0.69385956  1
  O  O350  1  0.04123120  0.83482262  0.19912655  1
  O  O351  1  0.04397556  0.83375350  0.69400623  1
  O  O352  1  0.37931124  0.33668237  0.19564924  1
  O  O353  1  0.37907172  0.33402219  0.69118160  1
  O  O354  1  0.37670174  0.83070239  0.19858652  1
  O  O355  1  0.37573623  0.83135754  0.69461131  1
  O  O356  1  0.71095475  0.33259502  0.19296941  1
  O  O357  1  0.70719326  0.33138413  0.68915128  1
  O  O358  1  0.71101504  0.83166730  0.19829289  1
  O  O359  1  0.70724109  0.83338731  0.69651633  1
  O  O360  1  0.21008141  0.41768773  0.19898581  1
  O  O361  1  0.20930240  0.42030978  0.68812087  1
  O  O362  1  0.20930244  0.91482737  0.19660308  1
  O  O363  1  0.20969751  0.91316491  0.69461829  1
  O  O364  1  0.54912660  0.41680376  0.19686263  1
  O  O365  1  0.54786547  0.40904581  0.69151570  1
  O  O366  1  0.54232758  0.91195395  0.19432023  1
  O  O367  1  0.54646838  0.91335815  0.69498376  1
  O  O368  1  0.87507825  0.41800718  0.19984993  1
  O  O369  1  0.86898720  0.41827909  0.68551542  1
  O  O370  1  0.87726150  0.91510975  0.19923730  1
  O  O371  1  0.87314908  0.91540130  0.69485824  1
  O  O372  1  0.04186028  0.16529103  0.19328105  1
  O  O373  1  0.04338810  0.16441664  0.69628119  1
  O  O374  1  0.04243277  0.67184184  0.19718246  1
  O  O375  1  0.04445967  0.66851411  0.69325738  1
  O  O376  1  0.37587059  0.17103530  0.19259107  1
  O  O377  1  0.38017682  0.16748993  0.69237308  1
  O  O378  1  0.38228460  0.67008594  0.19831858  1
  O  O379  1  0.37931024  0.66772186  0.69422159  1
  O  O380  1  0.71649097  0.17104077  0.19299949  1
  O  O381  1  0.70688790  0.16794175  0.69097691  1
  O  O382  1  0.70741694  0.66741120  0.19765172  1
  O  O383  1  0.70860609  0.66678107  0.69433101  1
  O  O384  1  0.12134088  0.08314038  0.30086237  1
  O  O385  1  0.12317787  0.08295066  0.80130346  1
  O  O386  1  0.12683120  0.58395285  0.31004211  1
  O  O387  1  0.12346933  0.58255772  0.80595810  1
  O  O388  1  0.45234955  0.09188392  0.30669806  1
  O  O389  1  0.45598860  0.08486979  0.80441778  1
  O  O390  1  0.47074873  0.57930231  0.31178787  1
  O  O391  1  0.45177206  0.59356277  0.80824947  1
  O  O392  1  0.79828500  0.08290054  0.30602423  1
  O  O393  1  0.78716652  0.08414875  0.79706823  1
  O  O394  1  0.78902327  0.58355462  0.30637197  1
  O  O395  1  0.78992685  0.58415530  0.80395734  1
  O  O396  1  0.29302362  0.33353317  0.30551621  1
  O  O397  1  0.28707342  0.33440923  0.79471987  1
  O  O398  1  0.29109213  0.83487271  0.30859609  1
  O  O399  1  0.28908309  0.83543834  0.80816075  1
  O  O400  1  0.62695214  0.33300930  0.30537394  1
  O  O401  1  0.62196096  0.33427589  0.80399208  1
  O  O402  1  0.62188936  0.83119208  0.30310814  1
  O  O403  1  0.62270205  0.83043761  0.80701119  1
  O  O404  1  0.95618377  0.33014594  0.30311240  1
  O  O405  1  0.95313129  0.32707600  0.80076915  1
  O  O406  1  0.95536360  0.83232866  0.30856733  1
  O  O407  1  0.95526736  0.83330851  0.79929120  1
  O  O408  1  0.12379164  0.41429293  0.30499571  1
  O  O409  1  0.12704284  0.41541746  0.80138407  1
  O  O410  1  0.12315983  0.91501367  0.30912008  1
  O  O411  1  0.12184709  0.91869680  0.80405540  1
  O  O412  1  0.46194985  0.41398645  0.30668042  1
  O  O413  1  0.45056214  0.41068157  0.80575396  1
  O  O414  1  0.45362651  0.91489925  0.30917119  1
  O  O415  1  0.45388708  0.91376793  0.80023461  1
  O  O416  1  0.78865236  0.41544964  0.30498321  1
  O  O417  1  0.78933276  0.41458854  0.79371462  1
  O  O418  1  0.79382425  0.91546035  0.31128738  1
  O  O419  1  0.78801022  0.91513429  0.80809954  1
  O  O420  1  0.29313025  0.17066950  0.30884412  1
  O  O421  1  0.28813078  0.16563931  0.79446566  1
  O  O422  1  0.28213261  0.67380038  0.30514139  1
  O  O423  1  0.28778080  0.66748270  0.80001939  1
  O  O424  1  0.62033162  0.17446365  0.30580295  1
  O  O425  1  0.62379607  0.16842452  0.80492318  1
  O  O426  1  0.62616883  0.66432885  0.31087861  1
  O  O427  1  0.62287708  0.66591990  0.80393638  1
  O  O428  1  0.95628745  0.16698555  0.30568246  1
  O  O429  1  0.95357229  0.16516624  0.80186828  1
  O  O430  1  0.95153035  0.67117036  0.30754587  1
  O  O431  1  0.95572556  0.66670462  0.79755122  1
  F  F432  1  0.04402430  -0.00363633  0.20332186  1
  F  F433  1  0.04343487  -0.00256207  0.69935369  1
  F  F434  1  0.04307949  0.50065842  0.20339971  1
  F  F435  1  0.04774347  0.50940257  0.69550952  1
  F  F436  1  0.37204244  -0.00198322  0.20239304  1
  F  F437  1  0.37090660  -0.00019016  0.69719976  1
  F  F438  1  0.38751366  0.49269256  0.20240680  1
  F  F439  1  0.36758310  0.50298101  0.69763044  1
  F  F440  1  0.71889042  -0.01437496  0.20144764  1
  F  F441  1  0.70936405  -0.00393613  0.69992768  1
  F  F442  1  0.71196145  0.50174891  0.20345063  1
  F  F443  1  0.70992356  0.50303803  0.69557580  1
  F  F444  1  0.21324678  0.24975639  0.20413441  1
  F  F445  1  0.21092243  0.24955437  0.69291414  1
  F  F446  1  0.20984993  0.75310206  0.20323144  1
  F  F447  1  0.21075371  0.75299015  0.70179391  1
  F  F448  1  0.54676946  0.25264537  0.20141106  1
  F  F449  1  0.54516465  0.24967911  0.70089627  1
  F  F450  1  0.54487078  0.74540152  0.20559243  1
  F  F451  1  0.54451182  0.75081744  0.70182637  1
  F  F452  1  0.87899954  0.24799635  0.20169297  1
  F  F453  1  0.87518732  0.24759753  0.69568326  1
  F  F454  1  0.87612984  0.75217973  0.20418906  1
  F  F455  1  0.87379366  0.75111929  0.69794385  1
  F  F456  1  0.28873027  -0.00071223  0.30166095  1
  F  F457  1  0.28504207  -0.00032978  0.79513075  1
  F  F458  1  0.28392949  0.48976198  0.30605064  1
  F  F459  1  0.28481531  0.50114213  0.79546720  1
  F  F460  1  0.62309063  -0.01205632  0.31044746  1
  F  F461  1  0.62533473  0.00116624  0.79849686  1
  F  F462  1  0.62549077  0.49757925  0.30009673  1
  F  F463  1  0.63416554  0.49877519  0.79830879  1
  F  F464  1  0.95594598  -0.00098938  0.30061673  1
  F  F465  1  0.95240585  0.00102978  0.79399202  1
  F  F466  1  0.94851467  0.50788808  0.30909752  1
  F  F467  1  0.95211621  0.50027469  0.79232962  1
  F  F468  1  0.12151806  0.24987260  0.29716560  1
  F  F469  1  0.12345674  0.24921780  0.79358704  1
  F  F470  1  0.11847894  0.75222921  0.30146823  1
  F  F471  1  0.12058636  0.75071747  0.79687983  1
  F  F472  1  0.45589223  0.25214847  0.29716866  1
  F  F473  1  0.45429601  0.24998645  0.79434743  1
  F  F474  1  0.45622460  0.74939030  0.30303469  1
  F  F475  1  0.45493630  0.75083626  0.79732533  1
  F  F476  1  0.78879039  0.25142660  0.29768637  1
  F  F477  1  0.78656861  0.25030955  0.79212523  1
  F  F478  1  0.78818109  0.74838451  0.30121342  1
  F  F479  1  0.78570738  0.74927104  0.79590418  1
