# generated using pymatgen
data_K24Na3Li5Mg64Fe17Si79(O5F)48
_symmetry_space_group_name_H-M   'P 1'
_cell_length_a   16.11078265
_cell_length_b   18.59701736
_cell_length_c   20.56231749
_cell_angle_alpha   89.96354135
_cell_angle_beta   100.02000984
_cell_angle_gamma   90.02467876
_symmetry_Int_Tables_number   1
_chemical_formula_structural   K24Na3Li5Mg64Fe17Si79(O5F)48
_chemical_formula_sum   'K24 Na3 Li5 Mg64 Fe17 Si79 O240 F48'
_cell_volume   6066.75661891
_cell_formula_units_Z   1
loop_
 _symmetry_equiv_pos_site_id
 _symmetry_equiv_pos_as_xyz
  1  'x, y, z'
loop_
 _atom_site_type_symbol
 _atom_site_label
 _atom_site_symmetry_multiplicity
 _atom_site_fract_x
 _atom_site_fract_y
 _atom_site_fract_z
 _atom_site_occupancy
  K  K0  1  0.00073649  -0.00551179  -0.00297005  1
  K  K1  1  -0.00938423  0.00473412  0.50556923  1
  K  K2  1  0.00310878  0.49619283  -0.00046633  1
  K  K3  1  0.00368196  0.50534176  0.50058994  1
  K  K4  1  0.32915616  -0.00178681  -0.01144410  1
  K  K5  1  0.33851361  -0.00269458  0.51301570  1
  K  K6  1  0.33354023  0.50273490  -0.00414075  1
  K  K7  1  0.33586270  0.51235709  0.50627712  1
  K  K8  1  0.66610367  -0.00618879  -0.01411159  1
  K  K9  1  0.68461118  -0.00226647  0.51623278  1
  K  K10  1  0.66417406  0.51121895  -0.00728754  1
  K  K11  1  0.65741960  0.50491377  0.51010412  1
  K  K12  1  0.17011758  0.24506639  -0.00431822  1
  K  K13  1  0.16363938  0.24288704  0.49825110  1
  K  K14  1  0.16746965  0.74851229  -0.01025458  1
  K  K15  1  0.17583500  0.76391008  0.51189521  1
  K  K16  1  0.48752087  0.24934571  -0.01028701  1
  K  K17  1  0.50203962  0.24758550  0.50726325  1
  K  K18  1  0.50017165  0.74768204  -0.01277765  1
  K  K19  1  0.49785211  0.75405742  0.52703665  1
  K  K20  1  0.83239912  0.24631950  -0.00136167  1
  K  K21  1  0.84472103  0.24256717  0.50599486  1
  K  K22  1  0.83544420  0.75752335  -0.00649497  1
  K  K23  1  0.82642733  0.75688541  0.50652864  1
  Na  Na24  1  0.50610145  -0.00207496  0.75639711  1
  Na  Na25  1  0.16759092  0.83377833  0.74881973  1
  Na  Na26  1  0.66636713  0.58456401  0.74920567  1
  Li  Li27  1  0.66228149  0.75597205  0.74778242  1
  Li  Li28  1  0.16906883  -0.00510469  0.75013105  1
  Li  Li29  1  -0.00152934  0.08395596  0.25553874  1
  Li  Li30  1  0.50196969  0.66410061  0.24178374  1
  Li  Li31  1  0.66213246  0.91174530  0.75097193  1
  Mg  Mg32  1  0.33794929  0.74902574  0.24802223  1
  Mg  Mg33  1  -0.00143714  0.75296538  0.74757964  1
  Mg  Mg34  1  0.66610994  0.24793703  0.25279962  1
  Mg  Mg35  1  0.16668108  0.50033109  0.75490103  1
  Mg  Mg36  1  0.16789800  0.49912384  0.25301401  1
  Mg  Mg37  1  0.50018162  -0.00089853  0.25028108  1
  Mg  Mg38  1  0.16330284  0.00069363  0.24707988  1
  Mg  Mg39  1  0.83594093  0.00175093  0.25317402  1
  Mg  Mg40  1  0.66736614  0.25029913  0.75059280  1
  Mg  Mg41  1  0.00045829  0.24898903  0.75012190  1
  Mg  Mg42  1  0.33365679  0.24762638  0.75676560  1
  Mg  Mg43  1  0.66516358  0.74826156  0.24602645  1
  Mg  Mg44  1  0.50054241  0.50288883  0.24619953  1
  Mg  Mg45  1  0.33078060  0.24732241  0.25086810  1
  Mg  Mg46  1  0.33161894  0.75141960  0.75159739  1
  Mg  Mg47  1  0.83199368  -0.00004030  0.74336936  1
  Mg  Mg48  1  0.83327952  0.50083778  0.24790513  1
  Mg  Mg49  1  0.49983938  0.50085970  0.75212021  1
  Mg  Mg50  1  0.00236248  0.74926720  0.24530073  1
  Mg  Mg51  1  0.83053442  0.50182750  0.74985742  1
  Mg  Mg52  1  -0.00135218  0.24699050  0.25295008  1
  Mg  Mg53  1  0.50031264  0.66884289  0.74600122  1
  Mg  Mg54  1  0.00161513  0.41570366  0.25408612  1
  Mg  Mg55  1  0.16520836  0.33330873  0.25368869  1
  Mg  Mg56  1  0.16860887  0.66512086  0.24771750  1
  Mg  Mg57  1  0.33275850  0.41473187  0.25250536  1
  Mg  Mg58  1  0.33228520  0.91699993  0.75383137  1
  Mg  Mg59  1  0.50177563  0.16455345  0.75437901  1
  Mg  Mg60  1  -0.00034813  0.41626054  0.75353233  1
  Mg  Mg61  1  0.83378346  0.33310890  0.25353627  1
  Mg  Mg62  1  0.16039361  0.16178912  0.24969817  1
  Mg  Mg63  1  0.83329324  0.66546667  0.24489630  1
  Mg  Mg64  1  0.33768943  0.58484106  0.24738830  1
  Mg  Mg65  1  0.83381781  0.16572741  0.74590224  1
  Mg  Mg66  1  0.82705320  0.83650618  0.74478480  1
  Mg  Mg67  1  -0.00188390  0.58618166  0.75138650  1
  Mg  Mg68  1  0.32820153  0.08240461  0.24694520  1
  Mg  Mg69  1  0.33184782  0.91559074  0.24616839  1
  Mg  Mg70  1  0.16799156  0.66699799  0.75160324  1
  Mg  Mg71  1  0.83782879  0.16288517  0.25577807  1
  Mg  Mg72  1  0.82762551  0.67050464  0.74976883  1
  Mg  Mg73  1  0.49827993  0.33401698  0.24930076  1
  Mg  Mg74  1  0.66836689  0.08200877  0.74981530  1
  Mg  Mg75  1  0.50067346  0.83065145  0.24945574  1
  Mg  Mg76  1  0.49826475  0.16478884  0.25063729  1
  Mg  Mg77  1  0.33371320  0.41419358  0.75362168  1
  Mg  Mg78  1  0.00078078  0.08090746  0.74620132  1
  Mg  Mg79  1  0.66920126  0.08307016  0.25437696  1
  Mg  Mg80  1  -0.00029032  0.91813521  0.74375645  1
  Mg  Mg81  1  0.66819658  0.91516246  0.25212192  1
  Mg  Mg82  1  0.00051152  0.91648725  0.24646859  1
  Mg  Mg83  1  0.66375041  0.58589259  0.24478420  1
  Mg  Mg84  1  0.50283067  0.83413112  0.75082571  1
  Mg  Mg85  1  0.83486049  0.83447411  0.24755708  1
  Mg  Mg86  1  -0.00067415  0.58341852  0.24741604  1
  Mg  Mg87  1  0.16870995  0.33347112  0.75397262  1
  Mg  Mg88  1  0.66445512  0.41622049  0.24793525  1
  Mg  Mg89  1  0.50123022  0.33419844  0.75230894  1
  Mg  Mg90  1  0.66823773  0.41808416  0.74926291  1
  Mg  Mg91  1  0.16818733  0.16353768  0.75368503  1
  Mg  Mg92  1  0.33400958  0.07901882  0.75625204  1
  Mg  Mg93  1  0.33536074  0.58561732  0.75060798  1
  Mg  Mg94  1  0.83320426  0.33558491  0.75063535  1
  Mg  Mg95  1  0.16544688  0.83351647  0.24493643  1
  Fe  Fe96  1  0.35460433  0.84235858  0.61136336  1
  Fe  Fe97  1  0.86027819  0.91045385  0.60426167  1
  Fe  Fe98  1  0.02366417  0.82758718  0.10654060  1
  Fe  Fe99  1  0.86226088  0.08549121  0.60741007  1
  Fe  Fe100  1  0.18642060  0.08246121  0.10728322  1
  Fe  Fe101  1  0.51894279  0.58203788  0.60769414  1
  Fe  Fe102  1  0.80219606  0.08191430  0.39456636  1
  Fe  Fe103  1  0.64711085  0.66836824  0.88581112  1
  Fe  Fe104  1  0.47788825  0.08707971  0.89635067  1
  Fe  Fe105  1  0.97877092  0.16952608  0.39404992  1
  Fe  Fe106  1  0.47769138  0.91313097  0.89669380  1
  Fe  Fe107  1  0.52763300  0.58501790  0.10630545  1
  Fe  Fe108  1  0.30593255  0.33871423  0.89362881  1
  Fe  Fe109  1  0.30761836  0.66096238  0.89139546  1
  Fe  Fe110  1  0.85777516  0.58092712  0.10795424  1
  Fe  Fe111  1  0.81337399  0.41835302  0.89043199  1
  Fe  Fe112  1  0.14633036  0.41991517  0.39350131  1
  Si  Si113  1  0.69078030  0.17276219  0.61107974  1
  Si  Si114  1  0.81836873  0.58354353  0.88721889  1
  Si  Si115  1  0.03436719  0.17322149  0.61441229  1
  Si  Si116  1  0.53057757  0.08753042  0.61625127  1
  Si  Si117  1  0.80791811  0.92197994  0.88018997  1
  Si  Si118  1  0.14827884  0.58993231  0.38718137  1
  Si  Si119  1  0.64434490  0.33633328  0.88592773  1
  Si  Si120  1  0.97372151  0.34136561  0.39131634  1
  Si  Si121  1  0.63115452  0.16854781  0.38866250  1
  Si  Si122  1  0.47237844  0.41639345  0.38550039  1
  Si  Si123  1  0.80846723  0.08626147  0.88309012  1
  Si  Si124  1  0.85922895  0.41987262  0.61446685  1
  Si  Si125  1  0.30738078  0.16129788  0.38576994  1
  Si  Si126  1  0.36015045  0.83500692  0.11418000  1
  Si  Si127  1  0.64079495  0.66374409  0.38276693  1
  Si  Si128  1  0.68903207  0.83148038  0.60900776  1
  Si  Si129  1  0.69005711  0.83952568  0.11439531  1
  Si  Si130  1  0.47346743  0.58113751  0.38294500  1
  Si  Si131  1  0.19156844  0.57861661  0.61594842  1
  Si  Si132  1  0.18851940  0.92464488  0.61313255  1
  Si  Si133  1  0.97241661  0.83935066  0.88169361  1
  Si  Si134  1  0.85673802  0.08643310  0.11636594  1
  Si  Si135  1  0.69175195  0.33698777  0.61400573  1
  Si  Si136  1  0.30508962  0.83310259  0.89253516  1
  Si  Si137  1  0.47973796  0.41536614  0.88703220  1
  Si  Si138  1  0.97375458  0.32494306  0.88756992  1
  Si  Si139  1  0.80955421  0.90874858  0.38636367  1
  Si  Si140  1  0.64006376  0.82836324  0.38455832  1
  Si  Si141  1  0.52330243  0.41265285  0.11188077  1
  Si  Si142  1  0.63809899  0.33535053  0.38559097  1
  Si  Si143  1  0.19446769  0.08676638  0.61888238  1
  Si  Si144  1  0.02756198  0.82816660  0.60898498  1
  Si  Si145  1  0.47798058  0.91732402  0.38411037  1
  Si  Si146  1  0.85143131  0.41212884  0.11507687  1
  Si  Si147  1  0.13196252  0.41874251  0.89021288  1
  Si  Si148  1  0.02910309  0.65685468  0.11036528  1
  Si  Si149  1  0.68936521  0.32681066  0.11656497  1
  Si  Si150  1  0.35897214  0.67052971  0.11238442  1
  Si  Si151  1  0.14363327  0.07808386  0.38891849  1
  Si  Si152  1  0.31299516  0.67086450  0.38335924  1
  Si  Si153  1  0.02908579  0.66243954  0.61405875  1
  Si  Si154  1  0.64876203  0.83376922  0.88808331  1
  Si  Si155  1  0.80345334  0.41782366  0.38524984  1
  Si  Si156  1  0.47790553  0.57965052  0.88774826  1
  Si  Si157  1  0.36145569  0.16484278  0.11382592  1
  Si  Si158  1  0.19331722  0.91202485  0.10915331  1
  Si  Si159  1  0.31243486  0.83467064  0.38240241  1
  Si  Si160  1  0.02621099  0.33866796  0.61632351  1
  Si  Si161  1  0.19883095  0.58199700  0.11518836  1
  Si  Si162  1  0.35775057  0.32630076  0.61665899  1
  Si  Si163  1  0.52425757  0.91767584  0.11664595  1
  Si  Si164  1  0.85952494  0.58637579  0.61270913  1
  Si  Si165  1  0.19217138  0.41545989  0.11659348  1
  Si  Si166  1  0.80763870  0.58442547  0.38381230  1
  Si  Si167  1  0.35059893  0.66894212  0.60930075  1
  Si  Si168  1  0.19492953  0.41488311  0.61682013  1
  Si  Si169  1  0.35696329  0.33055705  0.11640521  1
  Si  Si170  1  0.85654447  0.92130929  0.11140882  1
  Si  Si171  1  0.52900147  0.91913362  0.61240684  1
  Si  Si172  1  0.97766943  0.83048022  0.38318689  1
  Si  Si173  1  0.96976292  0.67533720  0.88286159  1
  Si  Si174  1  0.52008155  0.41208813  0.61191686  1
  Si  Si175  1  0.69018303  0.16328860  0.11726004  1
  Si  Si176  1  0.35991052  0.16217162  0.61787004  1
  Si  Si177  1  0.69375680  0.66666229  0.60947673  1
  Si  Si178  1  0.14526237  0.91322540  0.38378887  1
  Si  Si179  1  0.97688032  0.66565223  0.38347368  1
  Si  Si180  1  0.13028859  0.58431867  0.88815977  1
  Si  Si181  1  0.47025129  0.08195806  0.38432673  1
  Si  Si182  1  0.30161610  0.16558936  0.89373069  1
  Si  Si183  1  0.02094678  0.17235229  0.11234278  1
  Si  Si184  1  0.64782425  0.17244145  0.88813276  1
  Si  Si185  1  0.97572016  0.16257383  0.88360728  1
  Si  Si186  1  0.02163941  0.33638081  0.11671725  1
  Si  Si187  1  0.13613315  0.91785399  0.88196819  1
  Si  Si188  1  0.52657651  0.08263385  0.11773662  1
  Si  Si189  1  0.31153931  0.32649205  0.38954209  1
  Si  Si190  1  0.69754613  0.67462932  0.10878490  1
  Si  Si191  1  0.13604628  0.07987982  0.88367904  1
  O  O192  1  0.28601815  0.11476176  0.07835874  1
  O  O193  1  0.27714373  0.11394445  0.58657317  1
  O  O194  1  0.27883980  0.61505011  0.08598564  1
  O  O195  1  0.26072297  0.62293974  0.58337330  1
  O  O196  1  0.61012140  0.11023718  0.08925700  1
  O  O197  1  0.59889635  0.13425230  0.58166955  1
  O  O198  1  0.62330453  0.62056683  0.07603252  1
  O  O199  1  0.61385801  0.61806648  0.57537208  1
  O  O200  1  0.93264190  0.12654640  0.08602592  1
  O  O201  1  0.95513786  0.12889259  0.57729857  1
  O  O202  1  0.96372466  0.59288407  0.08364377  1
  O  O203  1  0.93796511  0.62428975  0.58273201  1
  O  O204  1  0.10328537  0.37264414  0.08869797  1
  O  O205  1  0.10269686  0.37895185  0.58656579  1
  O  O206  1  0.12622990  0.85024496  0.07926187  1
  O  O207  1  0.10431515  0.87414004  0.58471614  1
  O  O208  1  0.43881898  0.36122417  0.08793149  1
  O  O209  1  0.43778123  0.35824180  0.58550199  1
  O  O210  1  0.44548005  0.86401555  0.08807106  1
  O  O211  1  0.44024958  0.88674427  0.57263530  1
  O  O212  1  0.77514767  0.35247050  0.09012337  1
  O  O213  1  0.76979905  0.37801925  0.58510483  1
  O  O214  1  0.76800755  0.87647812  0.08459315  1
  O  O215  1  0.75910022  0.86397659  0.56870815  1
  O  O216  1  0.27055713  0.37657813  0.08781551  1
  O  O217  1  0.26977527  0.37084299  0.58811386  1
  O  O218  1  0.28517956  0.89168011  0.08632488  1
  O  O219  1  0.25907019  0.89642822  0.57114141  1
  O  O220  1  0.60512291  0.37377741  0.08678725  1
  O  O221  1  0.60311456  0.37803702  0.58390738  1
  O  O222  1  0.60757093  0.89082648  0.08816286  1
  O  O223  1  0.60218039  0.87735543  0.57868603  1
  O  O224  1  0.93790096  0.38494749  0.08830451  1
  O  O225  1  0.93724224  0.38037977  0.58508820  1
  O  O226  1  0.93062390  0.88924546  0.07605549  1
  O  O227  1  0.94017168  0.85661947  0.56629143  1
  O  O228  1  0.09377236  0.14230624  0.07429124  1
  O  O229  1  0.12095460  0.14599958  0.58934213  1
  O  O230  1  0.11875546  0.63271803  0.08598542  1
  O  O231  1  0.09794104  0.61132183  0.58501745  1
  O  O232  1  0.45046891  0.13918222  0.09051589  1
  O  O233  1  0.43825967  0.12648407  0.58668519  1
  O  O234  1  0.43599331  0.64716783  0.07690598  1
  O  O235  1  0.41926246  0.63078562  0.57053062  1
  O  O236  1  0.77112699  0.13394133  0.08678787  1
  O  O237  1  0.76301446  0.13877772  0.57595992  1
  O  O238  1  0.78421037  0.65795550  0.08135680  1
  O  O239  1  0.77580477  0.63084806  0.57827307  1
  O  O240  1  0.07149898  0.10789803  0.42676219  1
  O  O241  1  0.05304627  0.10866262  0.91402791  1
  O  O242  1  0.06362116  0.62168732  0.41383422  1
  O  O243  1  0.05225355  0.62684734  0.91400146  1
  O  O244  1  0.38680647  0.10732797  0.41385271  1
  O  O245  1  0.38147577  0.11934584  0.92976918  1
  O  O246  1  0.39650650  0.62165107  0.41262552  1
  O  O247  1  0.39554778  0.59612024  0.92148607  1
  O  O248  1  0.70364437  0.11652881  0.42409530  1
  O  O249  1  0.73244957  0.12252397  0.91599471  1
  O  O250  1  0.73146702  0.62394996  0.41475861  1
  O  O251  1  0.73379631  0.60091575  0.91631480  1
  O  O252  1  0.23630189  0.35507614  0.42506853  1
  O  O253  1  0.21912337  0.38543365  0.92849599  1
  O  O254  1  0.23029830  0.86460732  0.41181433  1
  O  O255  1  0.21696388  0.86809464  0.91331453  1
  O  O256  1  0.56146743  0.37524814  0.41512032  1
  O  O257  1  0.55546976  0.35615087  0.91161351  1
  O  O258  1  0.56379615  0.87138560  0.41274173  1
  O  O259  1  0.57515662  0.85888090  0.92910997  1
  O  O260  1  0.88453126  0.36887740  0.41598569  1
  O  O261  1  0.89450425  0.34626723  0.92163577  1
  O  O262  1  0.89705900  0.86255800  0.41209237  1
  O  O263  1  0.89389663  0.87561015  0.91185795  1
  O  O264  1  0.04255967  0.40280717  0.42025007  1
  O  O265  1  0.05486206  0.37594455  0.91697864  1
  O  O266  1  0.06551391  0.87491540  0.41199137  1
  O  O267  1  0.05600783  0.88590128  0.91463592  1
  O  O268  1  0.39901135  0.37310111  0.41580093  1
  O  O269  1  0.40376043  0.39209685  0.92501831  1
  O  O270  1  0.39583088  0.88406447  0.41168724  1
  O  O271  1  0.38218000  0.88190694  0.93124519  1
  O  O272  1  0.72289393  0.38258910  0.41403892  1
  O  O273  1  0.71401401  0.39284520  0.92130120  1
  O  O274  1  0.73233443  0.86357641  0.41255524  1
  O  O275  1  0.73048414  0.89046486  0.91298280  1
  O  O276  1  0.22911301  0.12831120  0.41694300  1
  O  O277  1  0.21543618  0.13068394  0.91640982  1
  O  O278  1  0.22869534  0.64523331  0.41216459  1
  O  O279  1  0.21681390  0.61857380  0.92578017  1
  O  O280  1  0.54237511  0.14171259  0.41226207  1
  O  O281  1  0.57226924  0.14960552  0.92570827  1
  O  O282  1  0.56512470  0.61950324  0.41060875  1
  O  O283  1  0.55240555  0.63371548  0.91988299  1
  O  O284  1  0.88750257  0.14180627  0.43149693  1
  O  O285  1  0.89298790  0.13459418  0.91348046  1
  O  O286  1  0.89789232  0.62599561  0.41194859  1
  O  O287  1  0.88973299  0.64689633  0.91440086  1
  O  O288  1  0.16240472  -0.01113653  0.07620548  1
  O  O289  1  0.16410167  0.00871700  0.58622806  1
  O  O290  1  0.18316034  0.49824615  0.08751111  1
  O  O291  1  0.19204838  0.49611970  0.58564035  1
  O  O292  1  0.50169239  0.00075401  0.09141862  1
  O  O293  1  0.52986516  0.00568643  0.58690868  1
  O  O294  1  0.50484930  0.48871057  0.07580004  1
  O  O295  1  0.50001340  0.48664257  0.57281218  1
  O  O296  1  0.84019237  0.00532737  0.08473394  1
  O  O297  1  0.85091893  -0.00035178  0.56398153  1
  O  O298  1  0.81932026  0.48724707  0.08108952  1
  O  O299  1  0.85137273  0.50216895  0.58377430  1
  O  O300  1  0.00194607  0.25644645  0.08452399  1
  O  O301  1  0.02081301  0.25742148  0.58685772  1
  O  O302  1  -0.00217982  0.73310355  0.07681584  1
  O  O303  1  0.03712943  0.74274959  0.58350239  1
  O  O304  1  0.34236999  0.24860242  0.08807322  1
  O  O305  1  0.34382332  0.24430074  0.58604777  1
  O  O306  1  0.33227405  0.75405516  0.08752430  1
  O  O307  1  0.33367764  0.74840334  0.57672547  1
  O  O308  1  0.66867186  0.24478372  0.08801843  1
  O  O309  1  0.67953359  0.25663059  0.58178989  1
  O  O310  1  0.66954583  0.75871429  0.08579651  1
  O  O311  1  0.67449545  0.74811700  0.57800909  1
  O  O312  1  0.16497394  -0.00628909  0.41486073  1
  O  O313  1  0.15448219  -0.00089921  0.91480422  1
  O  O314  1  0.17505803  0.51457099  0.42369973  1
  O  O315  1  0.12262478  0.50147828  0.91544719  1
  O  O316  1  0.49401486  0.00024602  0.41245825  1
  O  O317  1  0.50538727  0.00134004  0.93847533  1
  O  O318  1  0.47942234  0.49880825  0.41468413  1
  O  O319  1  0.51150970  0.49637633  0.91053819  1
  O  O320  1  0.81896456  -0.01467383  0.42168710  1
  O  O321  1  0.82562284  0.00437371  0.91214632  1
  O  O322  1  0.81678525  0.50126601  0.41333613  1
  O  O323  1  0.85841702  0.50775165  0.91934710  1
  O  O324  1  0.33322626  0.24239126  0.41499469  1
  O  O325  1  0.31063973  0.24540113  0.92770480  1
  O  O326  1  0.33358822  0.75300574  0.41109889  1
  O  O327  1  0.31546842  0.75353216  0.92761347  1
  O  O328  1  0.64517662  0.25323985  0.41503190  1
  O  O329  1  0.67568188  0.25533454  0.91307389  1
  O  O330  1  0.64268703  0.74573260  0.41338807  1
  O  O331  1  0.68427732  0.75744457  0.92154582  1
  O  O332  1  1.00266069  0.26547378  0.42595903  1
  O  O333  1  1.00239029  0.24280757  0.91354486  1
  O  O334  1  0.98976980  0.74774728  0.41291699  1
  O  O335  1  0.98790157  0.75733789  0.91196773  1
  O  O336  1  0.20914645  0.08347649  0.19952289  1
  O  O337  1  0.21460285  0.08962149  0.69814954  1
  O  O338  1  0.21395086  0.58087971  0.19607595  1
  O  O339  1  0.20708557  0.57789803  0.69585990  1
  O  O340  1  0.54470322  0.08312436  0.19865977  1
  O  O341  1  0.55036106  0.09391967  0.69507396  1
  O  O342  1  0.54643900  0.58016175  0.19748847  1
  O  O343  1  0.52992259  0.58006545  0.69677056  1
  O  O344  1  0.87177841  0.08339402  0.19566315  1
  O  O345  1  0.88012229  0.08671645  0.69878231  1
  O  O346  1  0.87827907  0.58206361  0.20058656  1
  O  O347  1  0.87809658  0.58366910  0.69266737  1
  O  O348  1  0.04132971  0.33379929  0.19715983  1
  O  O349  1  0.04365233  0.33729516  0.69676400  1
  O  O350  1  0.04480128  0.83215954  0.19858407  1
  O  O351  1  0.03253407  0.83018926  0.68801520  1
  O  O352  1  0.37457684  0.33198773  0.19721099  1
  O  O353  1  0.37676149  0.33013303  0.69653013  1
  O  O354  1  0.37878726  0.83447469  0.19506511  1
  O  O355  1  0.37427365  0.83413844  0.70136262  1
  O  O356  1  0.70680075  0.33055356  0.19737505  1
  O  O357  1  0.71019395  0.33343529  0.69388043  1
  O  O358  1  0.71025024  0.83635689  0.19524374  1
  O  O359  1  0.71222854  0.83353502  0.68793714  1
  O  O360  1  0.21200806  0.41488675  0.19696124  1
  O  O361  1  0.20883233  0.41579675  0.69683701  1
  O  O362  1  0.21083490  0.91499128  0.19125692  1
  O  O363  1  0.21519964  0.92284138  0.69156007  1
  O  O364  1  0.54147241  0.41395698  0.19352862  1
  O  O365  1  0.53999831  0.41339694  0.69242225  1
  O  O366  1  0.54348916  0.91661806  0.19737707  1
  O  O367  1  0.54459936  0.91135955  0.69075971  1
  O  O368  1  0.87364783  0.41413784  0.19643301  1
  O  O369  1  0.87991554  0.41716578  0.69430487  1
  O  O370  1  0.87512092  0.91759994  0.19254429  1
  O  O371  1  0.87786181  0.91713494  0.69554229  1
  O  O372  1  0.04441459  0.17283745  0.19221146  1
  O  O373  1  0.04642997  0.17109064  0.69502776  1
  O  O374  1  0.04715396  0.66287174  0.19259808  1
  O  O375  1  0.04317644  0.66274746  0.69398452  1
  O  O376  1  0.37653313  0.16553845  0.19529452  1
  O  O377  1  0.37663798  0.16788055  0.69746129  1
  O  O378  1  0.37466492  0.66756910  0.19294078  1
  O  O379  1  0.37264646  0.66440271  0.68987668  1
  O  O380  1  0.70681414  0.16623863  0.19760766  1
  O  O381  1  0.70987897  0.17250952  0.69182826  1
  O  O382  1  0.71156532  0.66949269  0.19094008  1
  O  O383  1  0.71868772  0.66764442  0.68775828  1
  O  O384  1  0.12728420  0.08066960  0.30873175  1
  O  O385  1  0.11783520  0.08650955  0.80442927  1
  O  O386  1  0.12710336  0.58537771  0.30610207  1
  O  O387  1  0.11943669  0.58236976  0.80714210  1
  O  O388  1  0.45350191  0.08202597  0.30372186  1
  O  O389  1  0.45178948  0.09310422  0.80632773  1
  O  O390  1  0.45358603  0.57802823  0.30369115  1
  O  O391  1  0.45429382  0.58094146  0.80658358  1
  O  O392  1  0.78688107  0.08239662  0.30195272  1
  O  O393  1  0.79119680  0.08886221  0.80335927  1
  O  O394  1  0.78810595  0.58400495  0.30370286  1
  O  O395  1  0.80448533  0.58326602  0.80664439  1
  O  O396  1  0.29186396  0.33064117  0.30836986  1
  O  O397  1  0.28799877  0.33366355  0.80192019  1
  O  O398  1  0.29206693  0.83410268  0.30208953  1
  O  O399  1  0.29636649  0.83060433  0.81289407  1
  O  O400  1  0.62053643  0.33408379  0.30501181  1
  O  O401  1  0.62615650  0.33396283  0.80458500  1
  O  O402  1  0.62273352  0.83143280  0.30413803  1
  O  O403  1  0.62111440  0.83544882  0.80881351  1
  O  O404  1  0.95516072  0.33678739  0.30938398  1
  O  O405  1  0.95689232  0.33096221  0.80633980  1
  O  O406  1  0.95811731  0.83099421  0.30294408  1
  O  O407  1  0.95674317  0.83577539  0.80202499  1
  O  O408  1  0.12479900  0.41664177  0.30145851  1
  O  O409  1  0.12133088  0.41595673  0.80900568  1
  O  O410  1  0.12677731  0.91473876  0.30357762  1
  O  O411  1  0.11318823  0.92193097  0.80364755  1
  O  O412  1  0.45598246  0.41517887  0.30495830  1
  O  O413  1  0.45564735  0.41366070  0.80578601  1
  O  O414  1  0.45791931  0.91683324  0.30373576  1
  O  O415  1  0.45243250  0.90891702  0.80755857  1
  O  O416  1  0.78645300  0.41727749  0.30469685  1
  O  O417  1  0.79066945  0.41656294  0.79856090  1
  O  O418  1  0.79044471  0.91238646  0.30523484  1
  O  O419  1  0.79388698  0.92094457  0.80114020  1
  O  O420  1  0.29049574  0.16473217  0.30544898  1
  O  O421  1  0.28803299  0.16784366  0.81224297  1
  O  O422  1  0.29351629  0.66698457  0.30306003  1
  O  O423  1  0.28734511  0.66361078  0.79975831  1
  O  O424  1  0.61847417  0.16781252  0.30742471  1
  O  O425  1  0.62759103  0.16968982  0.80721607  1
  O  O426  1  0.62977119  0.66625356  0.30351286  1
  O  O427  1  0.61684643  0.67596452  0.79900441  1
  O  O428  1  0.95586294  0.16877383  0.30264196  1
  O  O429  1  0.95758962  0.16731012  0.80357518  1
  O  O430  1  0.95897979  0.66683228  0.30321454  1
  O  O431  1  0.95482349  0.66988460  0.80259545  1
  F  F432  1  0.04591684  -0.00298216  0.20059080  1
  F  F433  1  0.03824190  0.00199256  0.69463588  1
  F  F434  1  0.04704109  0.49925392  0.20378853  1
  F  F435  1  0.04597056  0.49878694  0.70381628  1
  F  F436  1  0.38000414  -0.00001367  0.20128172  1
  F  F437  1  0.36890053  0.00219026  0.70069414  1
  F  F438  1  0.37703735  0.49588494  0.20115453  1
  F  F439  1  0.37462763  0.49601308  0.70370724  1
  F  F440  1  0.70968816  -0.00188940  0.20382931  1
  F  F441  1  0.71640598  0.01358090  0.69257890  1
  F  F442  1  0.71113842  0.49844282  0.20206040  1
  F  F443  1  0.71627701  0.49094883  0.69317624  1
  F  F444  1  0.21164109  0.25098375  0.20421099  1
  F  F445  1  0.21155362  0.24946660  0.70462624  1
  F  F446  1  0.21511658  0.74865248  0.20222091  1
  F  F447  1  0.21240503  0.73984066  0.69637411  1
  F  F448  1  0.54394615  0.24928668  0.20362722  1
  F  F449  1  0.54512557  0.25141129  0.70391200  1
  F  F450  1  0.54714996  0.75424547  0.19959328  1
  F  F451  1  0.53168884  0.75221182  0.69334594  1
  F  F452  1  0.87520521  0.25185560  0.20440019  1
  F  F453  1  0.88035682  0.25354303  0.70016159  1
  F  F454  1  0.87992123  0.75080062  0.20098890  1
  F  F455  1  0.87953782  0.74894035  0.69831274  1
  F  F456  1  0.28946705  -0.00335694  0.29667448  1
  F  F457  1  0.28965638  -0.00052211  0.80434518  1
  F  F458  1  0.29073201  0.49985336  0.29876187  1
  F  F459  1  0.28627205  0.49790620  0.79974873  1
  F  F460  1  0.62005850  -0.00166324  0.30034202  1
  F  F461  1  0.64008481  0.00636685  0.80520484  1
  F  F462  1  0.62174942  0.49677005  0.29863937  1
  F  F463  1  0.61685421  0.48879914  0.79888391  1
  F  F464  1  0.95353599  -0.00883912  0.29969655  1
  F  F465  1  0.95451781  0.00155196  0.79731077  1
  F  F466  1  0.95483130  0.49981073  0.29937656  1
  F  F467  1  0.95542292  0.50012869  0.79644963  1
  F  F468  1  0.12227999  0.24882469  0.29919741  1
  F  F469  1  0.12013642  0.25141373  0.79941083  1
  F  F470  1  0.12438807  0.74748539  0.29682025  1
  F  F471  1  0.11324436  0.74034878  0.79972512  1
  F  F472  1  0.45342345  0.24964599  0.29810799  1
  F  F473  1  0.45623152  0.25161242  0.80012170  1
  F  F474  1  0.45368995  0.75454176  0.29991737  1
  F  F475  1  0.45210889  0.74499536  0.79709696  1
  F  F476  1  0.78484107  0.25109520  0.30062943  1
  F  F477  1  0.79033162  0.25008230  0.79541271  1
  F  F478  1  0.78881003  0.74941813  0.29487654  1
  F  F479  1  0.79676477  0.75430645  0.79805982  1
