# generated using pymatgen
data_K24Na3Li5Mg64Fe17Si79(O5F)48
_symmetry_space_group_name_H-M   'P 1'
_cell_length_a   16.06724345
_cell_length_b   18.55992007
_cell_length_c   20.52788734
_cell_angle_alpha   90.00165014
_cell_angle_beta   100.00475441
_cell_angle_gamma   89.99562686
_symmetry_Int_Tables_number   1
_chemical_formula_structural   K24Na3Li5Mg64Fe17Si79(O5F)48
_chemical_formula_sum   'K24 Na3 Li5 Mg64 Fe17 Si79 O240 F48'
_cell_volume   6028.46623757
_cell_formula_units_Z   1
loop_
 _symmetry_equiv_pos_site_id
 _symmetry_equiv_pos_as_xyz
  1  'x, y, z'
loop_
 _atom_site_type_symbol
 _atom_site_label
 _atom_site_symmetry_multiplicity
 _atom_site_fract_x
 _atom_site_fract_y
 _atom_site_fract_z
 _atom_site_occupancy
  K  K0  1  0.00004482  -0.00324574  -0.00310514  1
  K  K1  1  -0.00771511  -0.00483764  0.50504529  1
  K  K2  1  0.00908374  0.50429925  0.00329405  1
  K  K3  1  -0.00769770  0.49797384  0.50079643  1
  K  K4  1  0.33251686  0.00032047  0.00201834  1
  K  K5  1  0.33418020  0.00026565  0.49869251  1
  K  K6  1  0.34040301  0.49544491  0.00629607  1
  K  K7  1  0.33862552  0.50258399  0.49985909  1
  K  K8  1  0.66952228  -0.00052298  0.00423802  1
  K  K9  1  0.67105092  0.00459564  0.49966639  1
  K  K10  1  0.65607634  0.49589239  0.00577596  1
  K  K11  1  0.66825704  0.49756747  0.49984653  1
  K  K12  1  0.16464714  0.24939754  0.00443809  1
  K  K13  1  0.16560889  0.24738202  0.49896283  1
  K  K14  1  0.15822009  0.75367273  -0.00086258  1
  K  K15  1  0.16333944  0.75648954  0.50016866  1
  K  K16  1  0.50647563  0.25214960  0.00744335  1
  K  K17  1  0.49633254  0.24344071  0.49910652  1
  K  K18  1  0.50580966  0.75880060  0.00360291  1
  K  K19  1  0.50315508  0.74673704  0.49983985  1
  K  K20  1  0.83341691  0.24298445  0.00327666  1
  K  K21  1  0.84089200  0.24557940  0.50347836  1
  K  K22  1  0.84471020  0.75205421  -0.00166842  1
  K  K23  1  0.83669321  0.75836147  0.50204499  1
  Na  Na24  1  0.66600926  0.24965058  0.74610485  1
  Na  Na25  1  0.00166241  0.91664285  0.75264989  1
  Na  Na26  1  0.66420621  0.08111434  0.25296009  1
  Li  Li27  1  0.33373760  0.24815420  0.25191830  1
  Li  Li28  1  -0.00405008  0.75461376  0.75075513  1
  Li  Li29  1  0.66069559  0.41625513  0.24424231  1
  Li  Li30  1  0.50059522  0.83420230  0.25355136  1
  Li  Li31  1  0.16622466  0.16380618  0.74679100  1
  Mg  Mg32  1  0.00401827  0.24998760  0.74916027  1
  Mg  Mg33  1  0.16695595  0.50091362  0.75094373  1
  Mg  Mg34  1  0.66855156  0.74951912  0.74715546  1
  Mg  Mg35  1  0.83375871  0.49961399  0.74809170  1
  Mg  Mg36  1  0.83735840  0.00157722  0.75121723  1
  Mg  Mg37  1  0.50091135  -0.00041700  0.74960225  1
  Mg  Mg38  1  0.50452282  0.49971370  0.24480557  1
  Mg  Mg39  1  0.16608400  0.00263060  0.25222070  1
  Mg  Mg40  1  0.33332924  0.75099448  0.74910206  1
  Mg  Mg41  1  0.16669872  0.00053663  0.75173257  1
  Mg  Mg42  1  0.16912036  0.50004763  0.24629718  1
  Mg  Mg43  1  0.00119677  0.74999249  0.25091670  1
  Mg  Mg44  1  0.33803132  0.75213662  0.24681721  1
  Mg  Mg45  1  0.49904732  -0.00216710  0.25282719  1
  Mg  Mg46  1  0.83078186  0.49854641  0.24863691  1
  Mg  Mg47  1  0.33121035  0.24951116  0.74952531  1
  Mg  Mg48  1  0.50124938  0.49975520  0.74573949  1
  Mg  Mg49  1  0.66416067  0.25253602  0.24692126  1
  Mg  Mg50  1  0.83046486  -0.00009230  0.25315264  1
  Mg  Mg51  1  0.66443464  0.74891587  0.24868639  1
  Mg  Mg52  1  -0.00033338  0.24828501  0.25203714  1
  Mg  Mg53  1  0.66411464  0.58064650  0.24511449  1
  Mg  Mg54  1  0.49716818  0.16641700  0.74932800  1
  Mg  Mg55  1  0.83041990  0.33390945  0.24901963  1
  Mg  Mg56  1  0.66550585  0.58441174  0.74753675  1
  Mg  Mg57  1  0.66705624  0.91667531  0.74969348  1
  Mg  Mg58  1  0.83408465  0.66488796  0.24917622  1
  Mg  Mg59  1  0.49931248  0.33409041  0.24600058  1
  Mg  Mg60  1  0.33379864  0.08642630  0.25245440  1
  Mg  Mg61  1  -0.00020194  0.08602031  0.25282967  1
  Mg  Mg62  1  0.50072617  0.66481816  0.74706948  1
  Mg  Mg63  1  0.16392515  0.66963638  0.75403013  1
  Mg  Mg64  1  0.16980717  0.33227584  0.25039578  1
  Mg  Mg65  1  0.33338459  0.41584763  0.74960208  1
  Mg  Mg66  1  0.83242736  0.16567260  0.25140632  1
  Mg  Mg67  1  0.49678323  0.16766102  0.25086915  1
  Mg  Mg68  1  0.00205542  0.08507604  0.74989789  1
  Mg  Mg69  1  -0.00044575  0.91535481  0.25236334  1
  Mg  Mg70  1  0.66564993  0.08525726  0.74831178  1
  Mg  Mg71  1  0.16383037  0.83449259  0.75471118  1
  Mg  Mg72  1  0.49944505  0.66812789  0.24386283  1
  Mg  Mg73  1  0.16759206  0.16824424  0.25105085  1
  Mg  Mg74  1  -0.00131573  0.41638111  0.74906323  1
  Mg  Mg75  1  0.66319780  0.91404004  0.25331822  1
  Mg  Mg76  1  0.83355405  0.33371995  0.74793911  1
  Mg  Mg77  1  0.83377805  0.66765254  0.75062939  1
  Mg  Mg78  1  0.16681596  0.33250404  0.74959951  1
  Mg  Mg79  1  0.00014618  0.41566392  0.25075156  1
  Mg  Mg80  1  0.83557732  0.83373339  0.75059531  1
  Mg  Mg81  1  0.16770686  0.66606645  0.24602442  1
  Mg  Mg82  1  0.83363485  0.16666748  0.74735269  1
  Mg  Mg83  1  0.33597609  0.41332967  0.24724075  1
  Mg  Mg84  1  0.00144459  0.58482024  0.24937107  1
  Mg  Mg85  1  0.49746864  0.33268000  0.74745217  1
  Mg  Mg86  1  0.49979185  0.83454350  0.74748661  1
  Mg  Mg87  1  0.66538367  0.41439189  0.74616749  1
  Mg  Mg88  1  0.33559193  0.91616939  0.24985051  1
  Mg  Mg89  1  0.33607953  0.58534414  0.24271957  1
  Mg  Mg90  1  0.33349870  0.58516080  0.75025996  1
  Mg  Mg91  1  0.83399295  0.83346491  0.25349093  1
  Mg  Mg92  1  0.33062319  0.91597410  0.74937170  1
  Mg  Mg93  1  -0.00199850  0.58590290  0.75146998  1
  Mg  Mg94  1  0.16764473  0.83469782  0.25056813  1
  Mg  Mg95  1  0.32980192  0.08404353  0.75078960  1
  Fe  Fe96  1  0.97742591  0.83195930  0.89423180  1
  Fe  Fe97  1  0.30819558  0.16875250  0.39035504  1
  Fe  Fe98  1  0.85693859  0.41598750  0.60878276  1
  Fe  Fe99  1  0.02878705  0.66484579  0.10926894  1
  Fe  Fe100  1  0.02103650  0.16941451  0.11012260  1
  Fe  Fe101  1  0.97452720  0.83475229  0.39237244  1
  Fe  Fe102  1  0.85960387  0.08391153  0.60836702  1
  Fe  Fe103  1  0.18789347  0.91489148  0.61140549  1
  Fe  Fe104  1  0.35564074  0.33170944  0.61061526  1
  Fe  Fe105  1  0.35933724  0.67460495  0.10334312  1
  Fe  Fe106  1  0.69515069  0.66944855  0.60837990  1
  Fe  Fe107  1  0.52146629  0.41118471  0.10467484  1
  Fe  Fe108  1  0.97339557  0.16221815  0.39308249  1
  Fe  Fe109  1  0.52501198  0.91716470  0.61033209  1
  Fe  Fe110  1  0.52339771  0.58067504  0.60588484  1
  Fe  Fe111  1  0.47783045  0.91424879  0.38946946  1
  Fe  Fe112  1  0.52820073  0.58673931  0.10272928  1
  Si  Si113  1  0.03350486  0.16987559  0.61532113  1
  Si  Si114  1  0.47892477  0.08336630  0.38997206  1
  Si  Si115  1  0.02599236  0.82534998  0.61705409  1
  Si  Si116  1  0.18847684  0.92223655  0.11527408  1
  Si  Si117  1  0.31157571  0.33948605  0.38669607  1
  Si  Si118  1  0.85308010  0.07921595  0.11230634  1
  Si  Si119  1  0.80567541  0.08808215  0.88636262  1
  Si  Si120  1  0.02400842  0.83650162  0.11353824  1
  Si  Si121  1  0.70076715  0.66787750  0.11160992  1
  Si  Si122  1  0.35332785  0.32530473  0.11077756  1
  Si  Si123  1  0.47709635  0.58537359  0.38139093  1
  Si  Si124  1  0.63492131  0.17395077  0.38345662  1
  Si  Si125  1  0.86232251  0.58662418  0.61210513  1
  Si  Si126  1  0.30711157  0.66644278  0.88699369  1
  Si  Si127  1  0.69790306  0.32910610  0.10962543  1
  Si  Si128  1  0.30558817  0.83118792  0.38591496  1
  Si  Si129  1  0.19028179  0.41208083  0.11325701  1
  Si  Si130  1  0.03198043  0.33591116  0.61287666  1
  Si  Si131  1  0.97753084  0.33538731  0.38763953  1
  Si  Si132  1  0.80471621  0.57820015  0.88727498  1
  Si  Si133  1  0.64135333  0.66732508  0.88675615  1
  Si  Si134  1  0.97584166  0.16749295  0.88613940  1
  Si  Si135  1  0.19035110  0.08518284  0.11295832  1
  Si  Si136  1  0.47413163  0.58516670  0.88579798  1
  Si  Si137  1  0.64195222  0.82624184  0.38661601  1
  Si  Si138  1  0.80837136  0.41471191  0.38304938  1
  Si  Si139  1  0.69214592  0.33224618  0.61124695  1
  Si  Si140  1  0.15073946  0.92059473  0.89312049  1
  Si  Si141  1  0.19839453  0.57844466  0.10742915  1
  Si  Si142  1  0.85682297  0.41971092  0.11486377  1
  Si  Si143  1  0.14445261  0.91714254  0.38635060  1
  Si  Si144  1  0.86056228  0.58194416  0.11360132  1
  Si  Si145  1  0.35760187  0.16017663  0.11456913  1
  Si  Si146  1  0.80044046  0.08531205  0.38799660  1
  Si  Si147  1  0.52497146  0.41004712  0.60939917  1
  Si  Si148  1  0.97466133  0.33327617  0.88628452  1
  Si  Si149  1  0.47523286  0.91518269  0.88693505  1
  Si  Si150  1  0.35254496  0.16424483  0.61538411  1
  Si  Si151  1  0.64050445  0.33546337  0.38267670  1
  Si  Si152  1  0.19221413  0.08170197  0.61606773  1
  Si  Si153  1  0.18912046  0.58587492  0.61735088  1
  Si  Si154  1  0.14222836  0.58066255  0.88755580  1
  Si  Si155  1  0.80884148  0.57940245  0.38407172  1
  Si  Si156  1  0.30946588  0.66542025  0.38247663  1
  Si  Si157  1  0.52586686  0.91909843  0.11452541  1
  Si  Si158  1  0.02671377  0.66444708  0.61903448  1
  Si  Si159  1  0.69369543  0.83810001  0.61349598  1
  Si  Si160  1  0.80486675  0.41282469  0.88629939  1
  Si  Si161  1  0.69188870  0.16603086  0.11437561  1
  Si  Si162  1  0.63664167  0.33361671  0.88458684  1
  Si  Si163  1  0.01933637  0.33914202  0.11335702  1
  Si  Si164  1  0.80581251  0.92109931  0.88989872  1
  Si  Si165  1  0.14396907  0.08628663  0.88740893  1
  Si  Si166  1  0.52288999  0.08397336  0.11459467  1
  Si  Si167  1  0.85616529  0.91595094  0.11658036  1
  Si  Si168  1  0.68762562  0.16591746  0.61148567  1
  Si  Si169  1  0.80082487  0.91776640  0.39003054  1
  Si  Si170  1  0.35309915  0.66712875  0.61290300  1
  Si  Si171  1  0.35861545  0.83048750  0.61249007  1
  Si  Si172  1  0.63704854  0.16608373  0.88590703  1
  Si  Si173  1  0.97224736  0.65854430  0.88990434  1
  Si  Si174  1  0.30938675  0.33378029  0.88729361  1
  Si  Si175  1  0.64581074  0.66378614  0.38276191  1
  Si  Si176  1  0.14220989  0.07927085  0.38983816  1
  Si  Si177  1  0.85913530  0.91236385  0.61530003  1
  Si  Si178  1  0.14485695  0.58232477  0.38420608  1
  Si  Si179  1  0.35206234  0.84235533  0.10982924  1
  Si  Si180  1  0.31038061  0.16816777  0.88702158  1
  Si  Si181  1  0.64202490  0.83327613  0.88647890  1
  Si  Si182  1  0.47472586  0.41908905  0.88544664  1
  Si  Si183  1  0.69115034  0.83305928  0.11566344  1
  Si  Si184  1  0.51875676  0.08688966  0.61348981  1
  Si  Si185  1  0.19365335  0.42268229  0.61454194  1
  Si  Si186  1  0.31149912  0.83272437  0.88884938  1
  Si  Si187  1  0.97660385  0.66224243  0.38845050  1
  Si  Si188  1  0.14262327  0.41462769  0.88671365  1
  Si  Si189  1  0.47411399  0.08203692  0.88768056  1
  Si  Si190  1  0.47628715  0.42106473  0.38309041  1
  Si  Si191  1  0.14337167  0.41842957  0.38473335  1
  O  O192  1  0.27853608  0.10597268  0.08527413  1
  O  O193  1  0.28145231  0.10201900  0.58950603  1
  O  O194  1  0.28120109  0.59916432  0.07677118  1
  O  O195  1  0.27212031  0.61196254  0.58726543  1
  O  O196  1  0.60087522  0.12539175  0.08656019  1
  O  O197  1  0.60163437  0.11740701  0.58469321  1
  O  O198  1  0.63006113  0.61492933  0.07345785  1
  O  O199  1  0.61470388  0.60448715  0.56714659  1
  O  O200  1  0.92593776  0.11163299  0.07546055  1
  O  O201  1  0.95600711  0.12098544  0.57829330  1
  O  O202  1  0.94164021  0.59812745  0.07940090  1
  O  O203  1  0.95588399  0.60362521  0.58994005  1
  O  O204  1  0.10265360  0.36861873  0.08402139  1
  O  O205  1  0.11756690  0.36575263  0.58662258  1
  O  O206  1  0.10544255  0.87259241  0.08559868  1
  O  O207  1  0.10090586  0.84973561  0.57761465  1
  O  O208  1  0.42553029  0.35217877  0.07050133  1
  O  O209  1  0.45757940  0.34753142  0.58079426  1
  O  O210  1  0.43608154  0.87886888  0.08336713  1
  O  O211  1  0.44606540  0.84272924  0.58434156  1
  O  O212  1  0.78361235  0.36181284  0.08357374  1
  O  O213  1  0.77012136  0.35125849  0.57339872  1
  O  O214  1  0.77169585  0.86783168  0.08596307  1
  O  O215  1  0.78398280  0.85360137  0.58758652  1
  O  O216  1  0.26464798  0.37110571  0.08189627  1
  O  O217  1  0.27494441  0.40492519  0.58114397  1
  O  O218  1  0.27205845  0.89900224  0.08414093  1
  O  O219  1  0.28724056  0.88771042  0.57997351  1
  O  O220  1  0.61658262  0.37184751  0.07169191  1
  O  O221  1  0.61449132  0.38879998  0.58401160  1
  O  O222  1  0.60414943  0.87845314  0.08430203  1
  O  O223  1  0.63002095  0.90342940  0.58488017  1
  O  O224  1  0.94396968  0.39938653  0.08695852  1
  O  O225  1  0.95528872  0.38621771  0.57740639  1
  O  O226  1  0.93937165  0.88728757  0.08770654  1
  O  O227  1  0.94404534  0.87806310  0.59175281  1
  O  O228  1  0.11766039  0.13907864  0.07635726  1
  O  O229  1  0.12301721  0.14636652  0.59181789  1
  O  O230  1  0.11973272  0.62844269  0.07313918  1
  O  O231  1  0.11228749  0.64141914  0.58846660  1
  O  O232  1  0.43688263  0.12850863  0.08002576  1
  O  O233  1  0.44111486  0.14445897  0.58909564  1
  O  O234  1  0.45249949  0.65631918  0.06527699  1
  O  O235  1  0.42886642  0.64236700  0.57609745  1
  O  O236  1  0.76276017  0.12027654  0.08238418  1
  O  O237  1  0.76263963  0.14053936  0.57296546  1
  O  O238  1  0.79006221  0.64451712  0.08692402  1
  O  O239  1  0.79951917  0.65074059  0.58112009  1
  O  O240  1  0.05598544  0.09149108  0.41994605  1
  O  O241  1  0.06452087  0.12501931  0.91712212  1
  O  O242  1  0.06302438  0.61304891  0.41356310  1
  O  O243  1  0.06126606  0.61206109  0.91688344  1
  O  O244  1  0.39905900  0.10742031  0.42380689  1
  O  O245  1  0.39730025  0.12200548  0.91847127  1
  O  O246  1  0.39628078  0.61967446  0.41142809  1
  O  O247  1  0.39490651  0.62193388  0.91505273  1
  O  O248  1  0.71389094  0.11937883  0.40946966  1
  O  O249  1  0.73100079  0.13225318  0.91724029  1
  O  O250  1  0.72774699  0.61258340  0.41282668  1
  O  O251  1  0.72862954  0.62228879  0.91612948  1
  O  O252  1  0.22848676  0.37344012  0.41565109  1
  O  O253  1  0.22963075  0.36976563  0.91746119  1
  O  O254  1  0.21786761  0.85615169  0.41119208  1
  O  O255  1  0.24238819  0.87853646  0.92203732  1
  O  O256  1  0.56189555  0.37413781  0.41276821  1
  O  O257  1  0.56243159  0.37593422  0.91686207  1
  O  O258  1  0.56150426  0.84537854  0.42036645  1
  O  O259  1  0.56398789  0.87266717  0.91645545  1
  O  O260  1  0.89556147  0.37145398  0.41524636  1
  O  O261  1  0.89662479  0.37345029  0.91563256  1
  O  O262  1  0.88396150  0.87509212  0.42647549  1
  O  O263  1  0.89027821  0.88339022  0.92878196  1
  O  O264  1  0.06007007  0.38923434  0.41328517  1
  O  O265  1  0.06336363  0.37724675  0.91642880  1
  O  O266  1  0.06531862  0.89677255  0.42165509  1
  O  O267  1  0.07965184  0.88277960  0.92830742  1
  O  O268  1  0.39363731  0.39348808  0.41340922  1
  O  O269  1  0.39572776  0.38080410  0.91480614  1
  O  O270  1  0.38046122  0.88196328  0.42208993  1
  O  O271  1  0.40296525  0.87188147  0.91923620  1
  O  O272  1  0.72756582  0.38094107  0.41195674  1
  O  O273  1  0.73019771  0.36834313  0.91589324  1
  O  O274  1  0.72022481  0.88082899  0.41715726  1
  O  O275  1  0.72511203  0.88112588  0.91761161  1
  O  O276  1  0.21212623  0.13712420  0.42372700  1
  O  O277  1  0.23051844  0.13360780  0.91738298  1
  O  O278  1  0.23072519  0.62861953  0.41367034  1
  O  O279  1  0.22889160  0.62683808  0.91598928  1
  O  O280  1  0.55417809  0.14459502  0.41442232  1
  O  O281  1  0.56406971  0.12264023  0.91945501  1
  O  O282  1  0.56196133  0.63303959  0.41048048  1
  O  O283  1  0.56160959  0.62955241  0.91544786  1
  O  O284  1  0.87763554  0.13264732  0.42733848  1
  O  O285  1  0.89685636  0.12843961  0.91538864  1
  O  O286  1  0.89704693  0.62139807  0.41539532  1
  O  O287  1  0.89599223  0.61381502  0.91951077  1
  O  O288  1  0.16425476  0.00301342  0.08535733  1
  O  O289  1  0.15657616  0.00794902  0.57957914  1
  O  O290  1  0.17566114  0.49346050  0.08293628  1
  O  O291  1  0.16052777  0.50488697  0.58964727  1
  O  O292  1  0.51905965  0.00167154  0.08184305  1
  O  O293  1  0.48850530  0.01007284  0.58098285  1
  O  O294  1  0.49947041  0.49856523  0.06200850  1
  O  O295  1  0.49081197  0.48653535  0.57705389  1
  O  O296  1  0.83428781  -0.00412696  0.08477404  1
  O  O297  1  0.83999418  -0.01132775  0.57674482  1
  O  O298  1  0.82499713  0.50048284  0.08809380  1
  O  O299  1  0.83089546  0.50994795  0.57753954  1
  O  O300  1  -0.00921462  0.26356216  0.07741892  1
  O  O301  1  0.01714481  0.25311009  0.58598017  1
  O  O302  1  0.00395200  0.75943274  0.07803124  1
  O  O303  1  -0.00379456  0.74308646  0.58832896  1
  O  O304  1  0.33113530  0.24095337  0.08491222  1
  O  O305  1  0.31603423  0.23964067  0.58287309  1
  O  O306  1  0.32551193  0.76832959  0.07038683  1
  O  O307  1  0.32080329  0.74862378  0.58955940  1
  O  O308  1  0.68868120  0.24558194  0.07857052  1
  O  O309  1  0.65880462  0.24977414  0.59044508  1
  O  O310  1  0.67969513  0.75166992  0.08440757  1
  O  O311  1  0.65639434  0.76233416  0.58152875  1
  O  O312  1  0.18057339  -0.00277809  0.41078407  1
  O  O313  1  0.16172333  0.00571768  0.92128676  1
  O  O314  1  0.16126576  0.50071326  0.41428017  1
  O  O315  1  0.15623655  0.49720161  0.91646158  1
  O  O316  1  0.51490160  0.00641481  0.42035890  1
  O  O317  1  0.48214338  -0.00160971  0.91696452  1
  O  O318  1  0.49383957  0.50375222  0.41220105  1
  O  O319  1  0.48503655  0.50200805  0.91411938  1
  O  O320  1  0.80524953  0.00172644  0.41613418  1
  O  O321  1  0.80569127  0.00628665  0.91716791  1
  O  O322  1  0.82136861  0.49712419  0.41327106  1
  O  O323  1  0.80601492  0.49501359  0.91709444  1
  O  O324  1  0.33404200  0.26339752  0.42277260  1
  O  O325  1  0.32392279  0.25136043  0.91722326  1
  O  O326  1  0.32179139  0.74676135  0.41291322  1
  O  O327  1  0.31682778  0.74893166  0.91681710  1
  O  O328  1  0.65585697  0.25489110  0.41659625  1
  O  O329  1  0.63762733  0.25007175  0.91298472  1
  O  O330  1  0.67141711  0.74353001  0.41334846  1
  O  O331  1  0.65190949  0.75037020  0.91725899  1
  O  O332  1  0.99934715  0.25861581  0.42300882  1
  O  O333  1  0.98400842  0.25077881  0.91697505  1
  O  O334  1  0.99292240  0.73900818  0.42491499  1
  O  O335  1  0.98289713  0.73518656  0.92734665  1
  O  O336  1  0.20655842  0.08391326  0.19347087  1
  O  O337  1  0.21304301  0.07902898  0.69664754  1
  O  O338  1  0.21044829  0.58173367  0.18930782  1
  O  O339  1  0.20977150  0.58511805  0.69820316  1
  O  O340  1  0.53239020  0.08222520  0.19339958  1
  O  O341  1  0.54067780  0.08427909  0.69512910  1
  O  O342  1  0.54452629  0.58444302  0.19549443  1
  O  O343  1  0.54404268  0.58305637  0.69931256  1
  O  O344  1  0.87277825  0.08142919  0.19283613  1
  O  O345  1  0.87932177  0.08491152  0.70035712  1
  O  O346  1  0.87891534  0.58242532  0.19486536  1
  O  O347  1  0.87706789  0.58282986  0.69420416  1
  O  O348  1  0.04055363  0.33599930  0.19426774  1
  O  O349  1  0.04576982  0.33679439  0.69431840  1
  O  O350  1  0.04420792  0.83434433  0.19434396  1
  O  O351  1  0.05226139  0.82422599  0.69602086  1
  O  O352  1  0.37553778  0.33400387  0.19034487  1
  O  O353  1  0.37545487  0.33389968  0.70285875  1
  O  O354  1  0.36733263  0.83588830  0.18947012  1
  O  O355  1  0.37616531  0.83277985  0.69496197  1
  O  O356  1  0.71290784  0.32938302  0.18965568  1
  O  O357  1  0.71615291  0.34060050  0.69132246  1
  O  O358  1  0.71017072  0.83237780  0.19577376  1
  O  O359  1  0.70968698  0.83494943  0.69582198  1
  O  O360  1  0.20961476  0.41476243  0.19373227  1
  O  O361  1  0.21048623  0.41989332  0.69609246  1
  O  O362  1  0.20732528  0.91869773  0.19568036  1
  O  O363  1  0.21107592  0.91529448  0.70361087  1
  O  O364  1  0.54042310  0.41541821  0.19541035  1
  O  O365  1  0.54236645  0.41444394  0.69172293  1
  O  O366  1  0.54598964  0.92021952  0.19344433  1
  O  O367  1  0.54503032  0.91737396  0.70299424  1
  O  O368  1  0.87678791  0.41690948  0.19539986  1
  O  O369  1  0.87940558  0.41695860  0.70113833  1
  O  O370  1  0.87457233  0.91570884  0.19667660  1
  O  O371  1  0.86657029  0.91863885  0.69494491  1
  O  O372  1  0.04445856  0.16707877  0.20119276  1
  O  O373  1  0.04277433  0.16980952  0.69563895  1
  O  O374  1  0.04557875  0.66644974  0.20125951  1
  O  O375  1  0.04701660  0.66231167  0.69902017  1
  O  O376  1  0.37925271  0.16113381  0.19371178  1
  O  O377  1  0.37354932  0.16520030  0.69693601  1
  O  O378  1  0.37698430  0.66923919  0.19585650  1
  O  O379  1  0.37507058  0.66548708  0.69456797  1
  O  O380  1  0.71345920  0.17188527  0.19331951  1
  O  O381  1  0.71355125  0.15859540  0.69141290  1
  O  O382  1  0.71348615  0.66659505  0.19259149  1
  O  O383  1  0.71201896  0.66556107  0.70159727  1
  O  O384  1  0.12366383  0.08267332  0.30790634  1
  O  O385  1  0.12464449  0.08368474  0.80820027  1
  O  O386  1  0.12724810  0.58187770  0.30378363  1
  O  O387  1  0.12512390  0.58176394  0.80733611  1
  O  O388  1  0.45792853  0.08402732  0.30819688  1
  O  O389  1  0.45647926  0.08261096  0.80763850  1
  O  O390  1  0.45664175  0.58330102  0.30157549  1
  O  O391  1  0.45561575  0.58476207  0.80551855  1
  O  O392  1  0.79802023  0.08359252  0.30853162  1
  O  O393  1  0.78703205  0.08779185  0.80664735  1
  O  O394  1  0.79204887  0.58234326  0.30365818  1
  O  O395  1  0.78879113  0.57910536  0.80714734  1
  O  O396  1  0.28925913  0.34014366  0.30638326  1
  O  O397  1  0.28872117  0.33526881  0.80748166  1
  O  O398  1  0.28993204  0.83197007  0.30460681  1
  O  O399  1  0.29576633  0.83221081  0.80883489  1
  O  O400  1  0.62177737  0.33247862  0.30316485  1
  O  O401  1  0.61730216  0.33974426  0.80551618  1
  O  O402  1  0.62860639  0.82856399  0.30630371  1
  O  O403  1  0.62383746  0.83180783  0.80656991  1
  O  O404  1  0.95771471  0.33485915  0.30640344  1
  O  O405  1  0.95917139  0.33405491  0.80638883  1
  O  O406  1  0.95563192  0.83195547  0.30027744  1
  O  O407  1  0.94955946  0.82783154  0.80708016  1
  O  O408  1  0.12471161  0.41825345  0.30399226  1
  O  O409  1  0.12486737  0.41671748  0.80648698  1
  O  O410  1  0.12297321  0.91600939  0.30482402  1
  O  O411  1  0.13632019  0.91911046  0.81365296  1
  O  O412  1  0.45665410  0.41834008  0.30300154  1
  O  O413  1  0.45706726  0.41898839  0.80536121  1
  O  O414  1  0.45239088  0.91626223  0.29900410  1
  O  O415  1  0.45584299  0.91557667  0.80711284  1
  O  O416  1  0.79474102  0.41578241  0.30350104  1
  O  O417  1  0.78807844  0.41462582  0.80637011  1
  O  O418  1  0.78931864  0.91477634  0.30885669  1
  O  O419  1  0.78898715  0.91914334  0.80932774  1
  O  O420  1  0.28628292  0.16612948  0.29956701  1
  O  O421  1  0.29600520  0.16760048  0.80778237  1
  O  O422  1  0.28859195  0.66456647  0.30226076  1
  O  O423  1  0.29100231  0.66603006  0.80658613  1
  O  O424  1  0.61631438  0.17752132  0.30396840  1
  O  O425  1  0.61671663  0.15975401  0.80698772  1
  O  O426  1  0.62732834  0.66470590  0.30256216  1
  O  O427  1  0.62262756  0.66771904  0.80692339  1
  O  O428  1  0.95240606  0.16728293  0.30125021  1
  O  O429  1  0.95957503  0.17018336  0.80647911  1
  O  O430  1  0.95698320  0.66453594  0.30745196  1
  O  O431  1  0.95208258  0.65801626  0.81000350  1
  F  F432  1  0.04367713  0.00011162  0.20377664  1
  F  F433  1  0.05026641  0.00853538  0.70193584  1
  F  F434  1  0.04609477  0.49940054  0.20221633  1
  F  F435  1  0.04658987  0.50059435  0.70531376  1
  F  F436  1  0.37577587  0.00237302  0.20133402  1
  F  F437  1  0.37953553  -0.00001626  0.70589350  1
  F  F438  1  0.37819056  0.49834633  0.19896979  1
  F  F439  1  0.37731477  0.50133767  0.70366875  1
  F  F440  1  0.71553256  -0.01117908  0.20062573  1
  F  F441  1  0.71261871  0.00108522  0.70647678  1
  F  F442  1  0.71540331  0.50275650  0.19848738  1
  F  F443  1  0.71235969  0.49961516  0.70295763  1
  F  F444  1  0.20292964  0.25238240  0.19879200  1
  F  F445  1  0.21251308  0.25350998  0.70416308  1
  F  F446  1  0.21128931  0.75132111  0.20126761  1
  F  F447  1  0.21390550  0.74887717  0.70592630  1
  F  F448  1  0.54357163  0.24942353  0.19591656  1
  F  F449  1  0.53165549  0.24841651  0.70061726  1
  F  F450  1  0.54920761  0.74827239  0.19779554  1
  F  F451  1  0.54528637  0.74957150  0.70335100  1
  F  F452  1  0.87814786  0.25213611  0.20167446  1
  F  F453  1  0.88235399  0.25143060  0.70116994  1
  F  F454  1  0.87822960  0.74857572  0.20170650  1
  F  F455  1  0.87374383  0.74855486  0.70375851  1
  F  F456  1  0.28707614  -0.00002022  0.29646664  1
  F  F457  1  0.29354811  0.00127380  0.80362863  1
  F  F458  1  0.28915674  0.50151205  0.29365700  1
  F  F459  1  0.28888732  0.50061316  0.80016777  1
  F  F460  1  0.61683509  -0.01014991  0.30329249  1
  F  F461  1  0.62174977  0.00203034  0.80151067  1
  F  F462  1  0.62232759  0.50369921  0.29941110  1
  F  F463  1  0.62170916  0.49800597  0.79792429  1
  F  F464  1  0.95293900  -0.00083781  0.29722405  1
  F  F465  1  0.95211380  0.01163568  0.80701005  1
  F  F466  1  0.95575475  0.50044328  0.29762173  1
  F  F467  1  0.95634141  0.49989938  0.80106015  1
  F  F468  1  0.12086398  0.25491637  0.30048257  1
  F  F469  1  0.11925730  0.25888849  0.80349287  1
  F  F470  1  0.12431793  0.74997637  0.29879097  1
  F  F471  1  0.13480520  0.74952903  0.80874942  1
  F  F472  1  0.45646049  0.25333553  0.29531292  1
  F  F473  1  0.45426893  0.24850749  0.80267105  1
  F  F474  1  0.45515222  0.74676624  0.29743120  1
  F  F475  1  0.45525389  0.74918743  0.79760195  1
  F  F476  1  0.78643473  0.25164631  0.29782591  1
  F  F477  1  0.80044978  0.25059016  0.80063108  1
  F  F478  1  0.78879027  0.74732546  0.29740666  1
  F  F479  1  0.78559988  0.75099359  0.80225508  1
