# generated using pymatgen
data_K24Na3Li5Mg64Fe17Si79(O5F)48
_symmetry_space_group_name_H-M   'P 1'
_cell_length_a   16.10314403
_cell_length_b   18.60780897
_cell_length_c   20.56811069
_cell_angle_alpha   89.98161113
_cell_angle_beta   100.01631501
_cell_angle_gamma   90.04493642
_symmetry_Int_Tables_number   1
_chemical_formula_structural   K24Na3Li5Mg64Fe17Si79(O5F)48
_chemical_formula_sum   'K24 Na3 Li5 Mg64 Fe17 Si79 O240 F48'
_cell_volume   6069.17710958
_cell_formula_units_Z   1
loop_
 _symmetry_equiv_pos_site_id
 _symmetry_equiv_pos_as_xyz
  1  'x, y, z'
loop_
 _atom_site_type_symbol
 _atom_site_label
 _atom_site_symmetry_multiplicity
 _atom_site_fract_x
 _atom_site_fract_y
 _atom_site_fract_z
 _atom_site_occupancy
  K  K0  1  -0.00276106  -0.00152662  -0.01197722  1
  K  K1  1  -0.00948316  -0.00272894  0.50825871  1
  K  K2  1  -0.00921188  0.49978593  -0.01711810  1
  K  K3  1  -0.00244056  0.50636314  0.50439513  1
  K  K4  1  0.34047833  0.00152578  0.00046688  1
  K  K5  1  0.34338285  -0.00277789  0.50317579  1
  K  K6  1  0.32813273  0.50703481  -0.00642015  1
  K  K7  1  0.33087163  0.49821673  0.50587706  1
  K  K8  1  0.66246928  0.00259470  -0.00687372  1
  K  K9  1  0.67579460  0.00252673  0.50992414  1
  K  K10  1  0.66163523  0.49565692  -0.00902625  1
  K  K11  1  0.66242216  0.49984387  0.50328436  1
  K  K12  1  0.17451732  0.24454059  -0.00165096  1
  K  K13  1  0.16476963  0.25255004  0.50312237  1
  K  K14  1  0.15898897  0.73733924  -0.00814560  1
  K  K15  1  0.16156236  0.73840470  0.50427014  1
  K  K16  1  0.49832919  0.26223417  -0.00345117  1
  K  K17  1  0.50575532  0.26384327  0.50669694  1
  K  K18  1  0.49050411  0.74356576  0.00026508  1
  K  K19  1  0.51515831  0.74693670  0.51259928  1
  K  K20  1  0.81005417  0.26093570  -0.01062427  1
  K  K21  1  0.81671032  0.25738848  0.50406505  1
  K  K22  1  0.83289616  0.75612273  -0.00985052  1
  K  K23  1  0.82181274  0.73402519  0.51276742  1
  Na  Na24  1  0.83215265  0.50261069  0.75674401  1
  Na  Na25  1  0.66641839  0.57838813  0.25699193  1
  Na  Na26  1  -0.00145671  0.91726725  0.74686494  1
  Li  Li27  1  0.50669809  0.50038645  0.25474557  1
  Li  Li28  1  0.83282270  -0.00006432  0.24900435  1
  Li  Li29  1  0.33303528  0.58112645  0.75366115  1
  Li  Li30  1  0.83351971  0.65923837  0.75301227  1
  Li  Li31  1  0.50080607  0.33833369  0.75390757  1
  Mg  Mg32  1  0.00014278  0.24961556  0.24922491  1
  Mg  Mg33  1  0.16792952  -0.00109259  0.74790119  1
  Mg  Mg34  1  0.16860108  0.50082598  0.75697670  1
  Mg  Mg35  1  0.49604084  0.50064136  0.75290169  1
  Mg  Mg36  1  0.33260267  0.74941384  0.24362880  1
  Mg  Mg37  1  0.33830530  0.25261617  0.74923104  1
  Mg  Mg38  1  0.83197860  0.49953479  0.25655786  1
  Mg  Mg39  1  0.67256184  0.74888724  0.74883989  1
  Mg  Mg40  1  0.00176655  0.24977973  0.74996665  1
  Mg  Mg41  1  0.83560254  0.00039720  0.74507707  1
  Mg  Mg42  1  -0.00109754  0.75014506  0.25331634  1
  Mg  Mg43  1  0.50029998  -0.00119651  0.24319886  1
  Mg  Mg44  1  0.16668124  0.00070605  0.24459494  1
  Mg  Mg45  1  0.66744890  0.74814531  0.25003103  1
  Mg  Mg46  1  0.33333967  0.74737170  0.75183253  1
  Mg  Mg47  1  0.66538874  0.24934913  0.25238280  1
  Mg  Mg48  1  0.33536416  0.25184365  0.24733556  1
  Mg  Mg49  1  0.16557984  0.49945939  0.25309086  1
  Mg  Mg50  1  0.50250387  0.00052029  0.74288763  1
  Mg  Mg51  1  -0.00315747  0.74776964  0.75286031  1
  Mg  Mg52  1  0.66412844  0.25406893  0.74956017  1
  Mg  Mg53  1  0.33608462  0.41751756  0.25207127  1
  Mg  Mg54  1  0.66919731  0.08206843  0.24795557  1
  Mg  Mg55  1  -0.00306881  0.58510688  0.25524229  1
  Mg  Mg56  1  0.16603419  0.83172104  0.75211782  1
  Mg  Mg57  1  0.50220475  0.83464837  0.74449875  1
  Mg  Mg58  1  0.49791402  0.66627191  0.74874458  1
  Mg  Mg59  1  -0.00155461  0.91841116  0.25013331  1
  Mg  Mg60  1  -0.00089312  0.58263339  0.75603096  1
  Mg  Mg61  1  0.83211284  0.33337523  0.25330041  1
  Mg  Mg62  1  0.17057399  0.16476243  0.74861276  1
  Mg  Mg63  1  0.16470129  0.66496201  0.25126411  1
  Mg  Mg64  1  0.66551716  0.41549156  0.25592720  1
  Mg  Mg65  1  0.83155827  0.33483131  0.75340434  1
  Mg  Mg66  1  0.33592077  0.41762805  0.75343352  1
  Mg  Mg67  1  0.16735097  0.66364464  0.75556543  1
  Mg  Mg68  1  0.66167035  0.41746136  0.75254476  1
  Mg  Mg69  1  0.67020876  0.91670194  0.24621629  1
  Mg  Mg70  1  0.00021010  0.41531404  0.25229008  1
  Mg  Mg71  1  0.49957955  0.17046204  0.74698609  1
  Mg  Mg72  1  0.33444580  0.08523893  0.24510029  1
  Mg  Mg73  1  0.49931845  0.16629608  0.24692539  1
  Mg  Mg74  1  0.83401038  0.16559068  0.74693378  1
  Mg  Mg75  1  0.16919014  0.16638123  0.24744963  1
  Mg  Mg76  1  0.17119353  0.33368844  0.75380718  1
  Mg  Mg77  1  0.16966019  0.33380290  0.25121190  1
  Mg  Mg78  1  0.33465623  0.91442743  0.74754542  1
  Mg  Mg79  1  0.66756398  0.58414381  0.75256311  1
  Mg  Mg80  1  0.00177811  0.41565580  0.75735646  1
  Mg  Mg81  1  0.50069224  0.66425036  0.24778200  1
  Mg  Mg82  1  0.83400628  0.66550572  0.25443669  1
  Mg  Mg83  1  0.83537105  0.83631060  0.25066737  1
  Mg  Mg84  1  0.33654419  0.08404055  0.74813241  1
  Mg  Mg85  1  -0.00097936  0.08288941  0.24879851  1
  Mg  Mg86  1  0.00014463  0.08292654  0.74749914  1
  Mg  Mg87  1  0.33256542  0.91432089  0.24268230  1
  Mg  Mg88  1  0.66556264  0.08676594  0.74514839  1
  Mg  Mg89  1  0.66683609  0.91590189  0.74389061  1
  Mg  Mg90  1  0.16537142  0.83436628  0.24600322  1
  Mg  Mg91  1  0.83305307  0.83160256  0.74716294  1
  Mg  Mg92  1  0.83400994  0.16352791  0.24925446  1
  Mg  Mg93  1  0.49855343  0.83282397  0.24356819  1
  Mg  Mg94  1  0.33471902  0.58239961  0.24782105  1
  Mg  Mg95  1  0.50136842  0.33936195  0.25271976  1
  Fe  Fe96  1  0.31046297  0.33456019  0.38963129  1
  Fe  Fe97  1  0.63121332  0.33474114  0.89239650  1
  Fe  Fe98  1  0.86279261  0.08536846  0.60697138  1
  Fe  Fe99  1  0.35509148  0.83334608  0.10263688  1
  Fe  Fe100  1  0.31051192  0.33086925  0.89140134  1
  Fe  Fe101  1  0.14084994  0.57863589  0.89567527  1
  Fe  Fe102  1  0.69261129  0.65452425  0.61144386  1
  Fe  Fe103  1  0.69556783  0.83089949  0.60489496  1
  Fe  Fe104  1  0.52286652  0.92042709  0.60385569  1
  Fe  Fe105  1  0.63617803  0.33351829  0.39183669  1
  Fe  Fe106  1  0.35353059  0.16819445  0.60910182  1
  Fe  Fe107  1  0.96982389  0.67109469  0.89474957  1
  Fe  Fe108  1  0.80442380  0.41656694  0.89523794  1
  Fe  Fe109  1  0.35769728  0.16806007  0.10565842  1
  Fe  Fe110  1  0.80864858  0.58270242  0.39607647  1
  Fe  Fe111  1  0.51633614  0.41577599  0.61438211  1
  Fe  Fe112  1  0.97645984  0.67246313  0.39488339  1
  Si  Si113  1  0.85968588  0.41691615  0.11816608  1
  Si  Si114  1  0.30430248  0.83225376  0.38100854  1
  Si  Si115  1  0.80821268  0.08472285  0.88296649  1
  Si  Si116  1  0.47169165  0.59249786  0.38344980  1
  Si  Si117  1  0.30746390  0.67071028  0.88958990  1
  Si  Si118  1  0.81321035  0.41189228  0.39264942  1
  Si  Si119  1  0.97600732  0.83849876  0.88813184  1
  Si  Si120  1  0.35887584  0.34190925  0.11222842  1
  Si  Si121  1  0.30952147  0.83494058  0.88570542  1
  Si  Si122  1  0.03634965  0.16724017  0.61208660  1
  Si  Si123  1  0.52483232  0.09300012  0.60862446  1
  Si  Si124  1  0.53266000  0.91601697  0.10820193  1
  Si  Si125  1  0.52961016  0.41873928  0.11628098  1
  Si  Si126  1  0.86731915  0.40891294  0.61876784  1
  Si  Si127  1  0.86133375  0.91761263  0.11445255  1
  Si  Si128  1  0.34648554  0.33426456  0.61212560  1
  Si  Si129  1  0.86113518  0.08367801  0.11386521  1
  Si  Si130  1  0.86302320  0.91314251  0.60847519  1
  Si  Si131  1  0.97365612  0.32906369  0.38561689  1
  Si  Si132  1  0.53222763  0.08292268  0.10948258  1
  Si  Si133  1  0.63716123  0.67079527  0.88690787  1
  Si  Si134  1  0.64407774  0.83439575  0.88345423  1
  Si  Si135  1  0.64025169  0.15996927  0.38597059  1
  Si  Si136  1  0.18390139  0.91833544  0.10878699  1
  Si  Si137  1  0.14014747  0.40691175  0.89253051  1
  Si  Si138  1  0.18487714  0.08251446  0.10942360  1
  Si  Si139  1  0.19248983  0.58599105  0.61942837  1
  Si  Si140  1  0.30450907  0.66670762  0.38332565  1
  Si  Si141  1  0.02273699  0.66606027  0.11653435  1
  Si  Si142  1  0.14590641  0.91858626  0.88476446  1
  Si  Si143  1  0.69389730  0.66787877  0.11507993  1
  Si  Si144  1  0.02738290  0.66527270  0.61713142  1
  Si  Si145  1  0.19484373  0.07505127  0.61246711  1
  Si  Si146  1  0.31460429  0.16105669  0.88672117  1
  Si  Si147  1  0.14377650  0.92233916  0.38186725  1
  Si  Si148  1  0.52682893  0.58320830  0.11545874  1
  Si  Si149  1  0.64316112  0.83513868  0.38165668  1
  Si  Si150  1  0.35616506  0.65987392  0.10940788  1
  Si  Si151  1  0.02270242  0.83180959  0.11436197  1
  Si  Si152  1  0.02301060  0.16858403  0.11300094  1
  Si  Si153  1  0.18889389  0.41879825  0.11582840  1
  Si  Si154  1  0.47324313  0.91150628  0.37965401  1
  Si  Si155  1  0.13716065  0.41261103  0.38758621  1
  Si  Si156  1  0.80899635  0.08289968  0.38248849  1
  Si  Si157  1  0.46704388  0.42805620  0.89369320  1
  Si  Si158  1  0.02492625  0.33406845  0.11529053  1
  Si  Si159  1  0.14522981  0.08576383  0.38210537  1
  Si  Si160  1  0.69276476  0.33769060  0.61458809  1
  Si  Si161  1  0.35365330  0.83214877  0.61065480  1
  Si  Si162  1  0.69702446  0.16771961  0.11417864  1
  Si  Si163  1  0.31349447  0.16452740  0.38425524  1
  Si  Si164  1  0.18892221  0.91185930  0.61449787  1
  Si  Si165  1  0.97735189  0.16414308  0.38403106  1
  Si  Si166  1  0.51385639  0.58339440  0.61296464  1
  Si  Si167  1  0.35434804  0.66946713  0.61698719  1
  Si  Si168  1  0.64017427  0.16326912  0.88610689  1
  Si  Si169  1  0.47715260  0.07546157  0.88233401  1
  Si  Si170  1  0.86923893  0.57508391  0.61603411  1
  Si  Si171  1  0.80817624  0.92053808  0.88266990  1
  Si  Si172  1  0.14223691  0.57918139  0.38873501  1
  Si  Si173  1  0.97304512  0.32693681  0.89000805  1
  Si  Si174  1  0.18743847  0.58240233  0.11602528  1
  Si  Si175  1  0.18974684  0.42351622  0.61772608  1
  Si  Si176  1  0.63496530  0.67184605  0.38579556  1
  Si  Si177  1  0.03208040  0.33217271  0.61730475  1
  Si  Si178  1  0.97994948  0.84185695  0.38759285  1
  Si  Si179  1  0.79958785  0.58963016  0.89465668  1
  Si  Si180  1  0.97889875  0.16317469  0.88456421  1
  Si  Si181  1  0.69811679  0.83193391  0.11239241  1
  Si  Si182  1  0.69392194  0.33314535  0.11734232  1
  Si  Si183  1  0.02949813  0.82686717  0.61705230  1
  Si  Si184  1  0.80852891  0.91788483  0.38269426  1
  Si  Si185  1  0.47389446  0.59163475  0.88636257  1
  Si  Si186  1  0.47385611  0.07527469  0.38117106  1
  Si  Si187  1  0.85783677  0.58188901  0.11630251  1
  Si  Si188  1  0.14588611  0.08245418  0.88469156  1
  Si  Si189  1  0.69348716  0.17159304  0.61174754  1
  Si  Si190  1  0.47677460  0.91268183  0.88300155  1
  Si  Si191  1  0.47029976  0.42767979  0.38810091  1
  O  O192  1  0.26079010  0.10964660  0.07406400  1
  O  O193  1  0.27439543  0.09380096  0.57765958  1
  O  O194  1  0.26903242  0.61147612  0.08595966  1
  O  O195  1  0.27282955  0.61747118  0.58788058  1
  O  O196  1  0.61293458  0.12199820  0.08313679  1
  O  O197  1  0.61264215  0.11954851  0.58374976  1
  O  O198  1  0.60207326  0.62944248  0.08685664  1
  O  O199  1  0.59169963  0.60558565  0.57660955  1
  O  O200  1  0.93853683  0.12126127  0.08264589  1
  O  O201  1  0.95367128  0.12709264  0.57325070  1
  O  O202  1  0.93690078  0.62036601  0.08766234  1
  O  O203  1  0.94943802  0.61275658  0.58575755  1
  O  O204  1  0.10540668  0.36859662  0.08662752  1
  O  O205  1  0.10359800  0.37817377  0.58668716  1
  O  O206  1  0.10109833  0.86609498  0.08357219  1
  O  O207  1  0.11161435  0.85685543  0.58561543  1
  O  O208  1  0.43774876  0.38252721  0.08477930  1
  O  O209  1  0.42579377  0.35533562  0.57689513  1
  O  O210  1  0.44814374  0.87625987  0.07187927  1
  O  O211  1  0.42757939  0.85952047  0.57321922  1
  O  O212  1  0.77329456  0.37175383  0.08986104  1
  O  O213  1  0.77854086  0.36771759  0.58804227  1
  O  O214  1  0.77574166  0.87223912  0.08331673  1
  O  O215  1  0.79225098  0.85885015  0.57088693  1
  O  O216  1  0.27176721  0.39033786  0.08749286  1
  O  O217  1  0.26862513  0.39331855  0.58580649  1
  O  O218  1  0.26059537  0.89385161  0.07318033  1
  O  O219  1  0.27041331  0.88400681  0.58359592  1
  O  O220  1  0.60515521  0.37386688  0.08725308  1
  O  O221  1  0.61452836  0.38653535  0.58099137  1
  O  O222  1  0.61321356  0.87722152  0.08160534  1
  O  O223  1  0.61034635  0.89197016  0.56358707  1
  O  O224  1  0.93867112  0.37990372  0.08831144  1
  O  O225  1  0.93973505  0.36525881  0.58559027  1
  O  O226  1  0.93872544  0.87968871  0.08356407  1
  O  O227  1  0.95456941  0.88372158  0.58987303  1
  O  O228  1  0.10158585  0.13410405  0.08283475  1
  O  O229  1  0.11726257  0.13059310  0.58482120  1
  O  O230  1  0.10421702  0.63249457  0.08854621  1
  O  O231  1  0.11102024  0.63642446  0.58763006  1
  O  O232  1  0.44722110  0.12178211  0.07351022  1
  O  O233  1  0.45442892  0.15210558  0.57817481  1
  O  O234  1  0.43440500  0.61856793  0.08136734  1
  O  O235  1  0.43597866  0.64302551  0.58618534  1
  O  O236  1  0.77506906  0.12911741  0.08442744  1
  O  O237  1  0.76921153  0.14343150  0.57560479  1
  O  O238  1  0.76937427  0.62401668  0.08626971  1
  O  O239  1  0.78263371  0.61022664  0.57795753  1
  O  O240  1  0.06257241  0.11617341  0.41121175  1
  O  O241  1  0.06424003  0.11533136  0.91403576  1
  O  O242  1  0.07015106  0.61049903  0.42559005  1
  O  O243  1  0.05850681  0.61548685  0.93870301  1
  O  O244  1  0.39101584  0.10663530  0.40830103  1
  O  O245  1  0.39512034  0.10562468  0.91143555  1
  O  O246  1  0.38986256  0.62310059  0.41439248  1
  O  O247  1  0.39637013  0.62801648  0.91761508  1
  O  O248  1  0.72854910  0.11423426  0.41269132  1
  O  O249  1  0.73190063  0.12189231  0.91475570  1
  O  O250  1  0.70502271  0.61513092  0.41860488  1
  O  O251  1  0.71303983  0.61910751  0.92272684  1
  O  O252  1  0.20870585  0.35707063  0.42017044  1
  O  O253  1  0.20935884  0.34646767  0.92212619  1
  O  O254  1  0.22702808  0.87253062  0.41040607  1
  O  O255  1  0.23162973  0.87253280  0.91629057  1
  O  O256  1  0.54649297  0.37631942  0.42388904  1
  O  O257  1  0.54478493  0.37805854  0.92929368  1
  O  O258  1  0.55960943  0.86754047  0.40808339  1
  O  O259  1  0.56411614  0.86940794  0.91403051  1
  O  O260  1  0.89054710  0.35121501  0.41522036  1
  O  O261  1  0.89678644  0.35276509  0.92545884  1
  O  O262  1  0.89630399  0.87552488  0.41352996  1
  O  O263  1  0.89799119  0.88313463  0.91582314  1
  O  O264  1  0.04950992  0.38596999  0.41329962  1
  O  O265  1  0.05322697  0.37901017  0.91838641  1
  O  O266  1  0.05938287  0.89937716  0.41093796  1
  O  O267  1  0.06233730  0.88938817  0.91226700  1
  O  O268  1  0.38505673  0.40939109  0.41817826  1
  O  O269  1  0.38531442  0.40421086  0.92604042  1
  O  O270  1  0.39346662  0.87427567  0.40805972  1
  O  O271  1  0.39730634  0.87932287  0.91394852  1
  O  O272  1  0.73608190  0.38241307  0.42627781  1
  O  O273  1  0.72491985  0.37922286  0.94112996  1
  O  O274  1  0.72640068  0.88484869  0.41071057  1
  O  O275  1  0.72995013  0.88178798  0.91321280  1
  O  O276  1  0.22772996  0.13445076  0.41114332  1
  O  O277  1  0.23154688  0.12721725  0.91552991  1
  O  O278  1  0.22873733  0.62727840  0.41372635  1
  O  O279  1  0.23727170  0.63703262  0.92767655  1
  O  O280  1  0.56223874  0.11570354  0.41150211  1
  O  O281  1  0.56641607  0.11456292  0.91353984  1
  O  O282  1  0.54626091  0.65024427  0.41187639  1
  O  O283  1  0.55393711  0.64466145  0.91736676  1
  O  O284  1  0.89622442  0.12915410  0.41149181  1
  O  O285  1  0.89894059  0.12508802  0.91288319  1
  O  O286  1  0.88950513  0.64741754  0.43636246  1
  O  O287  1  0.87301808  0.64508639  0.92861352  1
  O  O288  1  0.15309330  0.00063532  0.08510752  1
  O  O289  1  0.16204839  -0.00702168  0.58693622  1
  O  O290  1  0.16638540  0.50059945  0.08783510  1
  O  O291  1  0.17219469  0.50533120  0.58754847  1
  O  O292  1  0.53361341  -0.00036664  0.08151981  1
  O  O293  1  0.49657863  0.01561819  0.57509505  1
  O  O294  1  0.53055604  0.50084578  0.08592264  1
  O  O295  1  0.47679814  0.50675735  0.58345231  1
  O  O296  1  0.85008838  0.00058709  0.08496349  1
  O  O297  1  0.84983653  -0.00802377  0.57225164  1
  O  O298  1  0.84917818  0.49879352  0.08843974  1
  O  O299  1  0.86851638  0.49032312  0.58914318  1
  O  O300  1  0.00982407  0.25166817  0.08605609  1
  O  O301  1  0.03611821  0.25135146  0.58620438  1
  O  O302  1  0.00764198  0.74879233  0.08797219  1
  O  O303  1  0.00845292  0.74642282  0.58468844  1
  O  O304  1  0.34259244  0.26421255  0.07661787  1
  O  O305  1  0.30710572  0.25750682  0.58220223  1
  O  O306  1  0.34186383  0.73708789  0.07280799  1
  O  O307  1  0.32561815  0.74963567  0.58556495  1
  O  O308  1  0.68844679  0.25060809  0.08628180  1
  O  O309  1  0.67491001  0.25478860  0.58515913  1
  O  O310  1  0.68979446  0.74992149  0.08195821  1
  O  O311  1  0.67355520  0.74156229  0.56754932  1
  O  O312  1  0.16670297  0.00391783  0.41007798  1
  O  O313  1  0.16050710  0.00079603  0.91547945  1
  O  O314  1  0.16100173  0.49519087  0.41375951  1
  O  O315  1  0.16526198  0.48399718  0.92729096  1
  O  O316  1  0.48304479  -0.00723223  0.41006547  1
  O  O317  1  0.49069877  -0.00616942  0.91388954  1
  O  O318  1  0.49580802  0.51206434  0.41192424  1
  O  O319  1  0.49118635  0.51230970  0.92039086  1
  O  O320  1  0.82437634  0.00064084  0.41098241  1
  O  O321  1  0.81587280  0.00272763  0.91432462  1
  O  O322  1  0.84680566  0.48847723  0.42340706  1
  O  O323  1  0.82279804  0.51095926  0.92865913  1
  O  O324  1  0.34164837  0.24003839  0.41871970  1
  O  O325  1  0.34080644  0.23623516  0.92283282  1
  O  O326  1  0.31056032  0.75041082  0.41099998  1
  O  O327  1  0.32479640  0.75493042  0.91759943  1
  O  O328  1  0.64993378  0.23662655  0.42216641  1
  O  O329  1  0.64336087  0.23790197  0.92532201  1
  O  O330  1  0.65959933  0.75496997  0.41303446  1
  O  O331  1  0.65873531  0.75381751  0.91575436  1
  O  O332  1  0.99811263  0.24618655  0.41252834  1
  O  O333  1  0.99705066  0.24300829  0.91705216  1
  O  O334  1  1.01091984  0.76757999  0.42285101  1
  O  O335  1  0.99180128  0.76623134  0.93144363  1
  O  O336  1  0.20709089  0.08401785  0.19069243  1
  O  O337  1  0.21343817  0.07960326  0.69354459  1
  O  O338  1  0.20627310  0.58363396  0.19655856  1
  O  O339  1  0.20838316  0.58462788  0.69847863  1
  O  O340  1  0.54574432  0.08278376  0.19057285  1
  O  O341  1  0.54320953  0.08653080  0.69049568  1
  O  O342  1  0.53685953  0.58545383  0.19374159  1
  O  O343  1  0.53673156  0.58609422  0.69412100  1
  O  O344  1  0.88060424  0.08625462  0.19337534  1
  O  O345  1  0.88020208  0.08482097  0.69860464  1
  O  O346  1  0.87760137  0.58197958  0.19617494  1
  O  O347  1  0.88730418  0.58210132  0.69462264  1
  O  O348  1  0.04351316  0.33263096  0.19593300  1
  O  O349  1  0.04816343  0.33152725  0.69767643  1
  O  O350  1  0.04168761  0.83455215  0.19494895  1
  O  O351  1  0.05125368  0.82381547  0.69612424  1
  O  O352  1  0.37844421  0.33682052  0.19291432  1
  O  O353  1  0.36843184  0.33551364  0.69241478  1
  O  O354  1  0.37554673  0.83307214  0.19465706  1
  O  O355  1  0.37467998  0.83389657  0.69174754  1
  O  O356  1  0.71297673  0.32962394  0.19728065  1
  O  O357  1  0.71130042  0.33334804  0.69471538  1
  O  O358  1  0.71343498  0.83389938  0.19255378  1
  O  O359  1  0.71040974  0.83390263  0.69744550  1
  O  O360  1  0.20446529  0.41809762  0.19608798  1
  O  O361  1  0.20622192  0.41955223  0.69752095  1
  O  O362  1  0.20637105  0.91633289  0.19011478  1
  O  O363  1  0.21052281  0.91326947  0.69488447  1
  O  O364  1  0.54632542  0.41516596  0.19541720  1
  O  O365  1  0.54041349  0.41919601  0.70421029  1
  O  O366  1  0.54545269  0.91535148  0.18926691  1
  O  O367  1  0.54444349  0.91726047  0.69667317  1
  O  O368  1  0.87944958  0.41443158  0.19852785  1
  O  O369  1  0.88662403  0.40565336  0.69801663  1
  O  O370  1  0.88016614  0.91552550  0.19392683  1
  O  O371  1  0.86634595  0.91785400  0.68813924  1
  O  O372  1  0.04198461  0.16646611  0.19355383  1
  O  O373  1  0.04734613  0.16613477  0.69296148  1
  O  O374  1  0.04302578  0.66666203  0.19688987  1
  O  O375  1  0.04643821  0.66703689  0.69679876  1
  O  O376  1  0.37788068  0.16661305  0.19765339  1
  O  O377  1  0.37739366  0.16577608  0.70085518  1
  O  O378  1  0.37332369  0.66562226  0.19020288  1
  O  O379  1  0.37533894  0.67158611  0.69640732  1
  O  O380  1  0.71273052  0.16581673  0.19447244  1
  O  O381  1  0.71210874  0.16833787  0.69281048  1
  O  O382  1  0.71557344  0.67402304  0.19406240  1
  O  O383  1  0.70927875  0.66493263  0.70146049  1
  O  O384  1  0.12465942  0.08438619  0.30134689  1
  O  O385  1  0.12692283  0.08282333  0.80455388  1
  O  O386  1  0.12257330  0.58265590  0.30739809  1
  O  O387  1  0.12285794  0.58301525  0.80415182  1
  O  O388  1  0.45767135  0.07818119  0.30047528  1
  O  O389  1  0.46001386  0.07779048  0.80245999  1
  O  O390  1  0.45003587  0.59204669  0.30372815  1
  O  O391  1  0.45881091  0.58916738  0.80710060  1
  O  O392  1  0.79003033  0.08530925  0.30271416  1
  O  O393  1  0.78897385  0.08499203  0.80324673  1
  O  O394  1  0.80192602  0.58359149  0.30540610  1
  O  O395  1  0.78032233  0.58937718  0.81548156  1
  O  O396  1  0.28860053  0.33222697  0.29716150  1
  O  O397  1  0.29057154  0.33140254  0.80001323  1
  O  O398  1  0.28601213  0.83350670  0.30055011  1
  O  O399  1  0.29197561  0.83469366  0.80539904  1
  O  O400  1  0.62148565  0.32907285  0.30025228  1
  O  O401  1  0.62346636  0.33129874  0.80310701  1
  O  O402  1  0.62418095  0.83601352  0.30071209  1
  O  O403  1  0.62314721  0.83544075  0.80409671  1
  O  O404  1  0.95746111  0.32954935  0.30476391  1
  O  O405  1  0.95728665  0.32765063  0.80909989  1
  O  O406  1  0.95973500  0.83781608  0.30628122  1
  O  O407  1  0.95367524  0.82981923  0.80926068  1
  O  O408  1  0.12112807  0.41397720  0.30618934  1
  O  O409  1  0.12441321  0.41077699  0.81104434  1
  O  O410  1  0.12553173  0.91915344  0.30118629  1
  O  O411  1  0.13537811  0.91823535  0.80571342  1
  O  O412  1  0.45315169  0.41763488  0.30757100  1
  O  O413  1  0.45151640  0.42506738  0.81371518  1
  O  O414  1  0.45570951  0.91523799  0.29912417  1
  O  O415  1  0.45681633  0.91427778  0.80312936  1
  O  O416  1  0.79379314  0.41169872  0.31072503  1
  O  O417  1  0.78162221  0.40779890  0.80562224  1
  O  O418  1  0.78974198  0.91546368  0.30276384  1
  O  O419  1  0.79036282  0.92145536  0.80312790  1
  O  O420  1  0.29011463  0.16458065  0.30302431  1
  O  O421  1  0.29075947  0.16193895  0.80636387  1
  O  O422  1  0.28727382  0.66794875  0.30261299  1
  O  O423  1  0.28772569  0.67240222  0.80986917  1
  O  O424  1  0.62323032  0.16178539  0.30448749  1
  O  O425  1  0.62409305  0.16447089  0.80555173  1
  O  O426  1  0.61689099  0.67666183  0.30573900  1
  O  O427  1  0.61912346  0.67090401  0.80705866  1
  O  O428  1  0.95881729  0.16544217  0.30346448  1
  O  O429  1  0.96101944  0.16608439  0.80470562  1
  O  O430  1  0.95721233  0.66957157  0.30183415  1
  O  O431  1  0.95947162  0.66663064  0.80470484  1
  F  F432  1  0.04446880  0.00070670  0.19878960  1
  F  F433  1  0.05236540  0.00891437  0.69787188  1
  F  F434  1  0.04423678  0.50031558  0.20468631  1
  F  F435  1  0.04768476  0.49509948  0.70633594  1
  F  F436  1  0.37805711  -0.00067773  0.19623035  1
  F  F437  1  0.37868514  -0.00233876  0.70030409  1
  F  F438  1  0.36755688  0.49966698  0.19942968  1
  F  F439  1  0.37625576  0.49980550  0.70509668  1
  F  F440  1  0.70982855  0.00028174  0.19793966  1
  F  F441  1  0.71203434  0.00336936  0.69966287  1
  F  F442  1  0.71906960  0.48592088  0.20191985  1
  F  F443  1  0.69810470  0.50048179  0.70194003  1
  F  F444  1  0.20889548  0.24872057  0.19819616  1
  F  F445  1  0.21066669  0.24745624  0.70256664  1
  F  F446  1  0.20805970  0.74888432  0.19933523  1
  F  F447  1  0.21293375  0.74952223  0.70506935  1
  F  F448  1  0.54669292  0.24610875  0.19912086  1
  F  F449  1  0.54978019  0.24423139  0.69843391  1
  F  F450  1  0.54604212  0.75098600  0.19767064  1
  F  F451  1  0.54520831  0.75017328  0.70157511  1
  F  F452  1  0.87906191  0.24916985  0.20186449  1
  F  F453  1  0.88154979  0.24897758  0.70286682  1
  F  F454  1  0.87991912  0.75417798  0.20191951  1
  F  F455  1  0.88307688  0.75701799  0.69898053  1
  F  F456  1  0.28785467  -0.00106318  0.29137678  1
  F  F457  1  0.29113542  -0.00169047  0.79621068  1
  F  F458  1  0.28483923  0.50248341  0.29858157  1
  F  F459  1  0.28570880  0.49679358  0.80311250  1
  F  F460  1  0.62027551  -0.00159943  0.29367154  1
  F  F461  1  0.62299960  0.00247292  0.79516753  1
  F  F462  1  0.62014235  0.48736506  0.30746034  1
  F  F463  1  0.61743464  0.50525030  0.80297256  1
  F  F464  1  0.96203262  0.00184575  0.29854228  1
  F  F465  1  0.95249685  0.00831103  0.80259548  1
  F  F466  1  0.95730194  0.49711290  0.29978296  1
  F  F467  1  0.96873633  0.49679780  0.80850506  1
  F  F468  1  0.12099310  0.24742389  0.29600651  1
  F  F469  1  0.12240135  0.24535924  0.79816640  1
  F  F470  1  0.12298310  0.75244646  0.29700758  1
  F  F471  1  0.12374930  0.75088911  0.80305518  1
  F  F472  1  0.45668960  0.25019378  0.29582757  1
  F  F473  1  0.45614751  0.24688435  0.80047462  1
  F  F474  1  0.45213029  0.75131914  0.29319555  1
  F  F475  1  0.45495167  0.75472947  0.79702873  1
  F  F476  1  0.79020209  0.24590310  0.29835411  1
  F  F477  1  0.78892393  0.24571418  0.79726774  1
  F  F478  1  0.78893181  0.75441567  0.29790095  1
  F  F479  1  0.78558685  0.76167967  0.80499166  1
