# generated using pymatgen
data_K24Na3Li5Mg64Fe17Si79(O5F)48
_symmetry_space_group_name_H-M   'P 1'
_cell_length_a   16.09932461
_cell_length_b   18.59227755
_cell_length_c   20.55635372
_cell_angle_alpha   89.99878515
_cell_angle_beta   100.02090030
_cell_angle_gamma   90.01943481
_symmetry_Int_Tables_number   1
_chemical_formula_structural   K24Na3Li5Mg64Fe17Si79(O5F)48
_chemical_formula_sum   'K24 Na3 Li5 Mg64 Fe17 Si79 O240 F48'
_cell_volume   6059.12348256
_cell_formula_units_Z   1
loop_
 _symmetry_equiv_pos_site_id
 _symmetry_equiv_pos_as_xyz
  1  'x, y, z'
loop_
 _atom_site_type_symbol
 _atom_site_label
 _atom_site_symmetry_multiplicity
 _atom_site_fract_x
 _atom_site_fract_y
 _atom_site_fract_z
 _atom_site_occupancy
  K  K0  1  -0.00394733  -0.01113640  0.00458703  1
  K  K1  1  -0.00491980  -0.01948869  0.49660028  1
  K  K2  1  0.00892153  0.49833924  0.00512452  1
  K  K3  1  -0.01081654  0.50597130  0.49813293  1
  K  K4  1  0.32235569  -0.00770464  0.00597832  1
  K  K5  1  0.33323547  -0.00791626  0.49733749  1
  K  K6  1  0.33125834  0.51178197  0.00863669  1
  K  K7  1  0.33169690  0.50779552  0.48767410  1
  K  K8  1  0.68324230  -0.00738457  0.00489544  1
  K  K9  1  0.67812474  -0.00526131  0.49432955  1
  K  K10  1  0.66488106  0.50660901  0.00940187  1
  K  K11  1  0.67087279  0.51340114  0.49176467  1
  K  K12  1  0.15545956  0.25822228  0.00511432  1
  K  K13  1  0.16630874  0.24815292  0.49420213  1
  K  K14  1  0.17039835  0.75338068  0.00790679  1
  K  K15  1  0.17159726  0.75405121  0.49283726  1
  K  K16  1  0.50935769  0.25163698  0.00657521  1
  K  K17  1  0.49825612  0.25590226  0.49522821  1
  K  K18  1  0.50220306  0.75901596  0.00727588  1
  K  K19  1  0.48983599  0.74547198  0.49313003  1
  K  K20  1  0.84545157  0.24805789  0.00283264  1
  K  K21  1  0.83416124  0.25410238  0.50223093  1
  K  K22  1  0.83251773  0.75238495  0.01018904  1
  K  K23  1  0.83170979  0.75795576  0.48908444  1
  Na  Na24  1  0.50039741  0.00099936  0.24807744  1
  Na  Na25  1  0.66694844  0.58491115  0.24763374  1
  Na  Na26  1  0.83458597  0.82505303  0.24679330  1
  Li  Li27  1  0.66978939  0.25085383  0.74950572  1
  Li  Li28  1  0.16455230  -0.00382615  0.75040847  1
  Li  Li29  1  0.17130391  0.67598290  0.25036827  1
  Li  Li30  1  0.83084891  0.67054318  0.24829312  1
  Li  Li31  1  0.16692112  0.82622028  0.24607608  1
  Mg  Mg32  1  0.83206077  0.50266099  0.24726636  1
  Mg  Mg33  1  0.50119564  0.50173361  0.25293601  1
  Mg  Mg34  1  0.16734433  -0.00343870  0.25107144  1
  Mg  Mg35  1  -0.00206719  0.25028672  0.75061229  1
  Mg  Mg36  1  0.66989153  0.74856384  0.25184204  1
  Mg  Mg37  1  0.83241965  -0.00153823  0.75003445  1
  Mg  Mg38  1  0.16848425  0.50542080  0.25453078  1
  Mg  Mg39  1  0.33335478  0.75168372  0.75045699  1
  Mg  Mg40  1  0.33222055  0.24617568  0.75092431  1
  Mg  Mg41  1  0.33390873  0.25084000  0.25425987  1
  Mg  Mg42  1  0.49920836  0.49712572  0.74869490  1
  Mg  Mg43  1  0.83301795  0.50033400  0.74736109  1
  Mg  Mg44  1  0.16608743  0.49913576  0.75473919  1
  Mg  Mg45  1  0.32892058  0.75265788  0.25092559  1
  Mg  Mg46  1  0.00227922  0.25159838  0.24802791  1
  Mg  Mg47  1  0.00490166  0.74578150  0.24994166  1
  Mg  Mg48  1  0.00050502  0.75030633  0.75059508  1
  Mg  Mg49  1  0.66486788  0.75011514  0.74671907  1
  Mg  Mg50  1  0.49911306  0.00029404  0.74869975  1
  Mg  Mg51  1  0.66709982  0.25016924  0.24636107  1
  Mg  Mg52  1  0.83651146  -0.00264043  0.24346456  1
  Mg  Mg53  1  0.16809286  0.83610575  0.74941974  1
  Mg  Mg54  1  0.66993938  0.08371301  0.24867701  1
  Mg  Mg55  1  0.50055055  0.33628281  0.25238767  1
  Mg  Mg56  1  0.83161509  0.16773324  0.75092099  1
  Mg  Mg57  1  0.00014625  0.08171421  0.74948871  1
  Mg  Mg58  1  0.49768886  0.66419730  0.74629831  1
  Mg  Mg59  1  0.66831630  0.91730508  0.24907581  1
  Mg  Mg60  1  0.33304691  0.58270696  0.75223862  1
  Mg  Mg61  1  0.83170924  0.83592665  0.74879996  1
  Mg  Mg62  1  0.00258473  0.91038110  0.24734093  1
  Mg  Mg63  1  0.66708193  0.41331266  0.74872056  1
  Mg  Mg64  1  0.66440171  0.41789209  0.24816282  1
  Mg  Mg65  1  0.00124951  0.58396694  0.74967288  1
  Mg  Mg66  1  0.50157315  0.33034338  0.74983565  1
  Mg  Mg67  1  0.16883816  0.66534589  0.75392284  1
  Mg  Mg68  1  0.33409007  0.58754922  0.25316330  1
  Mg  Mg69  1  0.16879322  0.33585663  0.25319735  1
  Mg  Mg70  1  0.49725359  0.83476831  0.74918944  1
  Mg  Mg71  1  0.33038108  0.08062021  0.75005126  1
  Mg  Mg72  1  0.50181033  0.83561501  0.24832703  1
  Mg  Mg73  1  0.50101395  0.16684200  0.25144449  1
  Mg  Mg74  1  0.33343948  0.08255962  0.25208474  1
  Mg  Mg75  1  0.00024107  0.91627780  0.74999650  1
  Mg  Mg76  1  0.33032503  0.91539160  0.74918900  1
  Mg  Mg77  1  0.66733481  0.08683428  0.75104553  1
  Mg  Mg78  1  0.83257263  0.33452545  0.74898034  1
  Mg  Mg79  1  -0.00052567  0.58525736  0.25207745  1
  Mg  Mg80  1  0.50178725  0.16716687  0.74939876  1
  Mg  Mg81  1  0.33481214  0.41629407  0.25497037  1
  Mg  Mg82  1  0.83262816  0.33616871  0.24644633  1
  Mg  Mg83  1  -0.00293871  0.41497992  0.75013604  1
  Mg  Mg84  1  0.66512583  0.58381972  0.74605254  1
  Mg  Mg85  1  0.16655545  0.16548084  0.25125311  1
  Mg  Mg86  1  0.66627647  0.91624612  0.74794736  1
  Mg  Mg87  1  0.16469785  0.33220575  0.75171650  1
  Mg  Mg88  1  0.49937158  0.66667322  0.25115769  1
  Mg  Mg89  1  0.83508764  0.16610231  0.24694356  1
  Mg  Mg90  1  0.33239718  0.41264413  0.75167382  1
  Mg  Mg91  1  -0.00084589  0.08258889  0.24718773  1
  Mg  Mg92  1  0.33162291  0.91568973  0.25068542  1
  Mg  Mg93  1  0.83054677  0.66684394  0.74656700  1
  Mg  Mg94  1  0.16492002  0.16209278  0.75041101  1
  Mg  Mg95  1  0.00216083  0.41700255  0.25069275  1
  Fe  Fe96  1  0.14662018  0.58437904  0.89194189  1
  Fe  Fe97  1  0.35989370  0.83191706  0.60821832  1
  Fe  Fe98  1  0.68446762  0.83152091  0.10793542  1
  Fe  Fe99  1  0.30348728  0.67240950  0.39265909  1
  Fe  Fe100  1  0.80399315  0.91350588  0.88997538  1
  Fe  Fe101  1  0.52365226  0.41666613  0.11004231  1
  Fe  Fe102  1  0.85598755  0.41902122  0.60732613  1
  Fe  Fe103  1  0.81378233  0.91949191  0.38618077  1
  Fe  Fe104  1  0.18790055  0.91594694  0.11294436  1
  Fe  Fe105  1  0.02919798  0.33863375  0.11263974  1
  Fe  Fe106  1  0.85791863  0.91522725  0.60950815  1
  Fe  Fe107  1  0.97342152  0.33606777  0.89023534  1
  Fe  Fe108  1  0.31100775  0.83605282  0.89067222  1
  Fe  Fe109  1  0.48001549  0.58492851  0.39340554  1
  Fe  Fe110  1  0.86246083  0.08067032  0.10752106  1
  Fe  Fe111  1  0.30776601  0.33036369  0.39441257  1
  Fe  Fe112  1  0.68523669  0.66966989  0.60716003  1
  Si  Si113  1  0.51755098  0.58451791  0.11104177  1
  Si  Si114  1  0.63816059  0.33573970  0.88401676  1
  Si  Si115  1  0.13669467  0.08273383  0.38625110  1
  Si  Si116  1  0.52596452  0.92266300  0.11122866  1
  Si  Si117  1  0.64477995  0.67288591  0.38737875  1
  Si  Si118  1  0.52298915  0.08596838  0.61427024  1
  Si  Si119  1  0.64425572  0.16642159  0.38565765  1
  Si  Si120  1  0.68861366  0.16805289  0.61580344  1
  Si  Si121  1  0.02957571  0.33251832  0.61219594  1
  Si  Si122  1  0.03134048  0.16763927  0.11237580  1
  Si  Si123  1  0.47598743  0.91647869  0.38505159  1
  Si  Si124  1  0.52819289  0.92131950  0.61219456  1
  Si  Si125  1  0.47995950  0.08600227  0.88469344  1
  Si  Si126  1  0.35763249  0.32984479  0.61653638  1
  Si  Si127  1  0.19337164  0.08594483  0.11587476  1
  Si  Si128  1  0.80353423  0.58669382  0.88352896  1
  Si  Si129  1  0.30747524  0.32558501  0.88627390  1
  Si  Si130  1  0.63410746  0.66391146  0.88280909  1
  Si  Si131  1  0.97237246  0.66362555  0.88589697  1
  Si  Si132  1  0.68682588  0.66681057  0.11011649  1
  Si  Si133  1  0.80092517  0.42068135  0.88752026  1
  Si  Si134  1  0.19450236  0.41305200  0.61692216  1
  Si  Si135  1  0.13562420  0.58133873  0.39107928  1
  Si  Si136  1  0.98399381  0.82702255  0.38693153  1
  Si  Si137  1  0.63064456  0.83049388  0.88500379  1
  Si  Si138  1  0.35719163  0.16722624  0.11758876  1
  Si  Si139  1  0.20129221  0.42146233  0.11552029  1
  Si  Si140  1  0.80817455  0.08664548  0.88673256  1
  Si  Si141  1  0.81293083  0.08922735  0.38649216  1
  Si  Si142  1  0.68786668  0.33266671  0.61202408  1
  Si  Si143  1  0.35509372  0.16509311  0.61474739  1
  Si  Si144  1  0.52444079  0.09013923  0.11488339  1
  Si  Si145  1  0.30978298  0.15842112  0.39099279  1
  Si  Si146  1  0.35807926  0.67240285  0.11477570  1
  Si  Si147  1  0.52094816  0.41178769  0.61470390  1
  Si  Si148  1  0.36007084  0.32975358  0.11565302  1
  Si  Si149  1  0.97615918  0.17387221  0.38480036  1
  Si  Si150  1  0.35612527  0.65987794  0.61360894  1
  Si  Si151  1  0.13591494  0.91286948  0.88598204  1
  Si  Si152  1  0.97360696  0.82850634  0.88667068  1
  Si  Si153  1  0.02551209  0.82416207  0.11175083  1
  Si  Si154  1  0.14061067  0.07910934  0.88424742  1
  Si  Si155  1  0.85474980  0.08823906  0.61291577  1
  Si  Si156  1  0.97412374  0.66277531  0.38675618  1
  Si  Si157  1  0.85430148  0.58216879  0.11445541  1
  Si  Si158  1  0.69075776  0.16827544  0.10994151  1
  Si  Si159  1  0.03320898  0.66591030  0.61541327  1
  Si  Si160  1  0.69518465  0.33463479  0.11134191  1
  Si  Si161  1  0.36170169  0.83764199  0.11297321  1
  Si  Si162  1  0.47376026  0.92368329  0.88571838  1
  Si  Si163  1  0.97002000  0.33797052  0.38499117  1
  Si  Si164  1  0.02435838  0.16726556  0.61442633  1
  Si  Si165  1  0.86387247  0.91128786  0.10884236  1
  Si  Si166  1  0.31722863  0.66857073  0.88954567  1
  Si  Si167  1  0.18916810  0.08407527  0.61463816  1
  Si  Si168  1  0.47776072  0.08309813  0.38601753  1
  Si  Si169  1  0.19332808  0.91971948  0.61241907  1
  Si  Si170  1  0.85864838  0.41939157  0.11242260  1
  Si  Si171  1  0.02215621  0.65932507  0.11574762  1
  Si  Si172  1  0.30918007  0.16019769  0.88620250  1
  Si  Si173  1  0.14903102  0.41529225  0.88948340  1
  Si  Si174  1  0.47117240  0.41093360  0.88502423  1
  Si  Si175  1  0.19420013  0.58620313  0.11763449  1
  Si  Si176  1  0.48112386  0.41399341  0.39258219  1
  Si  Si177  1  0.68460101  0.83546772  0.61037260  1
  Si  Si178  1  0.64404726  0.33046615  0.38488873  1
  Si  Si179  1  0.30972209  0.84313336  0.38855060  1
  Si  Si180  1  0.52132494  0.57547133  0.61229553  1
  Si  Si181  1  0.13771756  0.41765567  0.39130251  1
  Si  Si182  1  0.86093487  0.59151412  0.60951908  1
  Si  Si183  1  0.64132801  0.83695953  0.38746648  1
  Si  Si184  1  0.97823819  0.16470091  0.88661617  1
  Si  Si185  1  0.03154550  0.83144035  0.61241156  1
  Si  Si186  1  0.13862439  0.91941722  0.38540290  1
  Si  Si187  1  0.47336043  0.57621673  0.88451623  1
  Si  Si188  1  0.64198723  0.17130600  0.88400242  1
  Si  Si189  1  0.19442400  0.57694399  0.61726047  1
  Si  Si190  1  0.80872900  0.58468534  0.38272087  1
  Si  Si191  1  0.80468804  0.41885224  0.38407252  1
  O  O192  1  0.28056321  0.11202530  0.08895264  1
  O  O193  1  0.27009927  0.11863068  0.58379927  1
  O  O194  1  0.26827928  0.62981210  0.08631430  1
  O  O195  1  0.27740625  0.60318544  0.58810206  1
  O  O196  1  0.60167815  0.12416251  0.08101864  1
  O  O197  1  0.60388193  0.11950011  0.58537011  1
  O  O198  1  0.60312505  0.61369668  0.08454194  1
  O  O199  1  0.60141018  0.59848889  0.58022717  1
  O  O200  1  0.96214319  0.10938379  0.07861554  1
  O  O201  1  0.93552153  0.12654224  0.58506891  1
  O  O202  1  0.93609554  0.61283699  0.08311523  1
  O  O203  1  0.94983559  0.61883442  0.58534395  1
  O  O204  1  0.12134350  0.37575308  0.07855808  1
  O  O205  1  0.11682421  0.35967277  0.58637320  1
  O  O206  1  0.10083603  0.85361210  0.07568551  1
  O  O207  1  0.11156475  0.86819544  0.58413324  1
  O  O208  1  0.43884957  0.34805898  0.07925965  1
  O  O209  1  0.44017745  0.35838396  0.58783998  1
  O  O210  1  0.44229768  0.87231392  0.08336607  1
  O  O211  1  0.45501445  0.86843985  0.57636073  1
  O  O212  1  0.78190058  0.36148828  0.08571819  1
  O  O213  1  0.76165525  0.36013500  0.57376208  1
  O  O214  1  0.78397320  0.86022341  0.08108203  1
  O  O215  1  0.76769272  0.85345090  0.57869521  1
  O  O216  1  0.28417327  0.38724074  0.08874640  1
  O  O217  1  0.27756151  0.38243578  0.58865140  1
  O  O218  1  0.28120405  0.88312218  0.07750012  1
  O  O219  1  0.27030311  0.89517156  0.57623054  1
  O  O220  1  0.61940691  0.38547117  0.07563292  1
  O  O221  1  0.60025568  0.37920956  0.58442139  1
  O  O222  1  0.59864298  0.89819144  0.07054567  1
  O  O223  1  0.61798131  0.90349421  0.58828099  1
  O  O224  1  0.93822170  0.39822329  0.07829466  1
  O  O225  1  0.95195859  0.38056017  0.57608932  1
  O  O226  1  0.94266170  0.87253177  0.07962410  1
  O  O227  1  0.94903145  0.87414765  0.57662558  1
  O  O228  1  0.12367982  0.14931919  0.09040962  1
  O  O229  1  0.10426535  0.13176407  0.58503284  1
  O  O230  1  0.10230153  0.62254420  0.08593852  1
  O  O231  1  0.11275371  0.62689202  0.58810843  1
  O  O232  1  0.44070887  0.14112975  0.08708652  1
  O  O233  1  0.43740537  0.13418874  0.58571584  1
  O  O234  1  0.43488678  0.63675849  0.08158691  1
  O  O235  1  0.43818911  0.62568481  0.58676329  1
  O  O236  1  0.76515219  0.13702678  0.07473265  1
  O  O237  1  0.77088449  0.13967964  0.58509380  1
  O  O238  1  0.76918666  0.62820371  0.08324643  1
  O  O239  1  0.78851710  0.64921427  0.57965540  1
  O  O240  1  0.06408709  0.13053500  0.41552292  1
  O  O241  1  0.06075890  0.11262883  0.91447044  1
  O  O242  1  0.05134397  0.60913572  0.42050485  1
  O  O243  1  0.04480209  0.60872077  0.92044544  1
  O  O244  1  0.39679138  0.11099143  0.41916273  1
  O  O245  1  0.39622468  0.11481742  0.91415595  1
  O  O246  1  0.39444971  0.61885122  0.43461455  1
  O  O247  1  0.39297853  0.60731091  0.91371376  1
  O  O248  1  0.73027837  0.12226998  0.41618856  1
  O  O249  1  0.72793578  0.12686990  0.91356645  1
  O  O250  1  0.73115305  0.62337441  0.41165960  1
  O  O251  1  0.72265645  0.62195058  0.91169209  1
  O  O252  1  0.21334064  0.36640889  0.42761991  1
  O  O253  1  0.22543361  0.35453843  0.91445235  1
  O  O254  1  0.23427449  0.89121697  0.41426796  1
  O  O255  1  0.21289194  0.86339196  0.92225266  1
  O  O256  1  0.56321495  0.35844914  0.41531094  1
  O  O257  1  0.55422478  0.36243767  0.91416142  1
  O  O258  1  0.55676063  0.86605065  0.41686971  1
  O  O259  1  0.54723038  0.86366605  0.91119556  1
  O  O260  1  0.88885599  0.37030439  0.41460864  1
  O  O261  1  0.87845708  0.37185298  0.92270892  1
  O  O262  1  0.91015417  0.86401715  0.42000153  1
  O  O263  1  0.89458760  0.85175822  0.92062114  1
  O  O264  1  0.05002803  0.38860675  0.41573765  1
  O  O265  1  0.06830829  0.39323124  0.92221960  1
  O  O266  1  0.07370553  0.86931685  0.41953707  1
  O  O267  1  0.05134052  0.88456939  0.91402698  1
  O  O268  1  0.40650816  0.38087732  0.42856097  1
  O  O269  1  0.39150093  0.37482610  0.91387449  1
  O  O270  1  0.39538429  0.89167062  0.41889309  1
  O  O271  1  0.39284774  0.90766144  0.91963397  1
  O  O272  1  0.72718004  0.37990800  0.41394713  1
  O  O273  1  0.71459773  0.39106370  0.91378998  1
  O  O274  1  0.71891224  0.88771121  0.42087069  1
  O  O275  1  0.71086974  0.87472122  0.92204706  1
  O  O276  1  0.23023947  0.11633252  0.41717467  1
  O  O277  1  0.22928578  0.12405755  0.91434083  1
  O  O278  1  0.21238728  0.63090449  0.42687518  1
  O  O279  1  0.23643164  0.64738351  0.92320327  1
  O  O280  1  0.56326085  0.13190390  0.41523718  1
  O  O281  1  0.55954635  0.13971547  0.91388033  1
  O  O282  1  0.57541053  0.64089109  0.42789714  1
  O  O283  1  0.56015127  0.62049269  0.91347495  1
  O  O284  1  0.89410420  0.14405402  0.41401401  1
  O  O285  1  0.89382691  0.13432255  0.91331337  1
  O  O286  1  0.89372664  0.62918698  0.41762877  1
  O  O287  1  0.88416424  0.63848263  0.91180149  1
  O  O288  1  0.16397781  0.01125129  0.07948793  1
  O  O289  1  0.16946367  0.00321684  0.58524167  1
  O  O290  1  0.19291645  0.50439265  0.08560823  1
  O  O291  1  0.17346730  0.49461768  0.58882405  1
  O  O292  1  0.50072046  0.00811355  0.08857335  1
  O  O293  1  0.50390950  0.00482030  0.58531050  1
  O  O294  1  0.49482137  0.50778334  0.07350808  1
  O  O295  1  0.49393750  0.49228852  0.58730521  1
  O  O296  1  0.84558762  -0.01111812  0.07140170  1
  O  O297  1  0.83715555  0.01091136  0.57807129  1
  O  O298  1  0.82966325  0.50040146  0.08413568  1
  O  O299  1  0.83941700  0.51328990  0.57485762  1
  O  O300  1  0.00348075  0.24585808  0.08034929  1
  O  O301  1  0.01560944  0.24909493  0.58423910  1
  O  O302  1  0.00690475  0.74024433  0.08389397  1
  O  O303  1  0.02669895  0.74731381  0.58506022  1
  O  O304  1  0.32815787  0.24774666  0.08937287  1
  O  O305  1  0.33679006  0.24810539  0.58735259  1
  O  O306  1  0.34903429  0.75407532  0.08415595  1
  O  O307  1  0.33218151  0.73670288  0.57979482  1
  O  O308  1  0.67300716  0.25206172  0.08346554  1
  O  O309  1  0.66442637  0.24896973  0.58660471  1
  O  O310  1  0.66549868  0.73997915  0.06714350  1
  O  O311  1  0.64097408  0.76079878  0.58067239  1
  O  O312  1  0.13308180  0.00186238  0.41741563  1
  O  O313  1  0.15461966  -0.00291587  0.91262803  1
  O  O314  1  0.15251177  0.49871530  0.42261278  1
  O  O315  1  0.18742440  0.49177665  0.91811834  1
  O  O316  1  0.49918841  0.00038443  0.41168127  1
  O  O317  1  0.50779540  0.00539974  0.91179657  1
  O  O318  1  0.51033604  0.49083456  0.42483694  1
  O  O319  1  0.48759750  0.49315665  0.91272842  1
  O  O320  1  0.83675763  0.01349147  0.42225960  1
  O  O321  1  0.82069073  0.00886629  0.92099005  1
  O  O322  1  0.81708078  0.50051372  0.41485623  1
  O  O323  1  0.81488463  0.50495644  0.91433900  1
  O  O324  1  0.32198132  0.23495286  0.42881986  1
  O  O325  1  0.32584132  0.24301866  0.91472587  1
  O  O326  1  0.31637277  0.76769259  0.42798507  1
  O  O327  1  0.35590527  0.74504187  0.91797892  1
  O  O328  1  0.66123108  0.24846466  0.41568666  1
  O  O329  1  0.65724686  0.25385676  0.91325582  1
  O  O330  1  0.66499316  0.75542183  0.41649071  1
  O  O331  1  0.63722568  0.74585732  0.91086430  1
  O  O332  1  0.99037044  0.25627768  0.41514802  1
  O  O333  1  1.00023106  0.24204612  0.92098926  1
  O  O334  1  0.99504594  0.74395132  0.41780802  1
  O  O335  1  0.99922559  0.74554515  0.91250494  1
  O  O336  1  0.21054688  0.08494793  0.19717804  1
  O  O337  1  0.21166560  0.08818265  0.69399420  1
  O  O338  1  0.21337020  0.58141538  0.19682693  1
  O  O339  1  0.21262826  0.57883581  0.69767716  1
  O  O340  1  0.54888750  0.09512638  0.19401660  1
  O  O341  1  0.54138987  0.08583215  0.69466573  1
  O  O342  1  0.53066461  0.58204800  0.19057609  1
  O  O343  1  0.53998349  0.57855820  0.69376061  1
  O  O344  1  0.87937702  0.08567867  0.19944931  1
  O  O345  1  0.87471549  0.08630025  0.69395570  1
  O  O346  1  0.87903003  0.57779207  0.19335896  1
  O  O347  1  0.87737921  0.58591979  0.69149918  1
  O  O348  1  0.04850407  0.33501983  0.20442638  1
  O  O349  1  0.04579312  0.33258692  0.69316409  1
  O  O350  1  0.04142388  0.82924125  0.19137113  1
  O  O351  1  0.04508869  0.83208077  0.69340693  1
  O  O352  1  0.37909532  0.33133038  0.19657623  1
  O  O353  1  0.37494131  0.32986104  0.69700981  1
  O  O354  1  0.37858884  0.83684197  0.19342369  1
  O  O355  1  0.37943421  0.83351208  0.69990017  1
  O  O356  1  0.70987091  0.33302841  0.19249192  1
  O  O357  1  0.71023153  0.33678980  0.69219660  1
  O  O358  1  0.69765062  0.83295812  0.19699260  1
  O  O359  1  0.70526715  0.83338186  0.69229014  1
  O  O360  1  0.21213494  0.41945646  0.19622774  1
  O  O361  1  0.21145387  0.41302427  0.69759311  1
  O  O362  1  0.21187346  0.91835709  0.20277854  1
  O  O363  1  0.21130833  0.91678783  0.69242353  1
  O  O364  1  0.54268050  0.41592687  0.20157959  1
  O  O365  1  0.54057629  0.41304084  0.69534404  1
  O  O366  1  0.54817690  0.91451362  0.19059457  1
  O  O367  1  0.54177832  0.91941904  0.69358666  1
  O  O368  1  0.87814270  0.41645736  0.19345717  1
  O  O369  1  0.87581393  0.41810099  0.69889844  1
  O  O370  1  0.88663384  0.92188645  0.18839497  1
  O  O371  1  0.87968158  0.91700143  0.70087598  1
  O  O372  1  0.04500599  0.16759399  0.19434314  1
  O  O373  1  0.04298682  0.16659695  0.69488387  1
  O  O374  1  0.04215417  0.65960229  0.19482874  1
  O  O375  1  0.04619047  0.66695592  0.69577332  1
  O  O376  1  0.37677060  0.16755292  0.19815423  1
  O  O377  1  0.37434146  0.16499242  0.69517323  1
  O  O378  1  0.37673562  0.66958307  0.19431874  1
  O  O379  1  0.37490526  0.66204997  0.69503418  1
  O  O380  1  0.71038596  0.16825040  0.19120719  1
  O  O381  1  0.70940263  0.16473650  0.69533836  1
  O  O382  1  0.70689467  0.67576439  0.18839333  1
  O  O383  1  0.70840495  0.66639959  0.69949433  1
  O  O384  1  0.12127459  0.08487976  0.30609964  1
  O  O385  1  0.12202816  0.08490380  0.80458204  1
  O  O386  1  0.11882790  0.57673149  0.31145839  1
  O  O387  1  0.12264249  0.58290669  0.79990276  1
  O  O388  1  0.45434547  0.09191272  0.30726266  1
  O  O389  1  0.45733299  0.08640255  0.80409582  1
  O  O390  1  0.45593169  0.58381230  0.30128990  1
  O  O391  1  0.45652227  0.57829826  0.80383431  1
  O  O392  1  0.79176406  0.09078042  0.30611312  1
  O  O393  1  0.78929207  0.08543040  0.80555979  1
  O  O394  1  0.79876292  0.57857114  0.30489290  1
  O  O395  1  0.78811205  0.58303808  0.80305807  1
  O  O396  1  0.28937440  0.33264000  0.30261221  1
  O  O397  1  0.29050335  0.32816095  0.80550858  1
  O  O398  1  0.29759832  0.83610660  0.30940060  1
  O  O399  1  0.28729503  0.83350601  0.79919920  1
  O  O400  1  0.62717685  0.32961383  0.30476441  1
  O  O401  1  0.61950451  0.33604752  0.80420076  1
  O  O402  1  0.62093612  0.83761329  0.30716054  1
  O  O403  1  0.61881532  0.83258700  0.80378299  1
  O  O404  1  0.95299758  0.33500669  0.30496718  1
  O  O405  1  0.95541779  0.33245632  0.79856077  1
  O  O406  1  0.97070097  0.82999317  0.30765248  1
  O  O407  1  0.95663870  0.83048083  0.80554912  1
  O  O408  1  0.12546127  0.41712761  0.31062969  1
  O  O409  1  0.12672228  0.41355973  0.80740375  1
  O  O410  1  0.11784364  0.92336185  0.30666335  1
  O  O411  1  0.11949496  0.91193364  0.80554927  1
  O  O412  1  0.45670700  0.41354371  0.31130653  1
  O  O413  1  0.45439632  0.41188145  0.80443553  1
  O  O414  1  0.45391701  0.91220422  0.30593610  1
  O  O415  1  0.45665393  0.92163000  0.80461204  1
  O  O416  1  0.78928498  0.41549901  0.30402341  1
  O  O417  1  0.78616423  0.41859440  0.80659726  1
  O  O418  1  0.78835428  0.92569836  0.29700898  1
  O  O419  1  0.78408654  0.91673761  0.79839781  1
  O  O420  1  0.29101505  0.16452365  0.31026128  1
  O  O421  1  0.29046772  0.16364798  0.80568231  1
  O  O422  1  0.29335153  0.66887247  0.30283339  1
  O  O423  1  0.29415665  0.66491080  0.80757080  1
  O  O424  1  0.62582418  0.16787139  0.30540367  1
  O  O425  1  0.62052495  0.16683279  0.80436306  1
  O  O426  1  0.61671540  0.67372195  0.30820750  1
  O  O427  1  0.61724242  0.66292892  0.80250814  1
  O  O428  1  0.95967527  0.17130573  0.30478032  1
  O  O429  1  0.95854679  0.16553763  0.80522886  1
  O  O430  1  0.96225769  0.66371122  0.30789162  1
  O  O431  1  0.95526000  0.66445909  0.80448553  1
  F  F432  1  0.04786158  0.00154250  0.20148335  1
  F  F433  1  0.04062615  0.00030193  0.70120793  1
  F  F434  1  0.04829112  0.49897736  0.20441789  1
  F  F435  1  0.04637294  0.49642729  0.70224547  1
  F  F436  1  0.36587139  0.00197935  0.20084048  1
  F  F437  1  0.37890066  0.00271830  0.70003245  1
  F  F438  1  0.37680313  0.49696388  0.20548780  1
  F  F439  1  0.37683704  0.49554639  0.70309197  1
  F  F440  1  0.71302287  0.00670305  0.19573709  1
  F  F441  1  0.70938292  0.00451644  0.70106107  1
  F  F442  1  0.71581756  0.48911291  0.19616185  1
  F  F443  1  0.71004030  0.49856359  0.70132129  1
  F  F444  1  0.21292236  0.24844172  0.20543106  1
  F  F445  1  0.21185516  0.24815086  0.70288219  1
  F  F446  1  0.21754948  0.75265211  0.19573777  1
  F  F447  1  0.21141182  0.74536474  0.70207177  1
  F  F448  1  0.54469402  0.25122638  0.20339691  1
  F  F449  1  0.53555481  0.24927320  0.69869656  1
  F  F450  1  0.54303322  0.74988917  0.20237273  1
  F  F451  1  0.54215561  0.74906869  0.70155149  1
  F  F452  1  0.87988537  0.25183574  0.20110776  1
  F  F453  1  0.87796774  0.24764822  0.69930568  1
  F  F454  1  0.89057366  0.73827658  0.19721007  1
  F  F455  1  0.87982162  0.75027164  0.70276026  1
  F  F456  1  0.28832160  0.00421302  0.30399506  1
  F  F457  1  0.29183386  0.00065810  0.79793163  1
  F  F458  1  0.28883708  0.49966111  0.30237115  1
  F  F459  1  0.29059242  0.49603184  0.79951739  1
  F  F460  1  0.63381582  0.00416843  0.29933416  1
  F  F461  1  0.61985498  0.00211481  0.79607773  1
  F  F462  1  0.62040158  0.49135686  0.30338098  1
  F  F463  1  0.61958763  0.49847755  0.79613906  1
  F  F464  1  0.95699304  -0.00027702  0.29718475  1
  F  F465  1  0.95413082  0.00263385  0.79945861  1
  F  F466  1  0.95389357  0.49647971  0.29802313  1
  F  F467  1  0.95404668  0.50200246  0.79720805  1
  F  F468  1  0.12293360  0.24750954  0.30184220  1
  F  F469  1  0.12198565  0.24782684  0.79741747  1
  F  F470  1  0.12267951  0.74897471  0.29798949  1
  F  F471  1  0.12156357  0.74988483  0.79732270  1
  F  F472  1  0.45707637  0.25044532  0.30065292  1
  F  F473  1  0.45303661  0.24833103  0.79938127  1
  F  F474  1  0.45322050  0.75271731  0.29618850  1
  F  F475  1  0.45635582  0.74572384  0.79716463  1
  F  F476  1  0.78851359  0.25129903  0.29468330  1
  F  F477  1  0.79098671  0.25146486  0.79722147  1
  F  F478  1  0.78172912  0.74106720  0.30684474  1
  F  F479  1  0.78633015  0.75103254  0.79671049  1
