# generated using pymatgen
data_K24Na3Li5Mg64Fe17Si79(O5F)48
_symmetry_space_group_name_H-M   'P 1'
_cell_length_a   16.09568731
_cell_length_b   18.59107924
_cell_length_c   20.55218564
_cell_angle_alpha   89.97825862
_cell_angle_beta   100.00083290
_cell_angle_gamma   90.02896099
_symmetry_Int_Tables_number   1
_chemical_formula_structural   K24Na3Li5Mg64Fe17Si79(O5F)48
_chemical_formula_sum   'K24 Na3 Li5 Mg64 Fe17 Si79 O240 F48'
_cell_volume   6056.50965340
_cell_formula_units_Z   1
loop_
 _symmetry_equiv_pos_site_id
 _symmetry_equiv_pos_as_xyz
  1  'x, y, z'
loop_
 _atom_site_type_symbol
 _atom_site_label
 _atom_site_symmetry_multiplicity
 _atom_site_fract_x
 _atom_site_fract_y
 _atom_site_fract_z
 _atom_site_occupancy
  K  K0  1  0.00380502  0.00056637  0.00206673  1
  K  K1  1  -0.00958312  -0.00229329  0.50030502  1
  K  K2  1  -0.00812470  0.50841057  0.00241549  1
  K  K3  1  -0.00329161  0.50298272  0.49673969  1
  K  K4  1  0.33423459  -0.00759311  0.00677861  1
  K  K5  1  0.33605092  -0.00167292  0.49425520  1
  K  K6  1  0.33296347  0.50207630  -0.00008931  1
  K  K7  1  0.32583771  0.50274949  0.49517005  1
  K  K8  1  0.67235573  0.00547524  0.00823705  1
  K  K9  1  0.66845935  0.00395403  0.49917443  1
  K  K10  1  0.69196717  0.50480535  0.00806407  1
  K  K11  1  0.67963961  0.50075817  0.50057565  1
  K  K12  1  0.15856773  0.25468123  0.00297394  1
  K  K13  1  0.16216864  0.25823180  0.50110583  1
  K  K14  1  0.16230809  0.74365696  0.00008038  1
  K  K15  1  0.16032630  0.73796577  0.49521904  1
  K  K16  1  0.50793811  0.24796540  0.00912590  1
  K  K17  1  0.50561632  0.25054994  0.49461243  1
  K  K18  1  0.49869633  0.74620837  0.00287258  1
  K  K19  1  0.49640331  0.74783337  0.49976282  1
  K  K20  1  0.83434899  0.25466992  0.00907955  1
  K  K21  1  0.82287587  0.26335790  0.49481990  1
  K  K22  1  0.85213255  0.74549411  0.01002754  1
  K  K23  1  0.84847471  0.74691882  0.50861669  1
  Na  Na24  1  0.33331060  0.24747898  0.24918886  1
  Na  Na25  1  0.82995188  0.16769722  0.24795601  1
  Na  Na26  1  0.66733108  0.08237630  0.24603137  1
  Li  Li27  1  0.01331473  0.74242533  0.25445860  1
  Li  Li28  1  0.16277626  0.50288061  0.75422748  1
  Li  Li29  1  0.33606611  0.08710467  0.24853920  1
  Li  Li30  1  0.15615326  0.66776288  0.25727033  1
  Li  Li31  1  0.00420487  0.59613117  0.25079984  1
  Mg  Mg32  1  0.66519897  0.25219657  0.25121982  1
  Mg  Mg33  1  0.66685050  0.24945353  0.74705876  1
  Mg  Mg34  1  0.33238417  0.74761981  0.74830564  1
  Mg  Mg35  1  -0.00038666  0.74876123  0.75161942  1
  Mg  Mg36  1  0.66673705  0.75031943  0.24854612  1
  Mg  Mg37  1  0.83880767  0.50290671  0.25390386  1
  Mg  Mg38  1  0.66579364  0.74912675  0.74711000  1
  Mg  Mg39  1  0.83417605  0.50153243  0.75371489  1
  Mg  Mg40  1  0.17221232  0.00183070  0.24999599  1
  Mg  Mg41  1  0.00074314  0.25070494  0.75492493  1
  Mg  Mg42  1  0.83377422  -0.00088232  0.74600500  1
  Mg  Mg43  1  0.49682874  0.00220108  0.24477712  1
  Mg  Mg44  1  0.16195869  0.50133229  0.25223254  1
  Mg  Mg45  1  0.49766287  0.50053420  0.74594949  1
  Mg  Mg46  1  0.33004009  0.74986864  0.24795380  1
  Mg  Mg47  1  0.16769772  -0.00140696  0.75246237  1
  Mg  Mg48  1  0.33343404  0.25239475  0.74609970  1
  Mg  Mg49  1  -0.00187722  0.24861971  0.25312068  1
  Mg  Mg50  1  0.49953885  0.49957652  0.25222374  1
  Mg  Mg51  1  0.49995463  -0.00111511  0.74394289  1
  Mg  Mg52  1  0.83415788  -0.00125752  0.24688409  1
  Mg  Mg53  1  0.49790824  0.83392105  0.74451810  1
  Mg  Mg54  1  0.66598894  0.91707277  0.24749665  1
  Mg  Mg55  1  0.49691241  0.83456701  0.24652582  1
  Mg  Mg56  1  0.16649835  0.33655085  0.75303262  1
  Mg  Mg57  1  0.32778976  0.58462283  0.25226407  1
  Mg  Mg58  1  0.00060765  0.08397981  0.75062357  1
  Mg  Mg59  1  0.16661531  0.83385916  0.75156115  1
  Mg  Mg60  1  0.49690471  0.66613226  0.24841130  1
  Mg  Mg61  1  0.16840231  0.16623444  0.75185148  1
  Mg  Mg62  1  0.00142383  0.58294549  0.75332353  1
  Mg  Mg63  1  0.83773453  0.83168487  0.24976589  1
  Mg  Mg64  1  0.32907490  0.41695203  0.74660497  1
  Mg  Mg65  1  0.66948778  0.58561892  0.25028572  1
  Mg  Mg66  1  0.49864293  0.16593862  0.74398960  1
  Mg  Mg67  1  0.50092283  0.33348698  0.25264445  1
  Mg  Mg68  1  0.49641496  0.66542359  0.74764847  1
  Mg  Mg69  1  0.84171270  0.66844722  0.25159965  1
  Mg  Mg70  1  0.33357532  0.91448486  0.74851684  1
  Mg  Mg71  1  0.50062844  0.16651336  0.24852267  1
  Mg  Mg72  1  0.66712115  0.58449070  0.74900861  1
  Mg  Mg73  1  0.66515944  0.08425464  0.74372615  1
  Mg  Mg74  1  0.83603199  0.66382967  0.75202115  1
  Mg  Mg75  1  0.33400041  0.08429955  0.74819522  1
  Mg  Mg76  1  -0.00059459  0.41784082  0.25504565  1
  Mg  Mg77  1  0.83152804  0.33553226  0.25096044  1
  Mg  Mg78  1  -0.00045127  0.08212499  0.25021907  1
  Mg  Mg79  1  0.66913639  0.41702633  0.25066916  1
  Mg  Mg80  1  0.66663204  0.41641607  0.75117900  1
  Mg  Mg81  1  0.66375442  0.91513024  0.74437795  1
  Mg  Mg82  1  0.83363347  0.83437388  0.74849260  1
  Mg  Mg83  1  0.00099135  0.91560281  0.75161194  1
  Mg  Mg84  1  0.16494413  0.66267602  0.75111996  1
  Mg  Mg85  1  0.33222184  0.41532348  0.25251801  1
  Mg  Mg86  1  0.33260774  0.91734778  0.24598418  1
  Mg  Mg87  1  0.32867072  0.58258224  0.74904144  1
  Mg  Mg88  1  0.16648029  0.83064271  0.24858189  1
  Mg  Mg89  1  0.83195226  0.16556674  0.74836047  1
  Mg  Mg90  1  0.16588454  0.33233805  0.25250586  1
  Mg  Mg91  1  0.83548977  0.33435660  0.75400385  1
  Mg  Mg92  1  0.49677235  0.33480084  0.74558534  1
  Mg  Mg93  1  0.16946148  0.16599768  0.25110421  1
  Mg  Mg94  1  0.00276172  0.41625392  0.75706912  1
  Mg  Mg95  1  0.00379458  0.91361370  0.24963333  1
  Fe  Fe96  1  0.14632786  0.58049000  0.89335674  1
  Fe  Fe97  1  0.64008372  0.33386630  0.39173225  1
  Fe  Fe98  1  0.86083471  0.58352615  0.61054574  1
  Fe  Fe99  1  0.35134010  0.66360163  0.60893300  1
  Fe  Fe100  1  0.68884005  0.16766284  0.10502954  1
  Fe  Fe101  1  0.97630161  0.67073927  0.89450158  1
  Fe  Fe102  1  0.69018863  0.16973188  0.60723281  1
  Fe  Fe103  1  0.13702000  0.58224732  0.39100788  1
  Fe  Fe104  1  0.97608181  0.32987816  0.89513056  1
  Fe  Fe105  1  0.35515320  0.33715850  0.60613822  1
  Fe  Fe106  1  0.86668399  0.59026274  0.11467922  1
  Fe  Fe107  1  0.14723478  0.91664493  0.89151282  1
  Fe  Fe108  1  0.80061973  0.58398844  0.89179318  1
  Fe  Fe109  1  0.35435423  0.82971799  0.10769984  1
  Fe  Fe110  1  0.81330672  0.42356311  0.39155534  1
  Fe  Fe111  1  0.86011014  0.91474763  0.60915439  1
  Fe  Fe112  1  0.52052551  0.91424227  0.60549985  1
  Si  Si113  1  0.14133496  0.40966108  0.39055549  1
  Si  Si114  1  0.14911937  0.41109675  0.89353022  1
  Si  Si115  1  0.15062459  0.08535137  0.88771356  1
  Si  Si116  1  0.97661390  0.83835367  0.38547653  1
  Si  Si117  1  0.81035039  0.07734005  0.38468368  1
  Si  Si118  1  0.97555991  0.32615741  0.39013907  1
  Si  Si119  1  0.46932308  0.58090664  0.88329545  1
  Si  Si120  1  0.52565117  0.91534559  0.10956385  1
  Si  Si121  1  0.86305097  0.91082626  0.11349685  1
  Si  Si122  1  0.35377763  0.16649026  0.61073054  1
  Si  Si123  1  0.18916143  0.57904475  0.61527616  1
  Si  Si124  1  0.02477070  0.33052882  0.11953953  1
  Si  Si125  1  0.62985499  0.66691230  0.88590113  1
  Si  Si126  1  0.30862161  0.83561397  0.38393965  1
  Si  Si127  1  0.36136025  0.33615352  0.11499639  1
  Si  Si128  1  0.47242584  0.41728966  0.88369011  1
  Si  Si129  1  0.69111481  0.33765400  0.11009195  1
  Si  Si130  1  0.30946707  0.67058316  0.38650399  1
  Si  Si131  1  0.52497000  0.42012570  0.11405748  1
  Si  Si132  1  0.80588586  0.08019036  0.88330895  1
  Si  Si133  1  0.19550221  0.91878327  0.61512731  1
  Si  Si134  1  0.19347406  0.08164127  0.61595419  1
  Si  Si135  1  0.63890430  0.83392271  0.38305012  1
  Si  Si136  1  0.35965752  0.16813904  0.11295507  1
  Si  Si137  1  0.52535442  0.58482521  0.11482138  1
  Si  Si138  1  0.03316587  0.83404341  0.61269898  1
  Si  Si139  1  0.19442448  0.57549218  0.11679074  1
  Si  Si140  1  0.47514009  0.08260890  0.88218722  1
  Si  Si141  1  0.35083130  0.83147115  0.60943887  1
  Si  Si142  1  0.19070045  0.41232389  0.11680624  1
  Si  Si143  1  0.31301573  0.16912167  0.88403962  1
  Si  Si144  1  0.35461503  0.65961742  0.11235561  1
  Si  Si145  1  0.46789561  0.41846238  0.38920352  1
  Si  Si146  1  0.30510010  0.33129538  0.38586735  1
  Si  Si147  1  0.86207937  0.08791900  0.61041745  1
  Si  Si148  1  0.86190629  0.41787010  0.11534026  1
  Si  Si149  1  0.51769929  0.08374197  0.60736874  1
  Si  Si150  1  0.52625842  0.58495960  0.61191897  1
  Si  Si151  1  0.68934842  0.67091345  0.11315808  1
  Si  Si152  1  0.31452602  0.82896528  0.88601834  1
  Si  Si153  1  0.63772077  0.66823775  0.38462785  1
  Si  Si154  1  0.68950959  0.66742021  0.61236230  1
  Si  Si155  1  0.14607602  0.08323537  0.38782239  1
  Si  Si156  1  0.69261564  0.83628595  0.11466416  1
  Si  Si157  1  0.47326972  0.91789891  0.88280381  1
  Si  Si158  1  0.03082192  0.16540844  0.61712578  1
  Si  Si159  1  0.31006316  0.16460904  0.38530307  1
  Si  Si160  1  0.47409858  0.91826426  0.38264639  1
  Si  Si161  1  0.51610906  0.08168173  0.10697220  1
  Si  Si162  1  0.18959550  0.92457737  0.11104447  1
  Si  Si163  1  0.63358664  0.33165092  0.88358532  1
  Si  Si164  1  0.02555537  0.16539530  0.11616134  1
  Si  Si165  1  0.64011145  0.16595454  0.88201008  1
  Si  Si166  1  0.02580951  0.32995352  0.61793590  1
  Si  Si167  1  0.47652598  0.08264388  0.38319402  1
  Si  Si168  1  0.03130915  0.66856937  0.61245769  1
  Si  Si169  1  0.31068833  0.66753659  0.88713075  1
  Si  Si170  1  0.97777789  0.15984603  0.38736212  1
  Si  Si171  1  0.69101790  0.83021159  0.60905492  1
  Si  Si172  1  0.14421073  0.91818759  0.38518493  1
  Si  Si173  1  0.18463869  0.41800609  0.61470330  1
  Si  Si174  1  0.80882028  0.59479346  0.38817796  1
  Si  Si175  1  0.85942364  0.41238868  0.61698049  1
  Si  Si176  1  0.03204737  0.83519176  0.11470215  1
  Si  Si177  1  0.79988916  0.91508275  0.88361021  1
  Si  Si178  1  0.97769489  0.15791100  0.88887930  1
  Si  Si179  1  0.52907191  0.42003900  0.61230512  1
  Si  Si180  1  0.86374208  0.07608965  0.11017831  1
  Si  Si181  1  0.80768776  0.91441719  0.38510050  1
  Si  Si182  1  0.64351735  0.16399860  0.38686684  1
  Si  Si183  1  0.97195914  0.67566184  0.38838611  1
  Si  Si184  1  0.80248168  0.41120854  0.89103814  1
  Si  Si185  1  0.19221161  0.08994412  0.11496193  1
  Si  Si186  1  0.03902123  0.67087204  0.11650112  1
  Si  Si187  1  0.31141615  0.33139488  0.88554847  1
  Si  Si188  1  0.47241630  0.58535690  0.38563212  1
  Si  Si189  1  0.63630820  0.83224066  0.88313721  1
  Si  Si190  1  0.69061395  0.33810763  0.61622538  1
  Si  Si191  1  0.97334151  0.84182184  0.88961309  1
  O  O192  1  0.26644512  0.13184199  0.08372216  1
  O  O193  1  0.27763792  0.10611352  0.58666600  1
  O  O194  1  0.27900418  0.60101185  0.08713994  1
  O  O195  1  0.26929903  0.59367353  0.57869644  1
  O  O196  1  0.58842177  0.11546007  0.07006619  1
  O  O197  1  0.59930930  0.10724665  0.57586269  1
  O  O198  1  0.60083591  0.62553142  0.08488820  1
  O  O199  1  0.61301322  0.60964694  0.58544197  1
  O  O200  1  0.94482667  0.11539923  0.08336014  1
  O  O201  1  0.95340690  0.11180658  0.58730873  1
  O  O202  1  0.95250592  0.63448084  0.07788867  1
  O  O203  1  0.95206725  0.62211646  0.57550105  1
  O  O204  1  0.10567840  0.36403880  0.08973705  1
  O  O205  1  0.10398330  0.36355329  0.58632994  1
  O  O206  1  0.09707414  0.88753479  0.08245447  1
  O  O207  1  0.11951125  0.86328935  0.58656550  1
  O  O208  1  0.43700966  0.37652349  0.08227181  1
  O  O209  1  0.45613559  0.36555655  0.57744300  1
  O  O210  1  0.45137247  0.86234923  0.07463891  1
  O  O211  1  0.43229506  0.84936804  0.57540527  1
  O  O212  1  0.77167689  0.37728758  0.08437124  1
  O  O213  1  0.77890115  0.35835314  0.59081287  1
  O  O214  1  0.77407898  0.86825007  0.08492344  1
  O  O215  1  0.77665968  0.84565889  0.57927347  1
  O  O216  1  0.26988860  0.37572285  0.08580709  1
  O  O217  1  0.26165283  0.39708071  0.57634339  1
  O  O218  1  0.26176034  0.88934667  0.07548390  1
  O  O219  1  0.27998276  0.89693853  0.58571106  1
  O  O220  1  0.60383549  0.38610748  0.08346726  1
  O  O221  1  0.62108391  0.40190582  0.59093085  1
  O  O222  1  0.61411725  0.88978019  0.08415511  1
  O  O223  1  0.61928132  0.88706189  0.57499553  1
  O  O224  1  0.93805753  0.37256078  0.08767960  1
  O  O225  1  0.93945174  0.37365280  0.58944704  1
  O  O226  1  0.93657598  0.86671944  0.08402370  1
  O  O227  1  0.95747917  0.88482434  0.57639898  1
  O  O228  1  0.10546165  0.13466999  0.08440720  1
  O  O229  1  0.11457807  0.13595597  0.58825127  1
  O  O230  1  0.11756632  0.62974867  0.08733060  1
  O  O231  1  0.11617048  0.63873128  0.58638995  1
  O  O232  1  0.42709563  0.12510843  0.07467670  1
  O  O233  1  0.43930010  0.14180082  0.58343551  1
  O  O234  1  0.43813147  0.62719965  0.08460143  1
  O  O235  1  0.45166122  0.63811080  0.57804230  1
  O  O236  1  0.77940203  0.11691307  0.07478432  1
  O  O237  1  0.79280034  0.14760030  0.57924104  1
  O  O238  1  0.76334114  0.63855317  0.07903207  1
  O  O239  1  0.76878026  0.64514469  0.57828386  1
  O  O240  1  0.06650060  0.11684920  0.41918584  1
  O  O241  1  0.06368068  0.10908504  0.91470778  1
  O  O242  1  0.04748014  0.62566341  0.42635332  1
  O  O243  1  0.05724139  0.60628823  0.93412617  1
  O  O244  1  0.39879716  0.12124095  0.41420395  1
  O  O245  1  0.39474371  0.11691993  0.91174124  1
  O  O246  1  0.40033452  0.62928748  0.41617683  1
  O  O247  1  0.38680618  0.60800726  0.91303731  1
  O  O248  1  0.73087973  0.11544328  0.41169875  1
  O  O249  1  0.72881313  0.12343517  0.91100923  1
  O  O250  1  0.72439838  0.62667493  0.41565402  1
  O  O251  1  0.70207381  0.61485388  0.92257856  1
  O  O252  1  0.22495559  0.35871045  0.41842768  1
  O  O253  1  0.22954662  0.35249356  0.91784656  1
  O  O254  1  0.23095575  0.87331082  0.41525276  1
  O  O255  1  0.23561098  0.85036710  0.92083787  1
  O  O256  1  0.54685940  0.37295741  0.42562989  1
  O  O257  1  0.55173165  0.36359623  0.91298503  1
  O  O258  1  0.56239227  0.87497661  0.41213415  1
  O  O259  1  0.55843750  0.87171838  0.91213871  1
  O  O260  1  0.90566082  0.36310162  0.42626313  1
  O  O261  1  0.87511240  0.35482716  0.92337107  1
  O  O262  1  0.89693143  0.87410168  0.41613891  1
  O  O263  1  0.88422246  0.87000846  0.91397443  1
  O  O264  1  0.06689694  0.36432917  0.41877792  1
  O  O265  1  0.07308114  0.38312490  0.93071752  1
  O  O266  1  0.06307253  0.88549887  0.41476707  1
  O  O267  1  0.04283299  0.90324488  0.91807557  1
  O  O268  1  0.38395432  0.38491197  0.41517509  1
  O  O269  1  0.39088816  0.38576330  0.91371750  1
  O  O270  1  0.39593199  0.88075797  0.41280657  1
  O  O271  1  0.39429537  0.88469768  0.91331830  1
  O  O272  1  0.72808114  0.39021971  0.43331526  1
  O  O273  1  0.71386868  0.38086965  0.91487463  1
  O  O274  1  0.72889380  0.87391727  0.41269842  1
  O  O275  1  0.72135525  0.87824674  0.91365869  1
  O  O276  1  0.23281875  0.12772465  0.41965541  1
  O  O277  1  0.22763240  0.14525115  0.91237186  1
  O  O278  1  0.23791956  0.63537407  0.42217170  1
  O  O279  1  0.23445752  0.64869912  0.92495631  1
  O  O280  1  0.56644423  0.12022621  0.41571877  1
  O  O281  1  0.56192601  0.12737336  0.91169749  1
  O  O282  1  0.56172608  0.62722222  0.41414878  1
  O  O283  1  0.54273044  0.63941842  0.91161799  1
  O  O284  1  0.90057406  0.11865067  0.41643257  1
  O  O285  1  0.89749906  0.11580196  0.91443162  1
  O  O286  1  0.88247046  0.65453868  0.41410255  1
  O  O287  1  0.87988807  0.64929413  0.92800841  1
  O  O288  1  0.17956781  0.00880586  0.08346606  1
  O  O289  1  0.16753469  0.00057371  0.58737432  1
  O  O290  1  0.17441475  0.49340467  0.08564851  1
  O  O291  1  0.14962792  0.49903170  0.59219007  1
  O  O292  1  0.50332384  -0.00302791  0.08007732  1
  O  O293  1  0.48205826  0.00661727  0.57777968  1
  O  O294  1  0.51335753  0.50278644  0.08448364  1
  O  O295  1  0.50476474  0.50218246  0.58526263  1
  O  O296  1  0.85856699  -0.00816283  0.08042529  1
  O  O297  1  0.83668428  0.00965587  0.57751872  1
  O  O298  1  0.85645190  0.49558741  0.08038795  1
  O  O299  1  0.84019842  0.48837961  0.57965730  1
  O  O300  1  0.01060877  0.24827683  0.08892707  1
  O  O301  1  0.01309995  0.24707358  0.58812930  1
  O  O302  1  0.03974475  0.75453478  0.08539379  1
  O  O303  1  0.01940125  0.75194219  0.58343743  1
  O  O304  1  0.35493060  0.25314007  0.08550009  1
  O  O305  1  0.32139665  0.24235409  0.57790454  1
  O  O306  1  0.33128873  0.73533364  0.07562581  1
  O  O307  1  0.30929442  0.75577062  0.58108955  1
  O  O308  1  0.67663317  0.26284581  0.06915252  1
  O  O309  1  0.65447875  0.26361409  0.58227297  1
  O  O310  1  0.66927719  0.75493391  0.08573712  1
  O  O311  1  0.65571519  0.74814765  0.58620631  1
  O  O312  1  0.15970642  0.00013601  0.41637983  1
  O  O313  1  0.18504730  0.01022788  0.92085866  1
  O  O314  1  0.15396544  0.48690263  0.42631719  1
  O  O315  1  0.18625144  0.48775279  0.92251776  1
  O  O316  1  0.48244529  -0.00031747  0.41353836  1
  O  O317  1  0.48900443  0.00059160  0.91160818  1
  O  O318  1  0.47608969  0.50343464  0.41528679  1
  O  O319  1  0.49206028  0.49910197  0.91362270  1
  O  O320  1  0.81654839  -0.00470392  0.41795669  1
  O  O321  1  0.80637055  -0.00190923  0.91339881  1
  O  O322  1  0.83504331  0.51907831  0.42362561  1
  O  O323  1  0.82112094  0.48938861  0.92447551  1
  O  O324  1  0.32531432  0.24809084  0.41329606  1
  O  O325  1  0.34090651  0.24970600  0.91282981  1
  O  O326  1  0.32433875  0.75469078  0.41442982  1
  O  O327  1  0.35042227  0.74821416  0.91006405  1
  O  O328  1  0.65743726  0.23913512  0.42674115  1
  O  O329  1  0.64786155  0.24826870  0.91139235  1
  O  O330  1  0.64252658  0.75152137  0.41281290  1
  O  O331  1  0.64330271  0.75088103  0.91373964  1
  O  O332  1  0.98702170  0.24150607  0.41782602  1
  O  O333  1  0.99349926  0.23360307  0.92681000  1
  O  O334  1  0.99176989  0.75883177  0.41881472  1
  O  O335  1  1.00122301  0.76642217  0.92550312  1
  O  O336  1  0.20631390  0.08611374  0.19434981  1
  O  O337  1  0.21112864  0.08298202  0.69657851  1
  O  O338  1  0.21437294  0.57367073  0.19593587  1
  O  O339  1  0.21188885  0.58566285  0.69503120  1
  O  O340  1  0.53184591  0.08256746  0.18672429  1
  O  O341  1  0.53934729  0.08403444  0.68970632  1
  O  O342  1  0.54275093  0.58417512  0.19531822  1
  O  O343  1  0.54268037  0.58431649  0.69339349  1
  O  O344  1  0.88301863  0.07340987  0.18991667  1
  O  O345  1  0.87839285  0.08531725  0.69250738  1
  O  O346  1  0.87835597  0.58476614  0.20458703  1
  O  O347  1  0.87946025  0.58164388  0.70146310  1
  O  O348  1  0.04308689  0.33121660  0.19961936  1
  O  O349  1  0.04558859  0.32996365  0.69818402  1
  O  O350  1  0.04876793  0.83973622  0.19403439  1
  O  O351  1  0.04474209  0.83411190  0.69352688  1
  O  O352  1  0.38211636  0.34226031  0.19408547  1
  O  O353  1  0.37691530  0.33404721  0.69832710  1
  O  O354  1  0.37760212  0.83206212  0.19911736  1
  O  O355  1  0.37343601  0.83367373  0.69143899  1
  O  O356  1  0.70786251  0.33629189  0.19037732  1
  O  O357  1  0.70949461  0.33437415  0.69764362  1
  O  O358  1  0.70992300  0.83396400  0.19496498  1
  O  O359  1  0.70789962  0.83349340  0.69110378  1
  O  O360  1  0.21094944  0.41323536  0.19691676  1
  O  O361  1  0.20943715  0.41054964  0.69452944  1
  O  O362  1  0.20911987  0.92020763  0.19174587  1
  O  O363  1  0.21300780  0.91847832  0.69562477  1
  O  O364  1  0.54135055  0.42064511  0.19415157  1
  O  O365  1  0.54240665  0.41734078  0.69376001  1
  O  O366  1  0.54243373  0.91448089  0.19041331  1
  O  O367  1  0.54295599  0.91599110  0.69790306  1
  O  O368  1  0.87888485  0.41715145  0.19578039  1
  O  O369  1  0.87612822  0.41566068  0.69783710  1
  O  O370  1  0.87990189  0.91361465  0.19365227  1
  O  O371  1  0.87975651  0.91687671  0.70119723  1
  O  O372  1  0.04233839  0.16395855  0.19639581  1
  O  O373  1  0.04683342  0.16589161  0.69779774  1
  O  O374  1  0.04922062  0.67093659  0.19476048  1
  O  O375  1  0.04405997  0.66898717  0.69290100  1
  O  O376  1  0.38317928  0.16299412  0.19108579  1
  O  O377  1  0.37380420  0.16632060  0.69228185  1
  O  O378  1  0.37547968  0.66404157  0.19335136  1
  O  O379  1  0.37662978  0.66545047  0.70080393  1
  O  O380  1  0.70095951  0.17756707  0.19158911  1
  O  O381  1  0.71116159  0.16667844  0.69956571  1
  O  O382  1  0.70602781  0.66914014  0.19395528  1
  O  O383  1  0.70755941  0.66738159  0.69352056  1
  O  O384  1  0.12563122  0.08275747  0.30758558  1
  O  O385  1  0.12863095  0.08446769  0.80653135  1
  O  O386  1  0.12140110  0.58007771  0.30283138  1
  O  O387  1  0.12074440  0.58581775  0.80243387  1
  O  O388  1  0.46115778  0.08269915  0.30377052  1
  O  O389  1  0.45710419  0.08358807  0.80171196  1
  O  O390  1  0.45610632  0.58465895  0.30502807  1
  O  O391  1  0.45544814  0.57993362  0.80321623  1
  O  O392  1  0.79934734  0.07181372  0.30667738  1
  O  O393  1  0.78957501  0.08085367  0.80309225  1
  O  O394  1  0.78742370  0.59007257  0.30744108  1
  O  O395  1  0.78401212  0.58387601  0.79990065  1
  O  O396  1  0.28505872  0.33716094  0.30655639  1
  O  O397  1  0.29155897  0.33174640  0.80534915  1
  O  O398  1  0.28964490  0.83604558  0.30406428  1
  O  O399  1  0.29338231  0.83346913  0.80488730  1
  O  O400  1  0.62109655  0.33775027  0.29926987  1
  O  O401  1  0.61808248  0.33197811  0.80308649  1
  O  O402  1  0.62173795  0.83279422  0.30260941  1
  O  O403  1  0.62162749  0.83252985  0.80287937  1
  O  O404  1  0.95697460  0.32936579  0.30938948  1
  O  O405  1  0.95601800  0.33118813  0.80319941  1
  O  O406  1  0.95595012  0.84005053  0.30611949  1
  O  O407  1  0.95647917  0.83592935  0.80803461  1
  O  O408  1  0.12364990  0.41253591  0.30963607  1
  O  O409  1  0.12371282  0.40810547  0.81298088  1
  O  O410  1  0.12663398  0.91877862  0.30520733  1
  O  O411  1  0.12403303  0.91704996  0.79941929  1
  O  O412  1  0.45499388  0.41821826  0.30806977  1
  O  O413  1  0.45650153  0.41712381  0.80363174  1
  O  O414  1  0.45689112  0.91683598  0.30276784  1
  O  O415  1  0.45528392  0.91772680  0.80251866  1
  O  O416  1  0.78843165  0.42029579  0.29934764  1
  O  O417  1  0.78677235  0.41356381  0.80926014  1
  O  O418  1  0.79045931  0.91367361  0.30481185  1
  O  O419  1  0.78347545  0.91686915  0.80325425  1
  O  O420  1  0.28414728  0.16003727  0.30719445  1
  O  O421  1  0.29385968  0.16711424  0.80348881  1
  O  O422  1  0.29642789  0.66883257  0.30648736  1
  O  O423  1  0.28956833  0.66628086  0.80646026  1
  O  O424  1  0.62020711  0.17171187  0.30757186  1
  O  O425  1  0.62020966  0.16512682  0.80191980  1
  O  O426  1  0.62058063  0.66799044  0.30402710  1
  O  O427  1  0.61820719  0.66733433  0.80484000  1
  O  O428  1  0.96640183  0.16209348  0.30797255  1
  O  O429  1  0.95810823  0.16314034  0.80772363  1
  O  O430  1  0.95615393  0.67535008  0.30927769  1
  O  O431  1  0.95672604  0.66886389  0.80179523  1
  F  F432  1  0.04923934  0.00058349  0.20343810  1
  F  F433  1  0.04680819  0.00334507  0.70240973  1
  F  F434  1  0.04824129  0.48709444  0.19983134  1
  F  F435  1  0.03959126  0.49578277  0.70633043  1
  F  F436  1  0.37878512  -0.00501580  0.19715548  1
  F  F437  1  0.37676003  0.00055253  0.70091844  1
  F  F438  1  0.37906682  0.50059379  0.20497588  1
  F  F439  1  0.37813653  0.49902161  0.69921968  1
  F  F440  1  0.71834139  -0.01223588  0.19473467  1
  F  F441  1  0.71153100  0.00002698  0.69938228  1
  F  F442  1  0.70965654  0.50433393  0.20120405  1
  F  F443  1  0.71075316  0.49745027  0.70315862  1
  F  F444  1  0.19718612  0.25007237  0.19813941  1
  F  F445  1  0.21062173  0.24878084  0.70342432  1
  F  F446  1  0.21575322  0.75663586  0.19794581  1
  F  F447  1  0.21106469  0.75092328  0.70454858  1
  F  F448  1  0.54121984  0.25231004  0.19872680  1
  F  F449  1  0.54422757  0.25006450  0.70025778  1
  F  F450  1  0.54446466  0.74922146  0.20058338  1
  F  F451  1  0.54403222  0.74906911  0.70079029  1
  F  F452  1  0.88425020  0.25944839  0.20008202  1
  F  F453  1  0.88018015  0.24804046  0.70457280  1
  F  F454  1  0.86875964  0.75198095  0.19761560  1
  F  F455  1  0.87843645  0.75191649  0.70232159  1
  F  F456  1  0.28821549  -0.00526205  0.29926371  1
  F  F457  1  0.29188907  0.00097058  0.79792450  1
  F  F458  1  0.28864808  0.49870375  0.30095500  1
  F  F459  1  0.29526140  0.49784564  0.79827328  1
  F  F460  1  0.61445103  -0.01008375  0.29676670  1
  F  F461  1  0.62086009  0.00274319  0.79511736  1
  F  F462  1  0.62008573  0.50368552  0.29793221  1
  F  F463  1  0.61771457  0.49989105  0.79641938  1
  F  F464  1  0.95762778  -0.00288938  0.29739883  1
  F  F465  1  0.95429642  0.00350915  0.79816906  1
  F  F466  1  0.95339462  0.49033475  0.30739936  1
  F  F467  1  0.95331578  0.49647212  0.80441124  1
  F  F468  1  0.12098160  0.24722335  0.30084178  1
  F  F469  1  0.12402026  0.24741739  0.80056129  1
  F  F470  1  0.12851489  0.75791001  0.30454146  1
  F  F471  1  0.12128755  0.75145136  0.79758447  1
  F  F472  1  0.46542366  0.25023772  0.30170559  1
  F  F473  1  0.45567901  0.24702693  0.79613010  1
  F  F474  1  0.45628578  0.74884583  0.29774206  1
  F  F475  1  0.45571367  0.75339059  0.79646209  1
  F  F476  1  0.78339600  0.26106780  0.30235925  1
  F  F477  1  0.78718556  0.24866637  0.79974352  1
  F  F478  1  0.78536903  0.75234957  0.29806825  1
  F  F479  1  0.78474154  0.75232830  0.79558354  1
