# generated using pymatgen
data_K24Na3Li5Mg64Fe17Si79(O5F)48
_symmetry_space_group_name_H-M   'P 1'
_cell_length_a   16.10841889
_cell_length_b   18.61885547
_cell_length_c   20.57208316
_cell_angle_alpha   90.02550995
_cell_angle_beta   100.03440913
_cell_angle_gamma   89.96668798
_symmetry_Int_Tables_number   1
_chemical_formula_structural   K24Na3Li5Mg64Fe17Si79(O5F)48
_chemical_formula_sum   'K24 Na3 Li5 Mg64 Fe17 Si79 O240 F48'
_cell_volume   6075.60395062
_cell_formula_units_Z   1
loop_
 _symmetry_equiv_pos_site_id
 _symmetry_equiv_pos_as_xyz
  1  'x, y, z'
loop_
 _atom_site_type_symbol
 _atom_site_label
 _atom_site_symmetry_multiplicity
 _atom_site_fract_x
 _atom_site_fract_y
 _atom_site_fract_z
 _atom_site_occupancy
  K  K0  1  -0.00089120  0.00122183  0.00723298  1
  K  K1  1  0.00415645  0.00453501  0.49358400  1
  K  K2  1  0.00412183  0.51628220  0.00324007  1
  K  K3  1  -0.01565183  0.50032266  0.49152392  1
  K  K4  1  0.33625751  0.00681405  0.00078488  1
  K  K5  1  0.32808757  -0.00397648  0.50088337  1
  K  K6  1  0.32487120  0.50137798  0.01695748  1
  K  K7  1  0.33755752  0.50505138  0.48991465  1
  K  K8  1  0.67446030  0.00505729  -0.00121837  1
  K  K9  1  0.66482658  0.00380296  0.49990645  1
  K  K10  1  0.68600649  0.50840319  0.00646017  1
  K  K11  1  0.67215615  0.51188495  0.49870756  1
  K  K12  1  0.17084361  0.24677621  0.01490671  1
  K  K13  1  0.15947174  0.24166856  0.48875296  1
  K  K14  1  0.16417631  0.74853688  0.00726147  1
  K  K15  1  0.16889699  0.75232991  0.48700844  1
  K  K16  1  0.50426726  0.24265796  0.00270759  1
  K  K17  1  0.49378105  0.25241748  0.49470778  1
  K  K18  1  0.51210116  0.74612896  0.00432369  1
  K  K19  1  0.49916707  0.73690832  0.50345087  1
  K  K20  1  0.82561214  0.25542489  0.00752561  1
  K  K21  1  0.84374351  0.25050726  0.48950087  1
  K  K22  1  0.83810585  0.73581705  0.00778351  1
  K  K23  1  0.83344060  0.74330881  0.49850254  1
  Na  Na24  1  0.16720177  -0.00135017  0.74066601  1
  Na  Na25  1  0.16582912  0.66927585  0.25741844  1
  Na  Na26  1  0.33028835  0.58222061  0.25087953  1
  Li  Li27  1  0.00016053  0.24735320  0.25701422  1
  Li  Li28  1  0.00608169  0.74682167  0.25855519  1
  Li  Li29  1  0.00057785  0.08995209  0.25231221  1
  Li  Li30  1  -0.00887029  0.58854127  0.75190191  1
  Li  Li31  1  0.83373608  0.66152723  0.75026887  1
  Mg  Mg32  1  0.50164851  -0.00096964  0.74599675  1
  Mg  Mg33  1  0.49976206  0.50049551  0.75065215  1
  Mg  Mg34  1  0.66635653  0.24863191  0.75194979  1
  Mg  Mg35  1  0.49590779  0.50035583  0.25069611  1
  Mg  Mg36  1  0.16410797  0.49915288  0.25492824  1
  Mg  Mg37  1  0.16322903  0.00246773  0.24763375  1
  Mg  Mg38  1  0.33261873  0.75179029  0.24744571  1
  Mg  Mg39  1  -0.00225348  0.74620431  0.75065837  1
  Mg  Mg40  1  0.16116846  0.50008185  0.75186536  1
  Mg  Mg41  1  0.83590679  0.50532708  0.75273192  1
  Mg  Mg42  1  0.83334760  0.49992450  0.25248115  1
  Mg  Mg43  1  0.83851612  0.00423148  0.25060629  1
  Mg  Mg44  1  0.33248354  0.24837624  0.74845373  1
  Mg  Mg45  1  0.33297948  0.74957368  0.74567130  1
  Mg  Mg46  1  0.50022306  0.00218119  0.24511047  1
  Mg  Mg47  1  0.67014792  0.74966448  0.74839278  1
  Mg  Mg48  1  0.66678637  0.25014517  0.24861241  1
  Mg  Mg49  1  0.33286252  0.24916514  0.24870439  1
  Mg  Mg50  1  0.00035552  0.24839173  0.75150162  1
  Mg  Mg51  1  0.66915949  0.75073231  0.24724617  1
  Mg  Mg52  1  0.83524399  -0.00173299  0.75103372  1
  Mg  Mg53  1  0.32989916  0.58339499  0.75016668  1
  Mg  Mg54  1  0.16276771  0.16615851  0.25205068  1
  Mg  Mg55  1  0.33221357  0.08584631  0.24614562  1
  Mg  Mg56  1  0.49751042  0.33498925  0.24920660  1
  Mg  Mg57  1  0.49856343  0.16670222  0.24493042  1
  Mg  Mg58  1  0.16682088  0.83253662  0.74640445  1
  Mg  Mg59  1  0.16365988  0.83277900  0.24925113  1
  Mg  Mg60  1  0.50165656  0.16394569  0.74818974  1
  Mg  Mg61  1  0.66427136  0.08421720  0.74920505  1
  Mg  Mg62  1  0.49758004  0.66667033  0.25035207  1
  Mg  Mg63  1  0.66940778  0.91723036  0.24726738  1
  Mg  Mg64  1  0.33243909  0.91759848  0.24817329  1
  Mg  Mg65  1  0.49985443  0.33365446  0.75408307  1
  Mg  Mg66  1  0.00224782  0.91492352  0.74912265  1
  Mg  Mg67  1  0.33351481  0.08205950  0.74654485  1
  Mg  Mg68  1  0.33243807  0.91424568  0.74240592  1
  Mg  Mg69  1  0.83603768  0.16846449  0.24899304  1
  Mg  Mg70  1  0.00201318  0.58463032  0.25334760  1
  Mg  Mg71  1  0.00113297  0.91819783  0.24968414  1
  Mg  Mg72  1  0.83356289  0.33460034  0.75371953  1
  Mg  Mg73  1  0.16215441  0.66381533  0.75139466  1
  Mg  Mg74  1  0.67109794  0.58634868  0.75061708  1
  Mg  Mg75  1  0.66664164  0.58609819  0.24959210  1
  Mg  Mg76  1  0.16353011  0.33145451  0.25329481  1
  Mg  Mg77  1  0.83660651  0.66704304  0.24764096  1
  Mg  Mg78  1  0.83530756  0.33161423  0.25305601  1
  Mg  Mg79  1  0.00220724  0.08211940  0.74923649  1
  Mg  Mg80  1  0.49994371  0.66522940  0.74741780  1
  Mg  Mg81  1  0.49835367  0.83447413  0.74294214  1
  Mg  Mg82  1  0.66869402  0.41688070  0.75513216  1
  Mg  Mg83  1  0.50086141  0.83541653  0.24738110  1
  Mg  Mg84  1  0.33076292  0.41614666  0.75229396  1
  Mg  Mg85  1  -0.00091853  0.41131730  0.25482002  1
  Mg  Mg86  1  0.83311957  0.83033372  0.74779627  1
  Mg  Mg87  1  -0.00230439  0.41834344  0.75296076  1
  Mg  Mg88  1  0.83795501  0.83352025  0.24846341  1
  Mg  Mg89  1  0.66883249  0.08529027  0.24708261  1
  Mg  Mg90  1  0.66438728  0.91581524  0.74390488  1
  Mg  Mg91  1  0.83318798  0.16442356  0.75175978  1
  Mg  Mg92  1  0.66519471  0.41665378  0.25194644  1
  Mg  Mg93  1  0.16453061  0.33411192  0.75274846  1
  Mg  Mg94  1  0.33116872  0.41605958  0.24865658  1
  Mg  Mg95  1  0.16737949  0.16484066  0.74787101  1
  Fe  Fe96  1  0.31367509  0.67017222  0.39211267  1
  Fe  Fe97  1  0.19084619  0.58283005  0.10967288  1
  Fe  Fe98  1  0.35618958  0.82458849  0.60368425  1
  Fe  Fe99  1  0.97481147  0.33720432  0.39471135  1
  Fe  Fe100  1  0.64089883  0.16473248  0.89131513  1
  Fe  Fe101  1  0.97727004  0.66332464  0.39286140  1
  Fe  Fe102  1  0.52388735  0.08952631  0.60608738  1
  Fe  Fe103  1  0.69484491  0.16934262  0.11053550  1
  Fe  Fe104  1  0.02593481  0.67153712  0.11291010  1
  Fe  Fe105  1  0.36059096  0.16649629  0.10701311  1
  Fe  Fe106  1  0.19414502  0.08435912  0.60691634  1
  Fe  Fe107  1  0.69228647  0.66877254  0.60954601  1
  Fe  Fe108  1  0.97514206  0.16570384  0.39063911  1
  Fe  Fe109  1  0.81213619  0.58678012  0.89229672  1
  Fe  Fe110  1  0.69582055  0.66710944  0.11024537  1
  Fe  Fe111  1  0.52378796  0.91809169  0.60317185  1
  Fe  Fe112  1  0.47662644  0.41433865  0.39011568  1
  Si  Si113  1  0.63744114  0.67271570  0.38344100  1
  Si  Si114  1  0.64033304  0.32668739  0.38602885  1
  Si  Si115  1  0.35649407  0.33494946  0.11114018  1
  Si  Si116  1  0.36079101  0.17425696  0.61131371  1
  Si  Si117  1  0.52130510  0.42241736  0.11534869  1
  Si  Si118  1  0.85774697  0.41868317  0.61764195  1
  Si  Si119  1  0.86160467  0.08724032  0.11290795  1
  Si  Si120  1  0.64061301  0.16417775  0.38216542  1
  Si  Si121  1  0.97953268  0.83510324  0.88536602  1
  Si  Si122  1  0.02634359  0.82892888  0.61410247  1
  Si  Si123  1  0.35172222  0.33698263  0.61757209  1
  Si  Si124  1  0.70104604  0.16750597  0.61274335  1
  Si  Si125  1  0.64095437  0.33757135  0.89046406  1
  Si  Si126  1  0.14184091  0.58166292  0.88649157  1
  Si  Si127  1  0.81275654  0.07851154  0.88764552  1
  Si  Si128  1  0.85857500  0.92347422  0.11369944  1
  Si  Si129  1  0.02388091  0.32732826  0.11788362  1
  Si  Si130  1  0.69747244  0.83982851  0.60875862  1
  Si  Si131  1  0.85775571  0.41077212  0.11746404  1
  Si  Si132  1  0.14025487  0.41535684  0.88877063  1
  Si  Si133  1  0.47704754  0.92246854  0.38176381  1
  Si  Si134  1  0.02191878  0.83978774  0.11250413  1
  Si  Si135  1  0.30795021  0.33398092  0.88776207  1
  Si  Si136  1  0.86484290  0.08245845  0.61666829  1
  Si  Si137  1  0.64126500  0.83675735  0.38240515  1
  Si  Si138  1  0.30553632  0.83148850  0.88358254  1
  Si  Si139  1  0.80382738  0.08016819  0.38733046  1
  Si  Si140  1  0.97564253  0.32922293  0.88793193  1
  Si  Si141  1  0.30415082  0.66615264  0.88537934  1
  Si  Si142  1  0.18643130  0.57815849  0.61690493  1
  Si  Si143  1  0.81005211  0.91203573  0.88333873  1
  Si  Si144  1  0.14159160  0.08474878  0.88424005  1
  Si  Si145  1  0.63611037  0.66970191  0.88698901  1
  Si  Si146  1  0.68458531  0.33909598  0.11409853  1
  Si  Si147  1  0.18848359  0.91043186  0.60670467  1
  Si  Si148  1  0.19041037  0.91659683  0.11347374  1
  Si  Si149  1  0.18546060  0.41269038  0.11331512  1
  Si  Si150  1  0.30546139  0.32975446  0.38679793  1
  Si  Si151  1  0.02674595  0.66520825  0.61679548  1
  Si  Si152  1  0.02571304  0.16929530  0.61442160  1
  Si  Si153  1  0.80094524  0.58524377  0.38761297  1
  Si  Si154  1  0.30921071  0.16402425  0.38421210  1
  Si  Si155  1  0.36380656  0.67151935  0.11169706  1
  Si  Si156  1  0.52391877  0.91622085  0.11203157  1
  Si  Si157  1  0.19068317  0.08153205  0.11050633  1
  Si  Si158  1  0.18494686  0.41565356  0.61795243  1
  Si  Si159  1  0.97749730  0.16328630  0.88698361  1
  Si  Si160  1  0.52982172  0.07947839  0.10841704  1
  Si  Si161  1  0.14456017  0.91688948  0.38276816  1
  Si  Si162  1  0.35786813  0.83520404  0.11224062  1
  Si  Si163  1  0.14372434  0.57690710  0.39355038  1
  Si  Si164  1  0.31406199  0.83881686  0.38547837  1
  Si  Si165  1  0.14238834  0.91785097  0.88332995  1
  Si  Si166  1  0.47057084  0.91466833  0.88230397  1
  Si  Si167  1  0.02072740  0.33263449  0.61875080  1
  Si  Si168  1  0.52309745  0.57729130  0.61367767  1
  Si  Si169  1  0.02879764  0.16369137  0.11762200  1
  Si  Si170  1  0.86349990  0.57555288  0.11326823  1
  Si  Si171  1  0.79902010  0.41886154  0.38864154  1
  Si  Si172  1  0.98124754  0.67155474  0.88758317  1
  Si  Si173  1  0.81211629  0.41500769  0.89054918  1
  Si  Si174  1  0.52520442  0.58593441  0.11283224  1
  Si  Si175  1  0.86606182  0.91653443  0.61563138  1
  Si  Si176  1  0.97730661  0.83676926  0.38563139  1
  Si  Si177  1  0.47043515  0.58603092  0.88537769  1
  Si  Si178  1  0.14720716  0.07994028  0.38641086  1
  Si  Si179  1  0.14516948  0.41589965  0.39008243  1
  Si  Si180  1  0.35144127  0.65431476  0.61285755  1
  Si  Si181  1  0.69306333  0.83866857  0.11034636  1
  Si  Si182  1  0.47635996  0.08602411  0.38199615  1
  Si  Si183  1  0.47276229  0.42020997  0.88763050  1
  Si  Si184  1  0.63909028  0.83601608  0.88233028  1
  Si  Si185  1  0.80901693  0.91593199  0.38393450  1
  Si  Si186  1  0.30574465  0.16842580  0.88523926  1
  Si  Si187  1  0.46743362  0.07984006  0.88603711  1
  Si  Si188  1  0.48345478  0.58243223  0.38921352  1
  Si  Si189  1  0.86342001  0.58224708  0.61444992  1
  Si  Si190  1  0.52308781  0.41126675  0.61835514  1
  Si  Si191  1  0.69326684  0.33357710  0.61808572  1
  O  O192  1  0.26429381  0.11130390  0.07311715  1
  O  O193  1  0.29058141  0.11811758  0.57545280  1
  O  O194  1  0.28845671  0.61967561  0.07885420  1
  O  O195  1  0.27352756  0.59610626  0.58993077  1
  O  O196  1  0.61513323  0.09727804  0.08032803  1
  O  O197  1  0.62340666  0.12116435  0.57541973  1
  O  O198  1  0.60251007  0.60842668  0.07659092  1
  O  O199  1  0.59517281  0.61075786  0.57791818  1
  O  O200  1  0.94895694  0.11187080  0.08681650  1
  O  O201  1  0.94634027  0.11419226  0.58844805  1
  O  O202  1  0.94291106  0.60282541  0.08199229  1
  O  O203  1  0.94918091  0.61133938  0.58735510  1
  O  O204  1  0.10286910  0.35993275  0.08512015  1
  O  O205  1  0.10464537  0.36237056  0.59103676  1
  O  O206  1  0.10520957  0.87184382  0.08204312  1
  O  O207  1  0.10713914  0.85452253  0.58229464  1
  O  O208  1  0.43685998  0.37524539  0.08495640  1
  O  O209  1  0.43597833  0.36613047  0.59016219  1
  O  O210  1  0.43939026  0.86818684  0.08268142  1
  O  O211  1  0.45166992  0.84441801  0.56923517  1
  O  O212  1  0.76862315  0.36971245  0.08632827  1
  O  O213  1  0.76881091  0.37612689  0.58934902  1
  O  O214  1  0.77200852  0.87879436  0.08291393  1
  O  O215  1  0.78772968  0.86492469  0.58479735  1
  O  O216  1  0.26855949  0.37953593  0.08464767  1
  O  O217  1  0.27047322  0.38982860  0.59045529  1
  O  O218  1  0.27217108  0.88277497  0.08364970  1
  O  O219  1  0.26423947  0.88505413  0.56927773  1
  O  O220  1  0.60465137  0.39450253  0.08580580  1
  O  O221  1  0.60179853  0.37247250  0.59026462  1
  O  O222  1  0.60604570  0.88655151  0.08276620  1
  O  O223  1  0.63150763  0.90229955  0.57992430  1
  O  O224  1  0.93431046  0.36934457  0.08807072  1
  O  O225  1  0.93762764  0.38131812  0.58990619  1
  O  O226  1  0.94093624  0.89455235  0.08417553  1
  O  O227  1  0.94777584  0.88435439  0.58679873  1
  O  O228  1  0.10577907  0.12974990  0.08250964  1
  O  O229  1  0.10349902  0.14927102  0.57906975  1
  O  O230  1  0.10920924  0.64390014  0.06674098  1
  O  O231  1  0.11082208  0.63483921  0.58872454  1
  O  O232  1  0.45316403  0.13029158  0.07318163  1
  O  O233  1  0.44811613  0.16702199  0.58316504  1
  O  O234  1  0.44857062  0.64246261  0.08356709  1
  O  O235  1  0.43262631  0.61773612  0.58639525  1
  O  O236  1  0.78934865  0.14040568  0.07509912  1
  O  O237  1  0.78615132  0.13549103  0.58714461  1
  O  O238  1  0.78183140  0.62103797  0.07687158  1
  O  O239  1  0.78468510  0.62844891  0.57614829  1
  O  O240  1  0.07252574  0.10899764  0.42204258  1
  O  O241  1  0.06445318  0.11955347  0.91761362  1
  O  O242  1  0.06325877  0.59780902  0.42869040  1
  O  O243  1  0.06807482  0.62375421  0.91587570  1
  O  O244  1  0.39597753  0.11778000  0.41185067  1
  O  O245  1  0.38815928  0.11979673  0.91443526  1
  O  O246  1  0.40452893  0.60734455  0.42312058  1
  O  O247  1  0.39364520  0.62585832  0.91464023  1
  O  O248  1  0.71541832  0.10762192  0.41160806  1
  O  O249  1  0.74049023  0.11269886  0.92278370  1
  O  O250  1  0.72019797  0.62498226  0.41331499  1
  O  O251  1  0.71894315  0.62902450  0.92396841  1
  O  O252  1  0.22065730  0.35599763  0.41476507  1
  O  O253  1  0.22962536  0.37261035  0.91716463  1
  O  O254  1  0.22907343  0.86964770  0.41159569  1
  O  O255  1  0.23101764  0.87489792  0.91406427  1
  O  O256  1  0.56128744  0.34580283  0.42120025  1
  O  O257  1  0.56320630  0.38242773  0.91656511  1
  O  O258  1  0.56183689  0.87454219  0.41038892  1
  O  O259  1  0.56415229  0.87985221  0.91216070  1
  O  O260  1  0.88284432  0.38100970  0.42759060  1
  O  O261  1  0.89446897  0.36094393  0.91657708  1
  O  O262  1  0.89687060  0.87507599  0.41521497  1
  O  O263  1  0.89651489  0.86690388  0.91349558  1
  O  O264  1  0.06775970  0.39717805  0.42753744  1
  O  O265  1  0.06313481  0.37397600  0.91707974  1
  O  O266  1  0.06236134  0.88721294  0.41231564  1
  O  O267  1  0.06229892  0.88615966  0.91533647  1
  O  O268  1  0.38290771  0.37826186  0.42408064  1
  O  O269  1  0.39578247  0.37815076  0.91612551  1
  O  O270  1  0.39322535  0.89672006  0.40971804  1
  O  O271  1  0.39809752  0.86783524  0.91246465  1
  O  O272  1  0.71866366  0.38031622  0.41523960  1
  O  O273  1  0.72978285  0.38035413  0.91787438  1
  O  O274  1  0.72895616  0.87900199  0.41241937  1
  O  O275  1  0.72956497  0.87652557  0.91210248  1
  O  O276  1  0.23445108  0.12605265  0.41611900  1
  O  O277  1  0.22631667  0.13198147  0.91424932  1
  O  O278  1  0.21879228  0.63295708  0.42283821  1
  O  O279  1  0.23187822  0.62226379  0.91646055  1
  O  O280  1  0.55653819  0.13810695  0.41167347  1
  O  O281  1  0.55252977  0.11754263  0.92331926  1
  O  O282  1  0.55956793  0.64225398  0.41588064  1
  O  O283  1  0.55451456  0.63236941  0.91452733  1
  O  O284  1  0.88144071  0.12575617  0.42597269  1
  O  O285  1  0.90232003  0.12172108  0.91595818  1
  O  O286  1  0.88326632  0.62536735  0.42659305  1
  O  O287  1  0.90833015  0.64210240  0.92543736  1
  O  O288  1  0.17282025  -0.00193072  0.08284818  1
  O  O289  1  0.15642703  -0.00947236  0.58179084  1
  O  O290  1  0.16723959  0.48789534  0.07458599  1
  O  O291  1  0.15851240  0.49650867  0.59038326  1
  O  O292  1  0.50089568  -0.00351219  0.08304410  1
  O  O293  1  0.48450233  0.00548313  0.56494124  1
  O  O294  1  0.49660673  0.50356307  0.08694497  1
  O  O295  1  0.50855876  0.49233119  0.58877436  1
  O  O296  1  0.84194309  0.00467759  0.08281256  1
  O  O297  1  0.84847066  -0.00008670  0.58802243  1
  O  O298  1  0.84717885  0.49120091  0.08607902  1
  O  O299  1  0.84915021  0.49832616  0.58484136  1
  O  O300  1  0.01058833  0.24537901  0.08613926  1
  O  O301  1  -0.00484132  0.25190518  0.59169743  1
  O  O302  1  -0.00365871  0.76444947  0.07646686  1
  O  O303  1  0.00306273  0.74665574  0.58664891  1
  O  O304  1  0.34383608  0.25939945  0.07162983  1
  O  O305  1  0.32484349  0.25741381  0.58926791  1
  O  O306  1  0.34452854  0.75453948  0.08065242  1
  O  O307  1  0.32306471  0.72886567  0.57738079  1
  O  O308  1  0.65977175  0.26227288  0.07947782  1
  O  O309  1  0.69087817  0.25241116  0.58764352  1
  O  O310  1  0.67794332  0.76141545  0.07473530  1
  O  O311  1  0.67302141  0.76240115  0.57443663  1
  O  O312  1  0.16729092  -0.00295842  0.41391482  1
  O  O313  1  0.15706150  0.00138839  0.91089650  1
  O  O314  1  0.18096910  0.49512671  0.41803911  1
  O  O315  1  0.14890858  0.49821230  0.91646215  1
  O  O316  1  0.49916448  0.00444908  0.40988427  1
  O  O317  1  0.46634635  -0.00427903  0.91300649  1
  O  O318  1  0.51658412  0.50499837  0.42152196  1
  O  O319  1  0.47653361  0.50337040  0.91500411  1
  O  O320  1  0.81509343  -0.00323380  0.41547367  1
  O  O321  1  0.82718081  -0.00599433  0.91328426  1
  O  O322  1  0.79783115  0.50233434  0.41571834  1
  O  O323  1  0.83232459  0.49132925  0.92594995  1
  O  O324  1  0.32333502  0.24561134  0.41413592  1
  O  O325  1  0.31830945  0.25103504  0.91563790  1
  O  O326  1  0.34048821  0.76518485  0.42422429  1
  O  O327  1  0.30808532  0.74906430  0.91380396  1
  O  O328  1  0.67004962  0.24391480  0.41074871  1
  O  O329  1  0.64705560  0.25968811  0.92469686  1
  O  O330  1  0.65372731  0.75527607  0.41175207  1
  O  O331  1  0.63873425  0.75459107  0.91297434  1
  O  O332  1  0.99392708  0.25020885  0.43881518  1
  O  O333  1  0.98966673  0.24609696  0.91582572  1
  O  O334  1  0.99388453  0.76025345  0.42270244  1
  O  O335  1  1.00364770  0.75522736  0.91541506  1
  O  O336  1  0.21081768  0.08323031  0.19109745  1
  O  O337  1  0.21781954  0.09359516  0.69719126  1
  O  O338  1  0.19808480  0.57421786  0.19635394  1
  O  O339  1  0.20668319  0.57985489  0.69764749  1
  O  O340  1  0.54326438  0.08237271  0.19006990  1
  O  O341  1  0.54482851  0.08280401  0.69904880  1
  O  O342  1  0.54311651  0.58573249  0.19370370  1
  O  O343  1  0.54169883  0.58011806  0.69505873  1
  O  O344  1  0.86969077  0.08464329  0.19218867  1
  O  O345  1  0.87852720  0.08330282  0.69739444  1
  O  O346  1  0.87368323  0.57808572  0.19400280  1
  O  O347  1  0.87726381  0.57893993  0.69365336  1
  O  O348  1  0.04469121  0.33254892  0.19699907  1
  O  O349  1  0.04123313  0.33342789  0.69945462  1
  O  O350  1  0.04452064  0.84187565  0.19194452  1
  O  O351  1  0.04376003  0.83109507  0.69468129  1
  O  O352  1  0.37477649  0.33002940  0.19166639  1
  O  O353  1  0.37372161  0.33632362  0.69848291  1
  O  O354  1  0.37856544  0.83824283  0.19237630  1
  O  O355  1  0.37747023  0.82940317  0.69704311  1
  O  O356  1  0.70425498  0.33682833  0.19487268  1
  O  O357  1  0.71067425  0.33342300  0.69891602  1
  O  O358  1  0.70929397  0.83703263  0.19117427  1
  O  O359  1  0.71252892  0.83570176  0.69066484  1
  O  O360  1  0.20578250  0.41155466  0.19391286  1
  O  O361  1  0.20697982  0.41550447  0.69874819  1
  O  O362  1  0.21109401  0.91887735  0.19343001  1
  O  O363  1  0.21331213  0.90391926  0.68730386  1
  O  O364  1  0.54311885  0.41782775  0.19535133  1
  O  O365  1  0.54212426  0.41396391  0.69901522  1
  O  O366  1  0.54360204  0.91673346  0.19250850  1
  O  O367  1  0.54444986  0.91700109  0.69716787  1
  O  O368  1  0.87349352  0.41393478  0.19732434  1
  O  O369  1  0.87528661  0.41552150  0.69814896  1
  O  O370  1  0.87526382  0.91963702  0.19378868  1
  O  O371  1  0.87968287  0.91674363  0.69616553  1
  O  O372  1  0.04944022  0.16512743  0.19601471  1
  O  O373  1  0.04283248  0.16780182  0.69582029  1
  O  O374  1  0.03483039  0.66786934  0.20035245  1
  O  O375  1  0.04548519  0.66792314  0.69639995  1
  O  O376  1  0.37790709  0.16662384  0.19848981  1
  O  O377  1  0.37780348  0.17032609  0.69350330  1
  O  O378  1  0.38403747  0.67739430  0.19107739  1
  O  O379  1  0.37356158  0.66050086  0.69426078  1
  O  O380  1  0.71114132  0.16785353  0.20177616  1
  O  O381  1  0.71472202  0.16710300  0.69400774  1
  O  O382  1  0.71196583  0.66743577  0.20154335  1
  O  O383  1  0.70715194  0.66777411  0.69978668  1
  O  O384  1  0.13221125  0.08219868  0.30655192  1
  O  O385  1  0.11894338  0.09016927  0.80535770  1
  O  O386  1  0.11770157  0.57326484  0.31369985  1
  O  O387  1  0.12811564  0.58074172  0.80710987  1
  O  O388  1  0.45838607  0.08362775  0.30169599  1
  O  O389  1  0.45405716  0.08332252  0.80550281  1
  O  O390  1  0.46914905  0.58323264  0.30858793  1
  O  O391  1  0.45344736  0.58274288  0.80488623  1
  O  O392  1  0.78902595  0.08114571  0.30679147  1
  O  O393  1  0.79378157  0.08218858  0.80671324  1
  O  O394  1  0.78801361  0.58354831  0.30706898  1
  O  O395  1  0.78725585  0.57988237  0.80247984  1
  O  O396  1  0.29118910  0.32985039  0.30584511  1
  O  O397  1  0.28905364  0.33466395  0.80742435  1
  O  O398  1  0.29506868  0.83846777  0.30455571  1
  O  O399  1  0.28759314  0.83095641  0.80373846  1
  O  O400  1  0.62129930  0.33126618  0.30501696  1
  O  O401  1  0.62287446  0.33576706  0.80922260  1
  O  O402  1  0.62410803  0.83709025  0.30191034  1
  O  O403  1  0.62291585  0.83413239  0.80233484  1
  O  O404  1  0.95221732  0.33324267  0.30396131  1
  O  O405  1  0.95812870  0.33103011  0.80744118  1
  O  O406  1  0.95484442  0.83850450  0.30560612  1
  O  O407  1  0.95927497  0.83528301  0.80513868  1
  O  O408  1  0.12276095  0.41267210  0.30915782  1
  O  O409  1  0.12275166  0.41432659  0.80849454  1
  O  O410  1  0.12586293  0.91943190  0.30267546  1
  O  O411  1  0.12165512  0.91044889  0.80434467  1
  O  O412  1  0.45395412  0.41477006  0.29865418  1
  O  O413  1  0.45429165  0.41768248  0.80704330  1
  O  O414  1  0.45937272  0.92022624  0.30109074  1
  O  O415  1  0.45533041  0.91461800  0.80262634  1
  O  O416  1  0.78604776  0.41666898  0.30767905  1
  O  O417  1  0.79200443  0.41401936  0.80943229  1
  O  O418  1  0.79008024  0.91681259  0.30353303  1
  O  O419  1  0.79150551  0.91511271  0.80309892  1
  O  O420  1  0.29055301  0.16449436  0.30397284  1
  O  O421  1  0.28969020  0.17063546  0.80543414  1
  O  O422  1  0.30028763  0.67843613  0.30484044  1
  O  O423  1  0.28808269  0.66507559  0.80503987  1
  O  O424  1  0.61934046  0.16470396  0.30197105  1
  O  O425  1  0.62347111  0.16789440  0.79974818  1
  O  O426  1  0.62072994  0.67137203  0.30327142  1
  O  O427  1  0.61903658  0.66649368  0.80646504  1
  O  O428  1  0.95093854  0.16650752  0.30163925  1
  O  O429  1  0.95797696  0.16544726  0.80645407  1
  O  O430  1  0.95042408  0.66261537  0.30290191  1
  O  O431  1  0.96093770  0.67037689  0.80836347  1
  F  F432  1  0.04662098  -0.00146147  0.19973736  1
  F  F433  1  0.03080537  -0.00078790  0.69831961  1
  F  F434  1  0.04135523  0.49484694  0.20727268  1
  F  F435  1  0.04660844  0.49161430  0.70225159  1
  F  F436  1  0.37872137  0.00069836  0.19844610  1
  F  F437  1  0.38013007  -0.00011110  0.69905350  1
  F  F438  1  0.38065258  0.49150566  0.19572642  1
  F  F439  1  0.37668583  0.49808733  0.70448344  1
  F  F440  1  0.71386362  -0.00002280  0.20167337  1
  F  F441  1  0.71618818  0.00214918  0.70351702  1
  F  F442  1  0.71132395  0.49983048  0.20372952  1
  F  F443  1  0.71029196  0.49475400  0.70356597  1
  F  F444  1  0.21164791  0.24860550  0.20230860  1
  F  F445  1  0.21022414  0.25482125  0.70431187  1
  F  F446  1  0.21725615  0.76458300  0.19546168  1
  F  F447  1  0.21068898  0.74450041  0.70284784  1
  F  F448  1  0.54399115  0.25141475  0.20032608  1
  F  F449  1  0.54549534  0.25545164  0.70393281  1
  F  F450  1  0.54742007  0.75378003  0.19976707  1
  F  F451  1  0.54575912  0.74747400  0.70214711  1
  F  F452  1  0.86274339  0.25231540  0.19581306  1
  F  F453  1  0.87859872  0.25013023  0.70560226  1
  F  F454  1  0.86545950  0.75239154  0.19636770  1
  F  F455  1  0.88208502  0.75433425  0.70063949  1
  F  F456  1  0.28976894  0.00211627  0.29413894  1
  F  F457  1  0.29980224  -0.00383892  0.79773993  1
  F  F458  1  0.28331136  0.48680956  0.30176897  1
  F  F459  1  0.28638531  0.49876180  0.80027877  1
  F  F460  1  0.62079967  0.00043794  0.29409546  1
  F  F461  1  0.62537717  -0.00139291  0.79942411  1
  F  F462  1  0.62085400  0.50137084  0.29640719  1
  F  F463  1  0.61848367  0.49974075  0.79945733  1
  F  F464  1  0.95370869  -0.00320349  0.29944633  1
  F  F465  1  0.95640751  -0.00024354  0.80069672  1
  F  F466  1  0.95050584  0.49686239  0.30037093  1
  F  F467  1  0.95380037  0.49337829  0.80363104  1
  F  F468  1  0.13073689  0.24809440  0.30365754  1
  F  F469  1  0.12149619  0.25008960  0.80025077  1
  F  F470  1  0.12180577  0.76589631  0.30695979  1
  F  F471  1  0.12274639  0.74990268  0.79862531  1
  F  F472  1  0.45573081  0.24957579  0.29706015  1
  F  F473  1  0.45299195  0.25081540  0.79894607  1
  F  F474  1  0.45895508  0.75572663  0.29595143  1
  F  F475  1  0.45357421  0.74586834  0.79687078  1
  F  F476  1  0.78471512  0.25240646  0.30093396  1
  F  F477  1  0.78935883  0.24907161  0.80016763  1
  F  F478  1  0.78681867  0.75632942  0.29931467  1
  F  F479  1  0.78487162  0.75976604  0.80179852  1
