# generated using pymatgen
data_K24Na3Li5Mg64Fe17Si79(O5F)48
_symmetry_space_group_name_H-M   'P 1'
_cell_length_a   16.11501355
_cell_length_b   18.60271340
_cell_length_c   20.56624482
_cell_angle_alpha   90.01047261
_cell_angle_beta   100.02159865
_cell_angle_gamma   89.98904033
_symmetry_Int_Tables_number   1
_chemical_formula_structural   K24Na3Li5Mg64Fe17Si79(O5F)48
_chemical_formula_sum   'K24 Na3 Li5 Mg64 Fe17 Si79 O240 F48'
_cell_volume   6071.33949508
_cell_formula_units_Z   1
loop_
 _symmetry_equiv_pos_site_id
 _symmetry_equiv_pos_as_xyz
  1  'x, y, z'
loop_
 _atom_site_type_symbol
 _atom_site_label
 _atom_site_symmetry_multiplicity
 _atom_site_fract_x
 _atom_site_fract_y
 _atom_site_fract_z
 _atom_site_occupancy
  K  K0  1  -0.00646868  0.00635481  0.00221810  1
  K  K1  1  -0.00996807  -0.00138591  0.49346231  1
  K  K2  1  0.00796721  0.49341349  -0.00917559  1
  K  K3  1  0.00424927  0.48768999  0.51162213  1
  K  K4  1  0.33834522  0.01178367  0.00567765  1
  K  K5  1  0.33435716  0.00358491  0.49987567  1
  K  K6  1  0.32234152  0.49926846  -0.01023973  1
  K  K7  1  0.32455045  0.49347279  0.50634609  1
  K  K8  1  0.67062682  -0.00724484  0.00394434  1
  K  K9  1  0.66623465  0.00600731  0.49797024  1
  K  K10  1  0.66145614  0.49534377  -0.00734462  1
  K  K11  1  0.67142086  0.49955527  0.50789505  1
  K  K12  1  0.18366386  0.25566001  -0.00104201  1
  K  K13  1  0.17082748  0.26061385  0.50185680  1
  K  K14  1  0.17297275  0.74978910  -0.00346999  1
  K  K15  1  0.16277808  0.75420580  0.50361351  1
  K  K16  1  0.48862731  0.24075032  0.00380015  1
  K  K17  1  0.49380908  0.23969361  0.49870869  1
  K  K18  1  0.49948159  0.74770053  -0.00433115  1
  K  K19  1  0.50108171  0.74929558  0.50539213  1
  K  K20  1  0.84000826  0.24458753  -0.00346280  1
  K  K21  1  0.83578378  0.24793828  0.50061440  1
  K  K22  1  0.83233703  0.76275022  -0.00478028  1
  K  K23  1  0.82800068  0.75357638  0.50609566  1
  Na  Na24  1  0.83244654  -0.00080592  0.25325388  1
  Na  Na25  1  0.16743322  0.33160286  0.75335159  1
  Na  Na26  1  0.16724032  0.66912538  0.75419475  1
  Li  Li27  1  0.34135722  0.24336097  0.25828354  1
  Li  Li28  1  0.83276567  0.49803968  0.74705914  1
  Li  Li29  1  0.83175755  0.16929764  0.74679415  1
  Li  Li30  1  0.49783100  0.33058826  0.75004908  1
  Li  Li31  1  0.49169686  0.16705899  0.25912357  1
  Mg  Mg32  1  0.66650170  0.25070018  0.74799586  1
  Mg  Mg33  1  0.33442896  0.75031409  0.75217045  1
  Mg  Mg34  1  0.16520396  0.50117816  0.75196816  1
  Mg  Mg35  1  0.66352784  0.24946176  0.25133250  1
  Mg  Mg36  1  0.33450827  0.75077901  0.24584992  1
  Mg  Mg37  1  0.49809567  0.00459826  0.24941415  1
  Mg  Mg38  1  -0.00181156  0.75022122  0.74895131  1
  Mg  Mg39  1  0.16695664  0.00081149  0.75290554  1
  Mg  Mg40  1  0.33415720  0.25014630  0.75195484  1
  Mg  Mg41  1  0.66743167  0.75108456  0.24971011  1
  Mg  Mg42  1  0.83646448  0.49858361  0.25150056  1
  Mg  Mg43  1  0.66638581  0.74733393  0.74715349  1
  Mg  Mg44  1  0.00043991  0.75281141  0.25097855  1
  Mg  Mg45  1  -0.00300314  0.24922862  0.75026171  1
  Mg  Mg46  1  0.50346780  0.00165963  0.74971907  1
  Mg  Mg47  1  0.00033087  0.25094153  0.25226881  1
  Mg  Mg48  1  0.49950533  0.49555847  0.75099422  1
  Mg  Mg49  1  0.83299799  0.00210545  0.74755028  1
  Mg  Mg50  1  0.16478336  0.00133358  0.25428645  1
  Mg  Mg51  1  0.16993036  0.49901874  0.24698235  1
  Mg  Mg52  1  0.50020612  0.49940864  0.24586500  1
  Mg  Mg53  1  0.83576518  0.66495365  0.24992887  1
  Mg  Mg54  1  0.17280421  0.33236681  0.25003067  1
  Mg  Mg55  1  0.49861631  0.66617651  0.24460083  1
  Mg  Mg56  1  0.33101529  0.58326409  0.75193553  1
  Mg  Mg57  1  0.16716221  0.83421369  0.75151574  1
  Mg  Mg58  1  0.83271260  0.16658023  0.25299740  1
  Mg  Mg59  1  -0.00283306  0.58209744  0.74983503  1
  Mg  Mg60  1  0.66774827  0.58355099  0.24781955  1
  Mg  Mg61  1  -0.00227158  0.41709670  0.74895530  1
  Mg  Mg62  1  -0.00326035  0.91657856  0.74802087  1
  Mg  Mg63  1  0.66564730  0.41521441  0.74895939  1
  Mg  Mg64  1  0.33532564  0.08552100  0.75178982  1
  Mg  Mg65  1  0.50027653  0.66279095  0.75164836  1
  Mg  Mg66  1  0.83032351  0.83463820  0.74615899  1
  Mg  Mg67  1  0.00345387  0.58415388  0.24996829  1
  Mg  Mg68  1  0.50118844  0.16772878  0.74855750  1
  Mg  Mg69  1  0.66642694  0.91449860  0.74726166  1
  Mg  Mg70  1  0.83268816  0.33291536  0.74957909  1
  Mg  Mg71  1  0.33333890  0.41311803  0.24676658  1
  Mg  Mg72  1  0.33308604  0.91796616  0.25118468  1
  Mg  Mg73  1  0.16657338  0.83575440  0.25075991  1
  Mg  Mg74  1  0.66785377  0.58042602  0.74718288  1
  Mg  Mg75  1  0.33330878  0.58520037  0.24303515  1
  Mg  Mg76  1  0.16939363  0.16745711  0.25178697  1
  Mg  Mg77  1  -0.00108296  0.08361849  0.25406701  1
  Mg  Mg78  1  0.66624449  0.91777606  0.24951959  1
  Mg  Mg79  1  0.33303090  0.41412850  0.75302058  1
  Mg  Mg80  1  -0.00011427  0.91689608  0.25360363  1
  Mg  Mg81  1  0.16821150  0.66700828  0.24625632  1
  Mg  Mg82  1  -0.00301018  0.08489018  0.74981981  1
  Mg  Mg83  1  0.66369696  0.08525677  0.25258884  1
  Mg  Mg84  1  0.66808503  0.08632107  0.74642527  1
  Mg  Mg85  1  0.50388188  0.83314201  0.75019804  1
  Mg  Mg86  1  0.00428819  0.41433517  0.25155658  1
  Mg  Mg87  1  0.49924990  0.83527204  0.24870182  1
  Mg  Mg88  1  0.33450785  0.08783877  0.25313582  1
  Mg  Mg89  1  0.66752987  0.41582021  0.25007070  1
  Mg  Mg90  1  0.83006149  0.66225826  0.74579101  1
  Mg  Mg91  1  0.83659359  0.33441079  0.25290232  1
  Mg  Mg92  1  0.16812975  0.16644570  0.75267996  1
  Mg  Mg93  1  0.83372519  0.83440787  0.25244908  1
  Mg  Mg94  1  0.49695619  0.33003331  0.24619616  1
  Mg  Mg95  1  0.33641880  0.91679310  0.75299641  1
  Fe  Fe96  1  0.31100756  0.16259218  0.89226375  1
  Fe  Fe97  1  0.97889412  0.33470977  0.39240344  1
  Fe  Fe98  1  0.52776739  0.08655615  0.60935492  1
  Fe  Fe99  1  0.64329493  0.82880301  0.88860913  1
  Fe  Fe100  1  0.85698244  0.91615423  0.11058905  1
  Fe  Fe101  1  0.14076142  0.42013450  0.89082315  1
  Fe  Fe102  1  0.68722156  0.65885280  0.60701533  1
  Fe  Fe103  1  0.35916702  0.66926131  0.10496508  1
  Fe  Fe104  1  0.30349243  0.16998207  0.39408353  1
  Fe  Fe105  1  0.18854635  0.41987212  0.61105671  1
  Fe  Fe106  1  0.85566044  0.92018127  0.60829794  1
  Fe  Fe107  1  0.14133603  0.91520294  0.39201746  1
  Fe  Fe108  1  0.31306817  0.67118057  0.89204323  1
  Fe  Fe109  1  0.19115775  0.41679835  0.10882466  1
  Fe  Fe110  1  0.47660313  0.07879407  0.39302418  1
  Fe  Fe111  1  0.35866437  0.16532502  0.11308588  1
  Fe  Fe112  1  0.80096433  0.91495366  0.39201820  1
  Si  Si113  1  0.97098440  0.16562589  0.88316755  1
  Si  Si114  1  0.69577689  0.33610466  0.11586000  1
  Si  Si115  1  0.01730781  0.32757238  0.61309969  1
  Si  Si116  1  0.35485696  0.16738667  0.61411179  1
  Si  Si117  1  0.86443560  0.58160293  0.60989568  1
  Si  Si118  1  0.53200760  0.58167881  0.11060063  1
  Si  Si119  1  0.19205373  0.08026666  0.61609861  1
  Si  Si120  1  0.52046910  0.41143213  0.61664710  1
  Si  Si121  1  0.14733526  0.58663804  0.38304323  1
  Si  Si122  1  0.97425202  0.16526835  0.38843902  1
  Si  Si123  1  0.36432004  0.33916005  0.10922189  1
  Si  Si124  1  0.02207464  0.16561797  0.11741880  1
  Si  Si125  1  0.36193385  0.83147181  0.61712479  1
  Si  Si126  1  0.80652552  0.57670571  0.88237849  1
  Si  Si127  1  0.14675981  0.42277018  0.38693128  1
  Si  Si128  1  0.97099860  0.33058323  0.88747661  1
  Si  Si129  1  0.02504911  0.66995908  0.11429473  1
  Si  Si130  1  0.80620279  0.41282167  0.88357160  1
  Si  Si131  1  0.97132644  0.82719742  0.39221509  1
  Si  Si132  1  0.47405925  0.90952476  0.38563368  1
  Si  Si133  1  0.68645984  0.83067627  0.60865194  1
  Si  Si134  1  0.13400964  0.58901252  0.88958520  1
  Si  Si135  1  0.31855207  0.33377761  0.89187939  1
  Si  Si136  1  0.18944032  0.91749640  0.11599370  1
  Si  Si137  1  0.86156439  0.41688115  0.11468412  1
  Si  Si138  1  0.19702441  0.91504712  0.61751527  1
  Si  Si139  1  0.52297183  0.91640838  0.61212497  1
  Si  Si140  1  0.97208178  0.83219481  0.88354230  1
  Si  Si141  1  0.52765561  0.91694772  0.11454983  1
  Si  Si142  1  0.69693948  0.17357568  0.61226432  1
  Si  Si143  1  0.35605682  0.84257394  0.11158369  1
  Si  Si144  1  0.02466872  0.32985776  0.11335260  1
  Si  Si145  1  0.02665159  0.16222585  0.61495721  1
  Si  Si146  1  0.64220974  0.17322743  0.38811492  1
  Si  Si147  1  0.53052372  0.41686093  0.11308999  1
  Si  Si148  1  0.02408157  0.66987170  0.61529182  1
  Si  Si149  1  0.68921712  0.33867784  0.61310757  1
  Si  Si150  1  0.47854934  0.57902883  0.88836213  1
  Si  Si151  1  0.48318476  0.08109958  0.88753175  1
  Si  Si152  1  0.51661531  0.57525776  0.61210757  1
  Si  Si153  1  0.31121653  0.84338432  0.88866119  1
  Si  Si154  1  0.63340010  0.82931378  0.38513795  1
  Si  Si155  1  0.02694406  0.83382902  0.11256429  1
  Si  Si156  1  0.69714063  0.66142373  0.11397993  1
  Si  Si157  1  0.35576123  0.33167980  0.61516671  1
  Si  Si158  1  0.31320838  0.66590043  0.38207672  1
  Si  Si159  1  0.53377789  0.08190538  0.11371870  1
  Si  Si160  1  0.69434288  0.17156596  0.11612197  1
  Si  Si161  1  0.02880801  0.83566599  0.61295261  1
  Si  Si162  1  0.63834881  0.33768033  0.38407675  1
  Si  Si163  1  0.80668813  0.08421317  0.88217581  1
  Si  Si164  1  0.47516385  0.41988998  0.38256352  1
  Si  Si165  1  0.85812353  0.41447213  0.61438029  1
  Si  Si166  1  0.18981106  0.58682456  0.61296692  1
  Si  Si167  1  0.18490247  0.08093157  0.11494739  1
  Si  Si168  1  0.47982351  0.41491469  0.88569027  1
  Si  Si169  1  0.13671245  0.08617393  0.39019001  1
  Si  Si170  1  0.86390619  0.58236762  0.11434846  1
  Si  Si171  1  0.80994095  0.58309103  0.38465259  1
  Si  Si172  1  0.47804423  0.58295584  0.38192212  1
  Si  Si173  1  0.64507027  0.65900390  0.88687221  1
  Si  Si174  1  0.80420953  0.41811507  0.38796634  1
  Si  Si175  1  0.97841625  0.66272051  0.38559397  1
  Si  Si176  1  0.64351342  0.33207746  0.88442181  1
  Si  Si177  1  0.85663283  0.08880052  0.11550586  1
  Si  Si178  1  0.80516266  0.09077998  0.38852515  1
  Si  Si179  1  0.35748946  0.66607886  0.61505943  1
  Si  Si180  1  0.85791647  0.08788872  0.61309815  1
  Si  Si181  1  0.30933753  0.82900131  0.38608095  1
  Si  Si182  1  0.13735699  0.91465406  0.88543763  1
  Si  Si183  1  0.96469912  0.66696095  0.88431634  1
  Si  Si184  1  0.80987865  0.92002299  0.88564561  1
  Si  Si185  1  0.68734757  0.82589809  0.11164424  1
  Si  Si186  1  0.31243002  0.33961345  0.38736049  1
  Si  Si187  1  0.64480109  0.16797297  0.88518465  1
  Si  Si188  1  0.47691712  0.91823167  0.88638963  1
  Si  Si189  1  0.13459295  0.08039981  0.88868362  1
  Si  Si190  1  0.64292619  0.66553747  0.38229534  1
  Si  Si191  1  0.18564507  0.58519706  0.10933825  1
  O  O192  1  0.26105481  0.10806386  0.08011264  1
  O  O193  1  0.27059449  0.11665124  0.58733554  1
  O  O194  1  0.26540959  0.61019522  0.07630418  1
  O  O195  1  0.26887171  0.62676742  0.58385349  1
  O  O196  1  0.61384466  0.12142739  0.08496711  1
  O  O197  1  0.62110280  0.12320340  0.57528883  1
  O  O198  1  0.62158101  0.60473303  0.08615309  1
  O  O199  1  0.59158911  0.60115192  0.57445344  1
  O  O200  1  0.93845286  0.11891643  0.08433077  1
  O  O201  1  0.94328057  0.11470984  0.58454664  1
  O  O202  1  0.94411169  0.61701401  0.08583856  1
  O  O203  1  0.94456507  0.61915181  0.58039739  1
  O  O204  1  0.10033417  0.35462872  0.07705805  1
  O  O205  1  0.08920448  0.36609864  0.57951388  1
  O  O206  1  0.11579853  0.85804237  0.08762795  1
  O  O207  1  0.11699944  0.86300711  0.58855616  1
  O  O208  1  0.45226249  0.36604840  0.08183116  1
  O  O209  1  0.44417628  0.35542179  0.58850504  1
  O  O210  1  0.43457359  0.88328454  0.08438986  1
  O  O211  1  0.44212319  0.86139285  0.58627978  1
  O  O212  1  0.77556350  0.37100537  0.08560944  1
  O  O213  1  0.76391821  0.38145329  0.58293753  1
  O  O214  1  0.76042229  0.85917257  0.07632167  1
  O  O215  1  0.76605436  0.85831412  0.57672057  1
  O  O216  1  0.29056062  0.39537018  0.07705923  1
  O  O217  1  0.28172566  0.38278351  0.57648235  1
  O  O218  1  0.27379110  0.89514542  0.08580373  1
  O  O219  1  0.27811778  0.88053045  0.58890518  1
  O  O220  1  0.61486971  0.38684580  0.08571014  1
  O  O221  1  0.60263476  0.38426217  0.58435846  1
  O  O222  1  0.59673860  0.86695826  0.08491269  1
  O  O223  1  0.60431333  0.88393806  0.58375814  1
  O  O224  1  0.93890847  0.37958429  0.08526843  1
  O  O225  1  0.92545352  0.36607838  0.58119820  1
  O  O226  1  0.95268890  0.88477338  0.07491061  1
  O  O227  1  0.95410463  0.88750453  0.57813045  1
  O  O228  1  0.10001835  0.13029194  0.08664726  1
  O  O229  1  0.10582993  0.12492880  0.58599265  1
  O  O230  1  0.10821376  0.64459516  0.08559043  1
  O  O231  1  0.10898689  0.64191461  0.58885278  1
  O  O232  1  0.44882502  0.12099390  0.07773419  1
  O  O233  1  0.43131118  0.14134853  0.57868421  1
  O  O234  1  0.45875735  0.63533264  0.07732347  1
  O  O235  1  0.43236287  0.62567150  0.58351904  1
  O  O236  1  0.77786956  0.14493266  0.08698706  1
  O  O237  1  0.78624152  0.15023699  0.58869832  1
  O  O238  1  0.78075528  0.63162580  0.08566046  1
  O  O239  1  0.77913888  0.62027290  0.57151814  1
  O  O240  1  0.04356718  0.10182984  0.41264431  1
  O  O241  1  0.05289423  0.11672638  0.91546283  1
  O  O242  1  0.06433536  0.61546158  0.41239357  1
  O  O243  1  0.04986609  0.62444747  0.91687245  1
  O  O244  1  0.38588308  0.10558665  0.43143897  1
  O  O245  1  0.40720433  0.10580985  0.92391385  1
  O  O246  1  0.39530574  0.61424820  0.41027181  1
  O  O247  1  0.40390030  0.60821416  0.92452970  1
  O  O248  1  0.72836993  0.12834299  0.42058474  1
  O  O249  1  0.73014880  0.12123550  0.91484231  1
  O  O250  1  0.72862330  0.61899745  0.41111041  1
  O  O251  1  0.72384813  0.60273498  0.91340925  1
  O  O252  1  0.23205059  0.37690847  0.41586869  1
  O  O253  1  0.24085273  0.36939304  0.92125956  1
  O  O254  1  0.23085775  0.84931896  0.42154821  1
  O  O255  1  0.22724872  0.87609350  0.91557752  1
  O  O256  1  0.55622595  0.36895680  0.41293395  1
  O  O257  1  0.56451099  0.36632926  0.91499271  1
  O  O258  1  0.54169642  0.84291684  0.40812192  1
  O  O259  1  0.54599395  0.86035885  0.92058738  1
  O  O260  1  0.88085356  0.36877647  0.42318211  1
  O  O261  1  0.88649052  0.36197163  0.91519672  1
  O  O262  1  0.88714262  0.84692197  0.42157997  1
  O  O263  1  0.90050705  0.87831894  0.91335275  1
  O  O264  1  0.06950407  0.39777769  0.42234370  1
  O  O265  1  0.05074048  0.37507218  0.92433108  1
  O  O266  1  0.04953682  0.87697476  0.42659530  1
  O  O267  1  0.06419861  0.86794907  0.91370787  1
  O  O268  1  0.39287101  0.39573028  0.41319999  1
  O  O269  1  0.40364816  0.38398433  0.92055331  1
  O  O270  1  0.38886207  0.88231596  0.41375791  1
  O  O271  1  0.38630412  0.90360629  0.91184787  1
  O  O272  1  0.71600665  0.39341892  0.41250684  1
  O  O273  1  0.72639330  0.38157980  0.91676858  1
  O  O274  1  0.70214582  0.88426074  0.42276092  1
  O  O275  1  0.73842790  0.88570062  0.92239714  1
  O  O276  1  0.19979520  0.14942992  0.42254372  1
  O  O277  1  0.21871410  0.12048843  0.92451531  1
  O  O278  1  0.22972614  0.63772363  0.41162689  1
  O  O279  1  0.21024498  0.64500566  0.91655556  1
  O  O280  1  0.56623413  0.14441437  0.42227937  1
  O  O281  1  0.56685817  0.13185754  0.91535151  1
  O  O282  1  0.56196760  0.63166651  0.41119549  1
  O  O283  1  0.56466644  0.62600787  0.91694577  1
  O  O284  1  0.88775576  0.14258558  0.41585020  1
  O  O285  1  0.89101795  0.13086760  0.91297754  1
  O  O286  1  0.89729252  0.62695717  0.41332334  1
  O  O287  1  0.88647677  0.62892375  0.91403372  1
  O  O288  1  0.15805915  -0.00261486  0.08798634  1
  O  O289  1  0.18122353  -0.00316270  0.58728193  1
  O  O290  1  0.14805372  0.50834877  0.08237361  1
  O  O291  1  0.16970297  0.51303877  0.57158384  1
  O  O292  1  0.53342481  -0.00222204  0.08406437  1
  O  O293  1  0.49820922  -0.00699066  0.57820015  1
  O  O294  1  0.51508015  0.49875749  0.08321090  1
  O  O295  1  0.49166764  0.49203458  0.58624979  1
  O  O296  1  0.83114657  0.01164091  0.08164461  1
  O  O297  1  0.82724796  0.01328046  0.57592693  1
  O  O298  1  0.84834518  0.49994034  0.08525295  1
  O  O299  1  0.86155444  0.49643291  0.58403188  1
  O  O300  1  -0.00088795  0.24701345  0.08828186  1
  O  O301  1  0.00977117  0.24344632  0.58496333  1
  O  O302  1  0.00280105  0.75075736  0.08495728  1
  O  O303  1  0.01023195  0.75249342  0.58508576  1
  O  O304  1  0.34380946  0.25958666  0.07852151  1
  O  O305  1  0.33099822  0.24948680  0.58774335  1
  O  O306  1  0.33785686  0.76519723  0.07632741  1
  O  O307  1  0.34695951  0.74954743  0.58687682  1
  O  O308  1  0.67758735  0.25450795  0.08676708  1
  O  O309  1  0.68019313  0.25711856  0.58276617  1
  O  O310  1  0.67197881  0.74135415  0.08454561  1
  O  O311  1  0.65851100  0.75219756  0.57676474  1
  O  O312  1  0.16866455  0.00854701  0.42262925  1
  O  O313  1  0.13589645  -0.00411415  0.91589872  1
  O  O314  1  0.17128891  0.50655731  0.41173559  1
  O  O315  1  0.15194898  0.51306408  0.92866977  1
  O  O316  1  0.50887508  -0.01731668  0.42158502  1
  O  O317  1  0.51100864  -0.00146023  0.91266748  1
  O  O318  1  0.49881345  0.50197736  0.41170683  1
  O  O319  1  0.50316507  0.49636158  0.91542501  1
  O  O320  1  0.82555774  0.01124502  0.41921274  1
  O  O321  1  0.82478832  0.00330601  0.91364609  1
  O  O322  1  0.82049164  0.50193825  0.41503027  1
  O  O323  1  0.82685854  0.49503785  0.91301051  1
  O  O324  1  0.33497311  0.26487241  0.42537993  1
  O  O325  1  0.33700962  0.25471511  0.92588349  1
  O  O326  1  0.33921406  0.74594766  0.41144745  1
  O  O327  1  0.33732195  0.76735145  0.92373765  1
  O  O328  1  0.66261623  0.25809238  0.41445997  1
  O  O329  1  0.66038621  0.25007008  0.91567683  1
  O  O330  1  0.66020422  0.74625466  0.41164553  1
  O  O331  1  0.67070189  0.73551428  0.92211957  1
  O  O332  1  1.00611784  0.24122028  0.42300495  1
  O  O333  1  0.98052661  0.24658109  0.91512247  1
  O  O334  1  0.99632086  0.74229131  0.41710769  1
  O  O335  1  0.97079765  0.75023808  0.91361376  1
  O  O336  1  0.20421139  0.08107634  0.19544845  1
  O  O337  1  0.20851754  0.07941447  0.69636370  1
  O  O338  1  0.20813139  0.58616541  0.19136770  1
  O  O339  1  0.21266990  0.57917947  0.69221013  1
  O  O340  1  0.54829681  0.08035699  0.19327860  1
  O  O341  1  0.54655034  0.08368311  0.70102577  1
  O  O342  1  0.54696230  0.58272147  0.19191797  1
  O  O343  1  0.53909352  0.58022341  0.69286548  1
  O  O344  1  0.87922039  0.09233868  0.19517643  1
  O  O345  1  0.87887235  0.08071891  0.69303433  1
  O  O346  1  0.87957013  0.58216017  0.19496024  1
  O  O347  1  0.87747881  0.58663797  0.68954480  1
  O  O348  1  0.04312099  0.33462642  0.19398963  1
  O  O349  1  0.03017054  0.33011902  0.69259193  1
  O  O350  1  0.04364354  0.83123974  0.19342491  1
  O  O351  1  0.04353523  0.83565890  0.69381928  1
  O  O352  1  0.38307315  0.34319012  0.18953444  1
  O  O353  1  0.37074061  0.33325558  0.69503823  1
  O  O354  1  0.37556569  0.83623890  0.19265427  1
  O  O355  1  0.37961481  0.83354269  0.69745811  1
  O  O356  1  0.71456528  0.33711260  0.19607221  1
  O  O357  1  0.70855171  0.33563532  0.69299163  1
  O  O358  1  0.70742241  0.82775155  0.19220170  1
  O  O359  1  0.70820655  0.83196254  0.69031088  1
  O  O360  1  0.21217926  0.41678550  0.20075833  1
  O  O361  1  0.21619034  0.42466706  0.70025217  1
  O  O362  1  0.21033456  0.91599375  0.19621321  1
  O  O363  1  0.21284887  0.91782883  0.69786443  1
  O  O364  1  0.54808869  0.41918529  0.19360815  1
  O  O365  1  0.54401988  0.41649934  0.69585765  1
  O  O366  1  0.54284549  0.91559319  0.19498313  1
  O  O367  1  0.54130524  0.91689857  0.69319308  1
  O  O368  1  0.87730001  0.41908464  0.19499174  1
  O  O369  1  0.87552747  0.41281823  0.69369838  1
  O  O370  1  0.88487020  0.90576409  0.19976213  1
  O  O371  1  0.87681748  0.91744137  0.70012840  1
  O  O372  1  0.04126032  0.16656938  0.19773170  1
  O  O373  1  0.04425350  0.16305583  0.69523038  1
  O  O374  1  0.04192196  0.66755053  0.19500709  1
  O  O375  1  0.03249048  0.66905834  0.69437950  1
  O  O376  1  0.37741597  0.16609630  0.20064337  1
  O  O377  1  0.37729887  0.16400875  0.69463957  1
  O  O378  1  0.37877114  0.66787535  0.19703086  1
  O  O379  1  0.37896562  0.66597819  0.69491001  1
  O  O380  1  0.71036863  0.17057675  0.19619306  1
  O  O381  1  0.70626732  0.17008937  0.69207326  1
  O  O382  1  0.71424137  0.66306275  0.19459568  1
  O  O383  1  0.70898496  0.66357483  0.69849078  1
  O  O384  1  0.12208442  0.08492411  0.30836438  1
  O  O385  1  0.12127579  0.08048020  0.80777415  1
  O  O386  1  0.12643679  0.58632143  0.30249317  1
  O  O387  1  0.11383837  0.58036459  0.80964550  1
  O  O388  1  0.45358219  0.07820761  0.30249303  1
  O  O389  1  0.46002718  0.08273102  0.80690910  1
  O  O390  1  0.46056743  0.58344609  0.30170388  1
  O  O391  1  0.46010229  0.58127285  0.80739422  1
  O  O392  1  0.78330969  0.09348775  0.30848713  1
  O  O393  1  0.78686957  0.08156795  0.80281487  1
  O  O394  1  0.79245238  0.58261076  0.30397628  1
  O  O395  1  0.78860143  0.58149308  0.80316946  1
  O  O396  1  0.29244631  0.33803336  0.30731783  1
  O  O397  1  0.30492072  0.33146733  0.81185468  1
  O  O398  1  0.29066256  0.83058164  0.30481064  1
  O  O399  1  0.29132683  0.83789710  0.80770999  1
  O  O400  1  0.62315972  0.33738491  0.30372761  1
  O  O401  1  0.62831627  0.33243583  0.80522728  1
  O  O402  1  0.62024406  0.83001243  0.30396006  1
  O  O403  1  0.62403098  0.83124030  0.79698023  1
  O  O404  1  0.95625521  0.33598769  0.30040799  1
  O  O405  1  0.95439030  0.33241516  0.80704328  1
  O  O406  1  0.95828477  0.82767005  0.31062500  1
  O  O407  1  0.95464699  0.83285386  0.80353005  1
  O  O408  1  0.12464961  0.42001626  0.30615994  1
  O  O409  1  0.11330626  0.42439992  0.80148203  1
  O  O410  1  0.12200359  0.91450658  0.30013205  1
  O  O411  1  0.12147418  0.91700598  0.80497530  1
  O  O412  1  0.45905466  0.41982643  0.30228414  1
  O  O413  1  0.45793116  0.41730362  0.80632262  1
  O  O414  1  0.45491733  0.91351438  0.30440327  1
  O  O415  1  0.45986139  0.91637672  0.80515928  1
  O  O416  1  0.79047679  0.41866258  0.30669040  1
  O  O417  1  0.78604159  0.41225499  0.80436474  1
  O  O418  1  0.77955184  0.90571852  0.30222610  1
  O  O419  1  0.78905898  0.91688594  0.80508889  1
  O  O420  1  0.28463116  0.16457226  0.30339305  1
  O  O421  1  0.28921384  0.16382496  0.80112436  1
  O  O422  1  0.29122723  0.66597578  0.30189983  1
  O  O423  1  0.30233608  0.66879030  0.80228476  1
  O  O424  1  0.62696282  0.17070603  0.30784851  1
  O  O425  1  0.62696601  0.16786351  0.80542657  1
  O  O426  1  0.62419757  0.66448608  0.30167920  1
  O  O427  1  0.62338718  0.66241292  0.80604029  1
  O  O428  1  0.95552372  0.16913220  0.30719779  1
  O  O429  1  0.95669430  0.16527295  0.80387555  1
  O  O430  1  0.95858875  0.66365949  0.30490140  1
  O  O431  1  0.95028776  0.66746453  0.80418072  1
  F  F432  1  0.04378504  0.00237175  0.20277871  1
  F  F433  1  0.04646844  -0.00006553  0.70340249  1
  F  F434  1  0.04478829  0.50094551  0.20313937  1
  F  F435  1  0.04181152  0.50323161  0.69762593  1
  F  F436  1  0.37660609  -0.00268139  0.20066729  1
  F  F437  1  0.37918761  -0.00036589  0.70454583  1
  F  F438  1  0.38110607  0.50236395  0.19933427  1
  F  F439  1  0.37986650  0.50086054  0.70501487  1
  F  F440  1  0.69945381  0.00186329  0.19964226  1
  F  F441  1  0.71138245  -0.00084599  0.70048809  1
  F  F442  1  0.71578012  0.49982822  0.20208652  1
  F  F443  1  0.70487651  0.49748817  0.69818566  1
  F  F444  1  0.20121725  0.24999278  0.19901012  1
  F  F445  1  0.21497893  0.24024925  0.69943678  1
  F  F446  1  0.21188715  0.75130391  0.20099583  1
  F  F447  1  0.21825347  0.76272352  0.69965052  1
  F  F448  1  0.55333517  0.26000764  0.19583676  1
  F  F449  1  0.54796050  0.24713883  0.70040562  1
  F  F450  1  0.54649967  0.74965714  0.20010894  1
  F  F451  1  0.54264518  0.74533790  0.70044370  1
  F  F452  1  0.87697283  0.25146574  0.20259487  1
  F  F453  1  0.87810905  0.25234253  0.70172110  1
  F  F454  1  0.87986388  0.74619653  0.20340056  1
  F  F455  1  0.87665776  0.75077662  0.70045857  1
  F  F456  1  0.28671681  -0.00155575  0.29787327  1
  F  F457  1  0.28874394  0.00007416  0.79959111  1
  F  F458  1  0.29172528  0.50550334  0.29547133  1
  F  F459  1  0.28963440  0.50280321  0.80290658  1
  F  F460  1  0.61888325  -0.00065328  0.29886975  1
  F  F461  1  0.62505686  -0.00223676  0.79752118  1
  F  F462  1  0.62300523  0.50176642  0.29633659  1
  F  F463  1  0.62163269  0.49916795  0.79792613  1
  F  F464  1  0.96640010  0.00015277  0.30397961  1
  F  F465  1  0.95532138  0.00076067  0.79941291  1
  F  F466  1  0.95647914  0.50178035  0.29866466  1
  F  F467  1  0.95096925  0.50022723  0.79519295  1
  F  F468  1  0.12006685  0.25347600  0.29834478  1
  F  F469  1  0.11358208  0.23894814  0.80212463  1
  F  F470  1  0.12248677  0.74790827  0.29658167  1
  F  F471  1  0.11349587  0.76227184  0.80176886  1
  F  F472  1  0.46083018  0.25741405  0.30114914  1
  F  F473  1  0.45543017  0.24437783  0.79839820  1
  F  F474  1  0.45591645  0.74969163  0.29495976  1
  F  F475  1  0.45835386  0.74991413  0.79763064  1
  F  F476  1  0.78675985  0.25421433  0.29835160  1
  F  F477  1  0.78469919  0.25347641  0.79837765  1
  F  F478  1  0.78779167  0.74418861  0.29734780  1
  F  F479  1  0.78859511  0.75065306  0.79592191  1
