# generated using pymatgen
data_K24Na3Li5Mg64Fe17Si79(O5F)48
_symmetry_space_group_name_H-M   'P 1'
_cell_length_a   16.10025255
_cell_length_b   18.60799439
_cell_length_c   20.56772214
_cell_angle_alpha   89.99486565
_cell_angle_beta   100.02221630
_cell_angle_gamma   90.02527377
_symmetry_Int_Tables_number   1
_chemical_formula_structural   K24Na3Li5Mg64Fe17Si79(O5F)48
_chemical_formula_sum   'K24 Na3 Li5 Mg64 Fe17 Si79 O240 F48'
_cell_volume   6067.92412830
_cell_formula_units_Z   1
loop_
 _symmetry_equiv_pos_site_id
 _symmetry_equiv_pos_as_xyz
  1  'x, y, z'
loop_
 _atom_site_type_symbol
 _atom_site_label
 _atom_site_symmetry_multiplicity
 _atom_site_fract_x
 _atom_site_fract_y
 _atom_site_fract_z
 _atom_site_occupancy
  K  K0  1  -0.00599927  0.00953162  0.00098505  1
  K  K1  1  0.00482536  -0.00024170  0.50820832  1
  K  K2  1  -0.00581175  0.48760594  -0.01184552  1
  K  K3  1  -0.00039865  0.48598270  0.50821784  1
  K  K4  1  0.33767162  0.00253523  -0.00785175  1
  K  K5  1  0.33073296  0.00733679  0.50654067  1
  K  K6  1  0.32597796  0.49455575  -0.01764807  1
  K  K7  1  0.33985248  0.49332487  0.52006796  1
  K  K8  1  0.66652548  0.00815306  -0.00497085  1
  K  K9  1  0.67489325  0.00417837  0.51484609  1
  K  K10  1  0.66056430  0.49633269  -0.01391641  1
  K  K11  1  0.67241502  0.49845829  0.51262952  1
  K  K12  1  0.14665654  0.25526382  -0.00707628  1
  K  K13  1  0.15884263  0.25882700  0.50746063  1
  K  K14  1  0.16661343  0.75107968  -0.01402250  1
  K  K15  1  0.16445681  0.75743724  0.51360224  1
  K  K16  1  0.50583859  0.25030212  -0.01924118  1
  K  K17  1  0.51165866  0.24110390  0.51838772  1
  K  K18  1  0.50260614  0.75183272  -0.00656593  1
  K  K19  1  0.51259030  0.73947950  0.51116199  1
  K  K20  1  0.82890014  0.25204555  -0.02499089  1
  K  K21  1  0.84069438  0.25253995  0.51349307  1
  K  K22  1  0.82120880  0.74995840  -0.00707222  1
  K  K23  1  0.83071700  0.75710387  0.50833178  1
  Na  Na24  1  0.50088053  0.49828254  0.74711439  1
  Na  Na25  1  0.66353986  0.92077818  0.74505385  1
  Na  Na26  1  0.83012873  0.32733010  0.75998915  1
  Li  Li27  1  0.65246708  0.24997328  0.74353297  1
  Li  Li28  1  0.83317094  0.00213836  0.24879278  1
  Li  Li29  1  0.83774922  0.32994768  0.25512919  1
  Li  Li30  1  0.50735577  0.16901087  0.74675243  1
  Li  Li31  1  0.16455841  0.66436403  0.74773411  1
  Mg  Mg32  1  0.33519610  0.74980890  0.24611366  1
  Mg  Mg33  1  0.16597274  0.49977300  0.25251676  1
  Mg  Mg34  1  0.16504517  0.00039842  0.25004484  1
  Mg  Mg35  1  0.50209418  0.00276206  0.74928289  1
  Mg  Mg36  1  -0.00045231  0.75059576  0.24975962  1
  Mg  Mg37  1  0.66684774  0.74870828  0.74693557  1
  Mg  Mg38  1  0.66716623  0.75105712  0.24297248  1
  Mg  Mg39  1  0.33016060  0.25001719  0.25203980  1
  Mg  Mg40  1  0.00384533  0.74922857  0.75091930  1
  Mg  Mg41  1  0.83209120  0.00183812  0.74901830  1
  Mg  Mg42  1  0.16963032  -0.00010155  0.74838183  1
  Mg  Mg43  1  -0.00491265  0.24846332  0.25301520  1
  Mg  Mg44  1  0.66985353  0.25046617  0.25016317  1
  Mg  Mg45  1  0.00263050  0.24906657  0.75376210  1
  Mg  Mg46  1  0.33006049  0.74825909  0.74647770  1
  Mg  Mg47  1  0.49967881  0.00095485  0.24489955  1
  Mg  Mg48  1  0.50058939  0.49878635  0.24647894  1
  Mg  Mg49  1  0.83611563  0.49994794  0.75371732  1
  Mg  Mg50  1  0.33978402  0.25030250  0.75175637  1
  Mg  Mg51  1  0.83328927  0.49732635  0.25212581  1
  Mg  Mg52  1  0.16653194  0.50313275  0.75276751  1
  Mg  Mg53  1  0.16713497  0.33576732  0.75371760  1
  Mg  Mg54  1  0.66812580  0.58343363  0.74917852  1
  Mg  Mg55  1  -0.00060533  0.91612397  0.74869519  1
  Mg  Mg56  1  0.66724905  0.08375923  0.24662597  1
  Mg  Mg57  1  0.16107878  0.16452735  0.25175652  1
  Mg  Mg58  1  0.50001681  0.66487205  0.74775261  1
  Mg  Mg59  1  0.67019653  0.41435075  0.25124695  1
  Mg  Mg60  1  0.83083266  0.83400539  0.74934583  1
  Mg  Mg61  1  -0.00112836  0.58410088  0.24919621  1
  Mg  Mg62  1  0.49876326  0.83373970  0.74679683  1
  Mg  Mg63  1  0.83378622  0.66636001  0.74934111  1
  Mg  Mg64  1  0.50169599  0.66532824  0.24488903  1
  Mg  Mg65  1  0.49905239  0.16659286  0.24862375  1
  Mg  Mg66  1  0.33453241  0.58355453  0.24866209  1
  Mg  Mg67  1  0.83132714  0.83609627  0.24633476  1
  Mg  Mg68  1  0.16752203  0.83392033  0.24974236  1
  Mg  Mg69  1  0.00187256  0.08470454  0.75003726  1
  Mg  Mg70  1  0.00232237  0.58540185  0.75352268  1
  Mg  Mg71  1  0.33235245  0.41588504  0.25052976  1
  Mg  Mg72  1  0.49998221  0.33327664  0.24994096  1
  Mg  Mg73  1  0.16941189  0.16699538  0.75154679  1
  Mg  Mg74  1  0.66652702  0.41469431  0.75049106  1
  Mg  Mg75  1  -0.00409989  0.41347918  0.25238471  1
  Mg  Mg76  1  0.50126344  0.33029703  0.74912878  1
  Mg  Mg77  1  0.33460358  0.41622793  0.75208008  1
  Mg  Mg78  1  0.33708222  0.08546529  0.74746249  1
  Mg  Mg79  1  0.66750191  0.58467379  0.24584215  1
  Mg  Mg80  1  0.66430903  0.08774880  0.75155630  1
  Mg  Mg81  1  -0.00154162  0.91739095  0.25075647  1
  Mg  Mg82  1  0.66620952  0.91904326  0.24353728  1
  Mg  Mg83  1  0.33411989  0.91544385  0.24613906  1
  Mg  Mg84  1  0.83059409  0.66601775  0.24609784  1
  Mg  Mg85  1  0.33143207  0.58435715  0.74949457  1
  Mg  Mg86  1  0.50145004  0.83612037  0.24404335  1
  Mg  Mg87  1  0.33052567  0.08476790  0.24998440  1
  Mg  Mg88  1  0.83404898  0.16784645  0.75767341  1
  Mg  Mg89  1  0.16232070  0.33400589  0.25176782  1
  Mg  Mg90  1  -0.00202899  0.08363209  0.25222427  1
  Mg  Mg91  1  0.33236599  0.91598770  0.74739653  1
  Mg  Mg92  1  0.83379557  0.16461853  0.25173373  1
  Mg  Mg93  1  0.16760019  0.66617467  0.24995329  1
  Mg  Mg94  1  0.16496918  0.83273967  0.74749624  1
  Mg  Mg95  1  0.00075743  0.41619419  0.75314267  1
  Fe  Fe96  1  0.69581436  0.16573713  0.61461923  1
  Fe  Fe97  1  0.19063334  0.91657177  0.60978205  1
  Fe  Fe98  1  0.02903233  0.66515414  0.61295564  1
  Fe  Fe99  1  0.03119352  0.17005700  0.61417475  1
  Fe  Fe100  1  0.14211090  0.41800268  0.89436888  1
  Fe  Fe101  1  0.52369927  0.92424905  0.10467334  1
  Fe  Fe102  1  0.02211303  0.16576813  0.11046646  1
  Fe  Fe103  1  0.68897970  0.66663804  0.10509055  1
  Fe  Fe104  1  0.52230112  0.07900080  0.60817356  1
  Fe  Fe105  1  0.14140820  0.07895701  0.39212295  1
  Fe  Fe106  1  0.69636709  0.66904478  0.60703493  1
  Fe  Fe107  1  0.97357275  0.33223016  0.39227577  1
  Fe  Fe108  1  0.52820195  0.58165021  0.60677949  1
  Fe  Fe109  1  0.35690602  0.33030663  0.61120551  1
  Fe  Fe110  1  0.64031183  0.33323058  0.89127597  1
  Fe  Fe111  1  0.86584293  0.58037504  0.61167435  1
  Fe  Fe112  1  0.97345329  0.32886970  0.89448011  1
  Si  Si113  1  0.14439701  0.58705699  0.38534387  1
  Si  Si114  1  0.30922850  0.32974873  0.89122489  1
  Si  Si115  1  0.80888558  0.59015344  0.88901601  1
  Si  Si116  1  0.47053080  0.41759479  0.88970363  1
  Si  Si117  1  0.63793584  0.16579917  0.38323505  1
  Si  Si118  1  0.64307668  0.16229917  0.88861752  1
  Si  Si119  1  0.63956551  0.83467470  0.38105359  1
  Si  Si120  1  0.80580261  0.42604738  0.89305865  1
  Si  Si121  1  0.35904861  0.66506747  0.61233990  1
  Si  Si122  1  0.80733575  0.07685721  0.88799671  1
  Si  Si123  1  0.80810131  0.91321001  0.88555463  1
  Si  Si124  1  0.52889110  0.40982048  0.60901190  1
  Si  Si125  1  0.35746609  0.82880280  0.10883368  1
  Si  Si126  1  0.14335837  0.91629784  0.88567078  1
  Si  Si127  1  0.31247578  0.16365022  0.88681312  1
  Si  Si128  1  0.19348205  0.91344427  0.11339904  1
  Si  Si129  1  0.19051702  0.41966583  0.11670576  1
  Si  Si130  1  0.69269825  0.16885321  0.11401595  1
  Si  Si131  1  0.30983099  0.83383363  0.88488517  1
  Si  Si132  1  0.19265618  0.58424778  0.11525461  1
  Si  Si133  1  0.51745346  0.91220247  0.61164012  1
  Si  Si134  1  0.47546162  0.91560264  0.88461634  1
  Si  Si135  1  0.80546009  0.91551621  0.38130397  1
  Si  Si136  1  0.35353690  0.33365584  0.11576696  1
  Si  Si137  1  0.14493624  0.42040838  0.38880105  1
  Si  Si138  1  0.52240626  0.41044996  0.11405945  1
  Si  Si139  1  0.47748883  0.58196684  0.38189473  1
  Si  Si140  1  0.01657121  0.83347737  0.61095488  1
  Si  Si141  1  0.69363410  0.33468260  0.11647823  1
  Si  Si142  1  0.97287380  0.83205094  0.38401848  1
  Si  Si143  1  0.52080601  0.09465687  0.11048315  1
  Si  Si144  1  0.63873412  0.33193159  0.38527580  1
  Si  Si145  1  0.30876397  0.67027761  0.88545688  1
  Si  Si146  1  0.96829582  0.15925131  0.39169149  1
  Si  Si147  1  0.52166731  0.57598133  0.10923342  1
  Si  Si148  1  0.63973315  0.66973367  0.38110582  1
  Si  Si149  1  0.14614894  0.08042338  0.88760492  1
  Si  Si150  1  0.30822284  0.17038611  0.38726258  1
  Si  Si151  1  0.47159590  0.08419070  0.38240768  1
  Si  Si152  1  0.19025677  0.42166619  0.61562908  1
  Si  Si153  1  0.19678071  0.08019065  0.11185657  1
  Si  Si154  1  0.47552724  0.41701326  0.38379102  1
  Si  Si155  1  0.47599935  0.07939190  0.88513791  1
  Si  Si156  1  0.63835172  0.66679992  0.88653815  1
  Si  Si157  1  0.19530358  0.08562972  0.61434279  1
  Si  Si158  1  0.79993387  0.08138795  0.38342859  1
  Si  Si159  1  0.97594867  0.15670291  0.89073384  1
  Si  Si160  1  0.69327300  0.33315194  0.61569445  1
  Si  Si161  1  0.31009061  0.33651332  0.38526844  1
  Si  Si162  1  0.02409616  0.33803588  0.61597179  1
  Si  Si163  1  0.47342769  0.91812096  0.38188419  1
  Si  Si164  1  0.35868115  0.66272556  0.11219170  1
  Si  Si165  1  0.69225501  0.83801057  0.10707818  1
  Si  Si166  1  0.97406189  0.66570922  0.38427601  1
  Si  Si167  1  0.19585892  0.58567183  0.61621651  1
  Si  Si168  1  0.86360284  0.58517859  0.11178909  1
  Si  Si169  1  0.86587011  0.08331811  0.61497276  1
  Si  Si170  1  0.02897537  0.66763095  0.11465309  1
  Si  Si171  1  0.14252194  0.58843183  0.89095824  1
  Si  Si172  1  0.02301124  0.33745742  0.11437076  1
  Si  Si173  1  0.80145585  0.42026920  0.38905361  1
  Si  Si174  1  0.85517593  0.91974512  0.61574048  1
  Si  Si175  1  0.97537577  0.67193441  0.88940467  1
  Si  Si176  1  0.68962961  0.83593979  0.61193681  1
  Si  Si177  1  0.85413353  0.07910595  0.11413613  1
  Si  Si178  1  0.97595585  0.83643265  0.88700600  1
  Si  Si179  1  0.86065812  0.91328705  0.11434118  1
  Si  Si180  1  0.80579679  0.58535088  0.38418834  1
  Si  Si181  1  0.63903588  0.83022464  0.88367432  1
  Si  Si182  1  0.35524607  0.16520883  0.61320706  1
  Si  Si183  1  0.02594410  0.83377837  0.11417697  1
  Si  Si184  1  0.14530220  0.90812451  0.38628189  1
  Si  Si185  1  0.31274131  0.66551826  0.38318502  1
  Si  Si186  1  0.85708642  0.41667529  0.61838338  1
  Si  Si187  1  0.47002423  0.58603076  0.88590865  1
  Si  Si188  1  0.31216748  0.82930606  0.38254995  1
  Si  Si189  1  0.35574379  0.17080099  0.11529522  1
  Si  Si190  1  0.35861265  0.82894093  0.61117473  1
  Si  Si191  1  0.85798830  0.42104527  0.11673827  1
  O  O192  1  0.28205372  0.11285171  0.08603961  1
  O  O193  1  0.28624112  0.09920174  0.59051125  1
  O  O194  1  0.27306246  0.61608023  0.08536143  1
  O  O195  1  0.28325745  0.60668132  0.58771623  1
  O  O196  1  0.60155561  0.13131071  0.08347053  1
  O  O197  1  0.61003135  0.10923619  0.56757055  1
  O  O198  1  0.59710597  0.60395828  0.07418714  1
  O  O199  1  0.60948027  0.61417802  0.56038064  1
  O  O200  1  0.92716427  0.10910321  0.07643773  1
  O  O201  1  0.95132519  0.09867572  0.58486030  1
  O  O202  1  0.95077088  0.61446225  0.08648768  1
  O  O203  1  0.95969733  0.59399147  0.57269868  1
  O  O204  1  0.10472561  0.37637743  0.08841100  1
  O  O205  1  0.10333763  0.37586250  0.58705470  1
  O  O206  1  0.10541347  0.86974595  0.08496204  1
  O  O207  1  0.09431344  0.86165022  0.57654478  1
  O  O208  1  0.43755020  0.36137114  0.08748065  1
  O  O209  1  0.45365799  0.35463989  0.57539984  1
  O  O210  1  0.43037441  0.86194344  0.07365851  1
  O  O211  1  0.44824189  0.84681556  0.58498724  1
  O  O212  1  0.76996715  0.37693225  0.08888668  1
  O  O213  1  0.78250372  0.35775308  0.59137921  1
  O  O214  1  0.78369597  0.85870271  0.08383006  1
  O  O215  1  0.77052667  0.87402889  0.58411896  1
  O  O216  1  0.27291487  0.38647596  0.08906714  1
  O  O217  1  0.26449713  0.39216476  0.57875780  1
  O  O218  1  0.26655812  0.87001528  0.08279677  1
  O  O219  1  0.28555652  0.88274381  0.57513471  1
  O  O220  1  0.60305967  0.37599144  0.08616135  1
  O  O221  1  0.61743998  0.38931599  0.58084916  1
  O  O222  1  0.62470769  0.89930435  0.07652188  1
  O  O223  1  0.60843001  0.89029363  0.58930612  1
  O  O224  1  0.93867582  0.38711342  0.08824111  1
  O  O225  1  0.94204789  0.38953971  0.58978185  1
  O  O226  1  0.94325376  0.88203631  0.08388274  1
  O  O227  1  0.93558225  0.88887566  0.58536427  1
  O  O228  1  0.11508978  0.12346731  0.07700826  1
  O  O229  1  0.13190964  0.14960170  0.58415044  1
  O  O230  1  0.11227843  0.63647614  0.08716421  1
  O  O231  1  0.12916022  0.64453422  0.58064504  1
  O  O232  1  0.44201827  0.15180199  0.08718114  1
  O  O233  1  0.43406158  0.14299244  0.57752099  1
  O  O234  1  0.43543261  0.62428876  0.08294753  1
  O  O235  1  0.43481934  0.64295125  0.57455215  1
  O  O236  1  0.76466705  0.12253601  0.08542988  1
  O  O237  1  0.79268319  0.13703480  0.58013864  1
  O  O238  1  0.78919411  0.63742627  0.07691819  1
  O  O239  1  0.79077731  0.64842504  0.57125421  1
  O  O240  1  0.04175899  0.10232575  0.42136244  1
  O  O241  1  0.06677216  0.11249913  0.91868065  1
  O  O242  1  0.06454930  0.62517377  0.41217832  1
  O  O243  1  0.06499219  0.63211598  0.92032821  1
  O  O244  1  0.39431974  0.12166611  0.41159973  1
  O  O245  1  0.39880944  0.11795403  0.91760432  1
  O  O246  1  0.39577961  0.61558841  0.40971736  1
  O  O247  1  0.39664872  0.62838988  0.91979517  1
  O  O248  1  0.71873583  0.11542983  0.41274376  1
  O  O249  1  0.73217067  0.11659035  0.91941161  1
  O  O250  1  0.73042588  0.63199215  0.40947826  1
  O  O251  1  0.72987947  0.62984075  0.91794991  1
  O  O252  1  0.23316642  0.37480194  0.41445383  1
  O  O253  1  0.23756692  0.36057206  0.92975193  1
  O  O254  1  0.22672437  0.85286241  0.40957747  1
  O  O255  1  0.23085688  0.87124955  0.91509071  1
  O  O256  1  0.55644870  0.36622663  0.41206187  1
  O  O257  1  0.55574884  0.38168641  0.92949783  1
  O  O258  1  0.56202807  0.87540142  0.40937971  1
  O  O259  1  0.56431310  0.87327333  0.91464085  1
  O  O260  1  0.88464335  0.37949466  0.42509449  1
  O  O261  1  0.89028957  0.38248981  0.92644244  1
  O  O262  1  0.89495463  0.87323163  0.41113263  1
  O  O263  1  0.89890870  0.87407004  0.91875294  1
  O  O264  1  0.07221705  0.38859039  0.42426684  1
  O  O265  1  0.06703347  0.37630273  0.94084939  1
  O  O266  1  0.06337504  0.87066132  0.41260444  1
  O  O267  1  0.06537981  0.87913399  0.91724631  1
  O  O268  1  0.39357629  0.38637185  0.41170785  1
  O  O269  1  0.39412304  0.37749031  0.92153980  1
  O  O270  1  0.39476133  0.87953272  0.41067261  1
  O  O271  1  0.39782364  0.87671939  0.91551593  1
  O  O272  1  0.71894101  0.38244589  0.41487812  1
  O  O273  1  0.73098343  0.39275922  0.92793621  1
  O  O274  1  0.72916724  0.87416879  0.41178322  1
  O  O275  1  0.73152468  0.86819559  0.91242811  1
  O  O276  1  0.23363983  0.14129308  0.42244642  1
  O  O277  1  0.23408615  0.12479157  0.91742773  1
  O  O278  1  0.23022229  0.63509483  0.41145375  1
  O  O279  1  0.22912187  0.63816460  0.91708322  1
  O  O280  1  0.55652537  0.13081576  0.41013091  1
  O  O281  1  0.56542342  0.11776337  0.91790252  1
  O  O282  1  0.56175462  0.62959069  0.40897116  1
  O  O283  1  0.56243492  0.62447894  0.91639114  1
  O  O284  1  0.88143912  0.12834943  0.41630922  1
  O  O285  1  0.90156229  0.10907508  0.91872051  1
  O  O286  1  0.89713205  0.62443429  0.41153988  1
  O  O287  1  0.89580881  0.63673630  0.91992188  1
  O  O288  1  0.18912168  -0.00461145  0.08463958  1
  O  O289  1  0.15981129  0.00951699  0.58147731  1
  O  O290  1  0.17672508  0.50224424  0.08818573  1
  O  O291  1  0.16890456  0.50444067  0.58742081  1
  O  O292  1  0.49441960  0.01896260  0.07452838  1
  O  O293  1  0.48654032  -0.01448969  0.57296328  1
  O  O294  1  0.49947259  0.49186198  0.08552788  1
  O  O295  1  0.50028308  0.48826229  0.57610622  1
  O  O296  1  0.83704801  -0.00546338  0.08690351  1
  O  O297  1  0.83585933  0.00078557  0.58760296  1
  O  O298  1  0.84612928  0.50252289  0.08481307  1
  O  O299  1  0.82555303  0.49001159  0.57923447  1
  O  O300  1  0.01002669  0.26062108  0.07894499  1
  O  O301  1  0.00279871  0.26179756  0.57896301  1
  O  O302  1  0.01318145  0.75034133  0.08593201  1
  O  O303  1  -0.01348052  0.75588995  0.58006162  1
  O  O304  1  0.32795232  0.25235995  0.08841006  1
  O  O305  1  0.31591250  0.23997341  0.57958358  1
  O  O306  1  0.34134010  0.74424268  0.08345658  1
  O  O307  1  0.32863086  0.74692650  0.58566988  1
  O  O308  1  0.68854300  0.25227802  0.08672896  1
  O  O309  1  0.67013993  0.25725756  0.57759249  1
  O  O310  1  0.66226868  0.76054744  0.07459022  1
  O  O311  1  0.66854360  0.76274966  0.57077980  1
  O  O312  1  0.17000449  -0.01653766  0.42167492  1
  O  O313  1  0.16020672  -0.00265730  0.91769547  1
  O  O314  1  0.16321304  0.50558662  0.41326392  1
  O  O315  1  0.15864892  0.51359389  0.93098625  1
  O  O316  1  0.48292201  0.00086815  0.40956784  1
  O  O317  1  0.48272425  -0.00346033  0.91677404  1
  O  O318  1  0.49324678  0.49992308  0.41009397  1
  O  O319  1  0.47129296  0.50389586  0.91554165  1
  O  O320  1  0.81129484  -0.00250359  0.41105983  1
  O  O321  1  0.80981608  -0.00636421  0.91881205  1
  O  O322  1  0.80397308  0.50516378  0.41549308  1
  O  O323  1  0.82066512  0.51097749  0.92302975  1
  O  O324  1  0.33042542  0.25453840  0.41131041  1
  O  O325  1  0.32811064  0.24489614  0.91747907  1
  O  O326  1  0.33479957  0.74728067  0.41035967  1
  O  O327  1  0.32032536  0.75285523  0.91713609  1
  O  O328  1  0.65130308  0.24861853  0.41170244  1
  O  O329  1  0.65149711  0.23838800  0.92790473  1
  O  O330  1  0.64342508  0.75210290  0.40978510  1
  O  O331  1  0.64318109  0.74926739  0.91795863  1
  O  O332  1  0.98843027  0.23796929  0.42437898  1
  O  O333  1  0.98330482  0.23271522  0.92831843  1
  O  O334  1  0.97902240  0.74877589  0.41221192  1
  O  O335  1  0.98675816  0.75513221  0.91950918  1
  O  O336  1  0.21260899  0.08122288  0.19285156  1
  O  O337  1  0.21109382  0.08330826  0.69627824  1
  O  O338  1  0.21117081  0.58459138  0.19599880  1
  O  O339  1  0.21101048  0.58377992  0.69650751  1
  O  O340  1  0.54002526  0.08784567  0.19160852  1
  O  O341  1  0.54654082  0.07925184  0.69830098  1
  O  O342  1  0.54083774  0.58087930  0.19061066  1
  O  O343  1  0.55110441  0.59245846  0.69659103  1
  O  O344  1  0.87594065  0.08344446  0.19415772  1
  O  O345  1  0.88124335  0.08151769  0.69625029  1
  O  O346  1  0.87883063  0.58568034  0.19318020  1
  O  O347  1  0.88108311  0.58479017  0.70437400  1
  O  O348  1  0.04424101  0.33661513  0.19529344  1
  O  O349  1  0.04632311  0.33281660  0.69614659  1
  O  O350  1  0.04512221  0.83197617  0.19471286  1
  O  O351  1  0.03964456  0.83537443  0.69270933  1
  O  O352  1  0.37458076  0.33390567  0.19647862  1
  O  O353  1  0.37650419  0.33435952  0.70255344  1
  O  O354  1  0.37595398  0.83146697  0.19021862  1
  O  O355  1  0.37355135  0.83200121  0.69236794  1
  O  O356  1  0.70515371  0.33385383  0.19610095  1
  O  O357  1  0.70403865  0.33468185  0.69449931  1
  O  O358  1  0.70880904  0.83488811  0.18910328  1
  O  O359  1  0.71372246  0.82684039  0.69137542  1
  O  O360  1  0.21039085  0.41919704  0.19746331  1
  O  O361  1  0.21033218  0.41833496  0.69633552  1
  O  O362  1  0.21110445  0.91333193  0.19408643  1
  O  O363  1  0.21126810  0.91573495  0.70158334  1
  O  O364  1  0.54141538  0.41398810  0.19479332  1
  O  O365  1  0.54566322  0.40925678  0.68897350  1
  O  O366  1  0.54231498  0.91869587  0.19676599  1
  O  O367  1  0.52812026  0.91617734  0.69143667  1
  O  O368  1  0.87729302  0.42317951  0.19642530  1
  O  O369  1  0.88104169  0.42387402  0.69775487  1
  O  O370  1  0.88158067  0.91035275  0.19387957  1
  O  O371  1  0.87552193  0.91635443  0.69620626  1
  O  O372  1  0.04221276  0.16704034  0.20229955  1
  O  O373  1  0.05005854  0.16658695  0.70583165  1
  O  O374  1  0.04607801  0.66801513  0.19542332  1
  O  O375  1  0.04391691  0.66781667  0.70389485  1
  O  O376  1  0.37389671  0.16904682  0.19612290  1
  O  O377  1  0.37153578  0.16734552  0.69390109  1
  O  O378  1  0.37704847  0.66444742  0.19308229  1
  O  O379  1  0.37721025  0.66678514  0.69332430  1
  O  O380  1  0.70775720  0.16762528  0.19436558  1
  O  O381  1  0.71672708  0.16756382  0.70510531  1
  O  O382  1  0.71003328  0.66635968  0.19753842  1
  O  O383  1  0.71389722  0.66739499  0.70008273  1
  O  O384  1  0.12368458  0.07930343  0.29983280  1
  O  O385  1  0.12915529  0.07960605  0.80788069  1
  O  O386  1  0.12517050  0.58621128  0.30435683  1
  O  O387  1  0.12290235  0.58284124  0.81167843  1
  O  O388  1  0.45427549  0.08362191  0.30144017  1
  O  O389  1  0.45264844  0.07753697  0.80652609  1
  O  O390  1  0.45753628  0.58283062  0.30099884  1
  O  O391  1  0.45039206  0.59242635  0.80716470  1
  O  O392  1  0.78329030  0.08411763  0.30369501  1
  O  O393  1  0.79217370  0.07740537  0.80855978  1
  O  O394  1  0.79022654  0.58387855  0.30340460  1
  O  O395  1  0.79235412  0.58896714  0.80959838  1
  O  O396  1  0.28968893  0.33599085  0.30428168  1
  O  O397  1  0.28917659  0.33280030  0.81102462  1
  O  O398  1  0.29361149  0.83083514  0.30152062  1
  O  O399  1  0.29213045  0.83324521  0.80542716  1
  O  O400  1  0.62100634  0.33328447  0.30448445  1
  O  O401  1  0.61964088  0.33624607  0.80199000  1
  O  O402  1  0.62282734  0.83330475  0.30055236  1
  O  O403  1  0.61832374  0.82672255  0.80480701  1
  O  O404  1  0.95827482  0.33314454  0.30144746  1
  O  O405  1  0.97127139  0.33229803  0.80584810  1
  O  O406  1  0.95627498  0.83177388  0.30345954  1
  O  O407  1  0.95797812  0.83594257  0.80720319  1
  O  O408  1  0.12558974  0.41924958  0.30737741  1
  O  O409  1  0.12549579  0.41904877  0.80289203  1
  O  O410  1  0.12522522  0.91181852  0.30487498  1
  O  O411  1  0.12263448  0.91723473  0.80614394  1
  O  O412  1  0.45660374  0.41712815  0.30279484  1
  O  O413  1  0.45236037  0.41279032  0.81069040  1
  O  O414  1  0.45416403  0.91612570  0.30129406  1
  O  O415  1  0.45561568  0.91424679  0.80491934  1
  O  O416  1  0.78550643  0.42143859  0.30856029  1
  O  O417  1  0.78802034  0.42768854  0.81336047  1
  O  O418  1  0.78570711  0.91273482  0.30162672  1
  O  O419  1  0.79894574  0.91560706  0.80676222  1
  O  O420  1  0.28907615  0.16737652  0.30556375  1
  O  O421  1  0.29244719  0.16371055  0.80701702  1
  O  O422  1  0.29255867  0.66626098  0.30223252  1
  O  O423  1  0.29408122  0.66952381  0.80630817  1
  O  O424  1  0.62011885  0.16688290  0.30253141  1
  O  O425  1  0.62564347  0.16383165  0.81013801  1
  O  O426  1  0.62056083  0.66762291  0.30055233  1
  O  O427  1  0.62199530  0.66842764  0.80720915  1
  O  O428  1  0.95274808  0.16232617  0.30998696  1
  O  O429  1  0.96196800  0.15845664  0.81097246  1
  O  O430  1  0.95749215  0.66674402  0.30339475  1
  O  O431  1  0.95703498  0.67182965  0.81006816  1
  F  F432  1  0.04679446  -0.00620910  0.19888192  1
  F  F433  1  0.04697759  -0.00107210  0.70415189  1
  F  F434  1  0.04732029  0.50169060  0.20396123  1
  F  F435  1  0.04598242  0.50243431  0.70570886  1
  F  F436  1  0.37638011  0.00080630  0.19946592  1
  F  F437  1  0.37754913  -0.00122711  0.70296635  1
  F  F438  1  0.37709839  0.49927704  0.20049586  1
  F  F439  1  0.36548447  0.50079918  0.70106802  1
  F  F440  1  0.70518824  0.00204028  0.19771440  1
  F  F441  1  0.71758000  0.01031633  0.69885314  1
  F  F442  1  0.71129693  0.49905139  0.20152090  1
  F  F443  1  0.71587528  0.50124648  0.70364768  1
  F  F444  1  0.21095394  0.25144795  0.20371275  1
  F  F445  1  0.21469689  0.25183877  0.70811311  1
  F  F446  1  0.21222138  0.74899295  0.20036356  1
  F  F447  1  0.21149923  0.75354409  0.70185283  1
  F  F448  1  0.54382090  0.25110499  0.20179226  1
  F  F449  1  0.53687387  0.24863844  0.69917099  1
  F  F450  1  0.54321098  0.74945940  0.19718340  1
  F  F451  1  0.54441638  0.75068968  0.70093805  1
  F  F452  1  0.87722304  0.24386368  0.20222880  1
  F  F453  1  0.88659752  0.23870281  0.70543439  1
  F  F454  1  0.88055292  0.74943265  0.20083694  1
  F  F455  1  0.88122626  0.75255367  0.70619225  1
  F  F456  1  0.28925127  -0.00293957  0.29566148  1
  F  F457  1  0.29046739  -0.00006870  0.80034616  1
  F  F458  1  0.29002131  0.50208411  0.29838680  1
  F  F459  1  0.28816110  0.50259947  0.80251923  1
  F  F460  1  0.61882471  0.00235094  0.29637630  1
  F  F461  1  0.61772887  0.00486271  0.80547715  1
  F  F462  1  0.61923125  0.50125364  0.29503655  1
  F  F463  1  0.63314532  0.50286391  0.80230077  1
  F  F464  1  0.95793798  -0.00287518  0.29784426  1
  F  F465  1  0.95699691  -0.00192918  0.79868168  1
  F  F466  1  0.95597397  0.50377860  0.29914202  1
  F  F467  1  0.95863118  0.50146642  0.80509175  1
  F  F468  1  0.12320039  0.25217115  0.30027366  1
  F  F469  1  0.12800931  0.24948893  0.80414325  1
  F  F470  1  0.12312821  0.74935568  0.29756607  1
  F  F471  1  0.11931713  0.76271211  0.80540857  1
  F  F472  1  0.45363204  0.25064576  0.29768392  1
  F  F473  1  0.45389672  0.25067646  0.80544813  1
  F  F474  1  0.45572711  0.74974369  0.29334206  1
  F  F475  1  0.45250361  0.75142158  0.79569367  1
  F  F476  1  0.78366079  0.24486367  0.30053345  1
  F  F477  1  0.81643050  0.23402349  0.82880967  1
  F  F478  1  0.78818941  0.75204708  0.29526508  1
  F  F479  1  0.78887040  0.75324512  0.80152700  1
