# generated using pymatgen
data_K24Na3Li5Mg64Fe17Si79(O5F)48
_symmetry_space_group_name_H-M   'P 1'
_cell_length_a   16.10263420
_cell_length_b   18.58689270
_cell_length_c   20.55136006
_cell_angle_alpha   90.00752672
_cell_angle_beta   99.99938451
_cell_angle_gamma   89.98459125
_symmetry_Int_Tables_number   1
_chemical_formula_structural   K24Na3Li5Mg64Fe17Si79(O5F)48
_chemical_formula_sum   'K24 Na3 Li5 Mg64 Fe17 Si79 O240 F48'
_cell_volume   6057.54363967
_cell_formula_units_Z   1
loop_
 _symmetry_equiv_pos_site_id
 _symmetry_equiv_pos_as_xyz
  1  'x, y, z'
loop_
 _atom_site_type_symbol
 _atom_site_label
 _atom_site_symmetry_multiplicity
 _atom_site_fract_x
 _atom_site_fract_y
 _atom_site_fract_z
 _atom_site_occupancy
  K  K0  1  0.00904485  -0.00556877  -0.00852622  1
  K  K1  1  0.00438608  -0.00574541  0.51349723  1
  K  K2  1  -0.00124344  0.50862011  -0.00148300  1
  K  K3  1  0.00255531  0.50612958  0.49291616  1
  K  K4  1  0.33098315  0.00653210  -0.00891637  1
  K  K5  1  0.33112661  0.00561725  0.51066115  1
  K  K6  1  0.32054176  0.49856530  -0.00204000  1
  K  K7  1  0.33142592  0.50145035  0.50271925  1
  K  K8  1  0.65135569  -0.00277234  -0.01391407  1
  K  K9  1  0.66487294  0.00429042  0.50642815  1
  K  K10  1  0.66856813  0.49750857  0.00312976  1
  K  K11  1  0.67238052  0.49873207  0.50206167  1
  K  K12  1  0.17673843  0.25439059  -0.00085835  1
  K  K13  1  0.16896763  0.25314295  0.50031221  1
  K  K14  1  0.16031982  0.75154944  -0.00517962  1
  K  K15  1  0.17215878  0.75446805  0.50813062  1
  K  K16  1  0.48359973  0.24777529  -0.00542988  1
  K  K17  1  0.50538908  0.24349918  0.50277467  1
  K  K18  1  0.50785524  0.75265230  -0.00560120  1
  K  K19  1  0.49514911  0.74776756  0.50735282  1
  K  K20  1  0.83424343  0.25099512  -0.00569537  1
  K  K21  1  0.82777047  0.24353671  0.50064963  1
  K  K22  1  0.82848586  0.74819689  -0.00561588  1
  K  K23  1  0.83419129  0.75201099  0.50063706  1
  Na  Na24  1  0.83777885  0.50157344  0.25957146  1
  Na  Na25  1  0.00684546  0.07709325  0.75086889  1
  Na  Na26  1  0.66586675  0.08011370  0.74376107  1
  Li  Li27  1  0.16937624  -0.00353596  0.75353503  1
  Li  Li28  1  0.00038409  0.75007062  0.25077303  1
  Li  Li29  1  0.83457143  0.32857156  0.75172832  1
  Li  Li30  1  0.16665090  0.16759104  0.24757587  1
  Li  Li31  1  0.33399554  0.41868595  0.75046198  1
  Mg  Mg32  1  0.67014142  0.74915637  0.25686737  1
  Mg  Mg33  1  -0.00050402  0.24818363  0.75126351  1
  Mg  Mg34  1  0.33170883  0.75119058  0.24393260  1
  Mg  Mg35  1  -0.00163215  0.75045116  0.75099812  1
  Mg  Mg36  1  0.49826997  0.49884107  0.74810893  1
  Mg  Mg37  1  0.16570769  0.00139986  0.24549924  1
  Mg  Mg38  1  0.33162856  0.24951422  0.24726968  1
  Mg  Mg39  1  0.83368382  -0.00037466  0.74993394  1
  Mg  Mg40  1  0.16616037  0.50048625  0.24760550  1
  Mg  Mg41  1  0.66293540  0.74812336  0.75151611  1
  Mg  Mg42  1  0.16638356  0.49994722  0.74985258  1
  Mg  Mg43  1  0.49982201  0.49989651  0.24888563  1
  Mg  Mg44  1  0.50004279  0.00044224  0.25146626  1
  Mg  Mg45  1  0.66672772  0.25023142  0.25519882  1
  Mg  Mg46  1  0.83168293  0.49640281  0.75350067  1
  Mg  Mg47  1  0.83480773  -0.00086322  0.25588932  1
  Mg  Mg48  1  0.00379346  0.25027872  0.25301932  1
  Mg  Mg49  1  0.49815543  0.00061847  0.74778819  1
  Mg  Mg50  1  0.33265957  0.74700146  0.74664162  1
  Mg  Mg51  1  0.33153075  0.25442474  0.74739923  1
  Mg  Mg52  1  0.66893352  0.24739259  0.74731347  1
  Mg  Mg53  1  0.32969770  0.58455169  0.24516552  1
  Mg  Mg54  1  0.00068548  0.91477474  0.25062986  1
  Mg  Mg55  1  0.83826106  0.83432199  0.25620560  1
  Mg  Mg56  1  0.16750903  0.33250709  0.24904483  1
  Mg  Mg57  1  0.83903789  0.66766031  0.25656737  1
  Mg  Mg58  1  0.67074945  0.58400761  0.25531595  1
  Mg  Mg59  1  0.66663827  0.58268687  0.75107553  1
  Mg  Mg60  1  0.66902305  0.08492167  0.25643620  1
  Mg  Mg61  1  0.33365645  0.58146924  0.74932732  1
  Mg  Mg62  1  0.50066492  0.83428139  0.24982644  1
  Mg  Mg63  1  0.50087886  0.16602428  0.25092774  1
  Mg  Mg64  1  0.66908808  0.41733114  0.25429157  1
  Mg  Mg65  1  0.33035170  0.91662834  0.74881542  1
  Mg  Mg66  1  -0.00290138  0.41432985  0.75082406  1
  Mg  Mg67  1  0.49970763  0.66405292  0.75001883  1
  Mg  Mg68  1  0.32950814  0.91664674  0.24422141  1
  Mg  Mg69  1  0.16744207  0.83523356  0.74814088  1
  Mg  Mg70  1  0.67093935  0.91574324  0.25577289  1
  Mg  Mg71  1  0.66427162  0.91503797  0.74933193  1
  Mg  Mg72  1  0.00381496  0.41739851  0.25396995  1
  Mg  Mg73  1  0.49769609  0.16585912  0.74597132  1
  Mg  Mg74  1  0.67025970  0.41278779  0.75117513  1
  Mg  Mg75  1  0.83551204  0.16543231  0.25516138  1
  Mg  Mg76  1  0.83060872  0.66378355  0.75379182  1
  Mg  Mg77  1  0.00229779  0.91670464  0.74684240  1
  Mg  Mg78  1  0.83645621  0.33438819  0.25580219  1
  Mg  Mg79  1  0.00201250  0.58629041  0.25359517  1
  Mg  Mg80  1  0.16825495  0.16523382  0.74794093  1
  Mg  Mg81  1  0.16824969  0.33544288  0.75084616  1
  Mg  Mg82  1  0.16735408  0.66552326  0.74852659  1
  Mg  Mg83  1  0.32768734  0.08532022  0.74680267  1
  Mg  Mg84  1  0.32893299  0.08504859  0.24621293  1
  Mg  Mg85  1  0.50010043  0.66611469  0.25051567  1
  Mg  Mg86  1  0.83536369  0.16744841  0.74906818  1
  Mg  Mg87  1  0.16247176  0.83450290  0.24475234  1
  Mg  Mg88  1  0.00263246  0.08511671  0.25010729  1
  Mg  Mg89  1  0.49822562  0.33416973  0.25016833  1
  Mg  Mg90  1  0.33089071  0.41436467  0.24666506  1
  Mg  Mg91  1  0.83199644  0.83412098  0.75258449  1
  Mg  Mg92  1  0.16319124  0.66762449  0.24627363  1
  Mg  Mg93  1  -0.00164158  0.58381697  0.75281244  1
  Mg  Mg94  1  0.49906308  0.33398856  0.74775172  1
  Mg  Mg95  1  0.49902548  0.83352026  0.74628591  1
  Fe  Fe96  1  0.18613134  0.58751383  0.10704856  1
  Fe  Fe97  1  0.81301281  0.58743369  0.39732111  1
  Fe  Fe98  1  0.31093235  0.66115146  0.88808091  1
  Fe  Fe99  1  0.14624594  0.91090076  0.88840192  1
  Fe  Fe100  1  0.63962704  0.16716377  0.39307661  1
  Fe  Fe101  1  0.35731934  0.66054113  0.60750086  1
  Fe  Fe102  1  0.64115257  0.83776048  0.88933686  1
  Fe  Fe103  1  0.35982839  0.33312646  0.10841945  1
  Fe  Fe104  1  0.14508717  0.08297378  0.89221634  1
  Fe  Fe105  1  0.63632997  0.66452340  0.89228953  1
  Fe  Fe106  1  0.81286383  0.91286982  0.39548978  1
  Fe  Fe107  1  0.52013000  0.08467744  0.60491387  1
  Fe  Fe108  1  0.18706719  0.91462315  0.10540207  1
  Fe  Fe109  1  0.18923122  0.92278839  0.60879963  1
  Fe  Fe110  1  0.14573148  0.41704940  0.39011603  1
  Fe  Fe111  1  0.80482732  0.57497897  0.89269084  1
  Fe  Fe112  1  0.30749578  0.17490258  0.88802391  1
  Si  Si113  1  0.01772861  0.66921586  0.11355436  1
  Si  Si114  1  0.64152053  0.16430918  0.88245781  1
  Si  Si115  1  0.80863669  0.92255274  0.88713291  1
  Si  Si116  1  0.02006712  0.33316901  0.61393080  1
  Si  Si117  1  0.85942872  0.58208327  0.61616114  1
  Si  Si118  1  0.96900281  0.66870537  0.88718320  1
  Si  Si119  1  0.13477053  0.58580300  0.88640072  1
  Si  Si120  1  0.97496996  0.33146697  0.39038676  1
  Si  Si121  1  0.35363192  0.17608509  0.60664425  1
  Si  Si122  1  0.47217344  0.57640407  0.88782676  1
  Si  Si123  1  0.98305315  0.83298490  0.38891313  1
  Si  Si124  1  0.13914356  0.41932056  0.88527162  1
  Si  Si125  1  0.69333161  0.16767408  0.11768632  1
  Si  Si126  1  0.31151438  0.34409679  0.88467607  1
  Si  Si127  1  0.85775594  0.08402625  0.11661821  1
  Si  Si128  1  0.30524513  0.83574359  0.38143011  1
  Si  Si129  1  0.48252952  0.41675546  0.88314163  1
  Si  Si130  1  0.36581463  0.66677102  0.11101985  1
  Si  Si131  1  0.14161735  0.08334552  0.38284153  1
  Si  Si132  1  0.46736086  0.91878474  0.88312564  1
  Si  Si133  1  0.86242969  0.41580258  0.11946129  1
  Si  Si134  1  0.01763769  0.83175894  0.11324401  1
  Si  Si135  1  0.81053240  0.41173061  0.39103277  1
  Si  Si136  1  0.97954653  0.32883726  0.88593952  1
  Si  Si137  1  0.86011464  0.08184793  0.61476385  1
  Si  Si138  1  0.86126469  0.58290339  0.11948051  1
  Si  Si139  1  0.69793331  0.83230008  0.11904557  1
  Si  Si140  1  0.69586220  0.66649676  0.61435580  1
  Si  Si141  1  0.69324439  0.33259386  0.61406099  1
  Si  Si142  1  0.69798394  0.66782468  0.11932095  1
  Si  Si143  1  0.63463834  0.83255482  0.39020250  1
  Si  Si144  1  0.69774547  0.33329101  0.11890612  1
  Si  Si145  1  0.98340526  0.67027450  0.39006062  1
  Si  Si146  1  0.02157643  0.33174312  0.11496700  1
  Si  Si147  1  0.46571909  0.58489284  0.38386947  1
  Si  Si148  1  0.02195900  0.66506292  0.61456796  1
  Si  Si149  1  0.31333088  0.82693004  0.88490232  1
  Si  Si150  1  0.18801233  0.09413722  0.60691778  1
  Si  Si151  1  0.52790352  0.41429905  0.61252185  1
  Si  Si152  1  0.53415659  0.91566420  0.11668743  1
  Si  Si153  1  0.47209331  0.41961812  0.38509722  1
  Si  Si154  1  0.63468359  0.66535481  0.39094565  1
  Si  Si155  1  0.30617259  0.16362319  0.38129980  1
  Si  Si156  1  0.14624310  0.58737901  0.38702309  1
  Si  Si157  1  0.85765454  0.91563959  0.61498628  1
  Si  Si158  1  0.97235763  0.16711102  0.88778368  1
  Si  Si159  1  0.97936963  0.16687063  0.38729910  1
  Si  Si160  1  0.46773668  0.08060265  0.38544298  1
  Si  Si161  1  0.02125751  0.16862197  0.11564475  1
  Si  Si162  1  0.53287328  0.41839374  0.11442529  1
  Si  Si163  1  0.81614418  0.08392151  0.39298725  1
  Si  Si164  1  0.35618472  0.34087528  0.61376526  1
  Si  Si165  1  0.18378696  0.57876470  0.61012410  1
  Si  Si166  1  0.52896724  0.08080272  0.11626610  1
  Si  Si167  1  0.52611210  0.91263542  0.60916447  1
  Si  Si168  1  0.53353964  0.58504598  0.11725942  1
  Si  Si169  1  0.69888239  0.16920202  0.60959010  1
  Si  Si170  1  0.30531138  0.67291403  0.38158290  1
  Si  Si171  1  0.81162524  0.08671868  0.88365362  1
  Si  Si172  1  0.85740048  0.41853483  0.61640736  1
  Si  Si173  1  0.35846705  0.83341213  0.60815628  1
  Si  Si174  1  0.64042789  0.33982406  0.39025111  1
  Si  Si175  1  0.18480501  0.41492697  0.10880348  1
  Si  Si176  1  0.46919132  0.91593971  0.38322817  1
  Si  Si177  1  0.81190048  0.40788327  0.88868521  1
  Si  Si178  1  0.02260418  0.17081211  0.61400110  1
  Si  Si179  1  0.14221032  0.91957863  0.38402311  1
  Si  Si180  1  0.85914149  0.91934060  0.11676743  1
  Si  Si181  1  0.36581171  0.83449043  0.11028977  1
  Si  Si182  1  0.64238761  0.32764028  0.88547809  1
  Si  Si183  1  0.97077164  0.83473421  0.88593239  1
  Si  Si184  1  0.02081318  0.83017002  0.61160297  1
  Si  Si185  1  0.35901312  0.16030006  0.11195662  1
  Si  Si186  1  0.18594313  0.08604058  0.11254881  1
  Si  Si187  1  0.31263422  0.32761637  0.38725707  1
  Si  Si188  1  0.69434049  0.83138392  0.61437155  1
  Si  Si189  1  0.47429954  0.08551800  0.88465706  1
  Si  Si190  1  0.53174306  0.57955071  0.60997127  1
  Si  Si191  1  0.18393650  0.41522758  0.61441822  1
  O  O192  1  0.27106039  0.11613304  0.08602626  1
  O  O193  1  0.26151471  0.13933378  0.57601537  1
  O  O194  1  0.28448900  0.62148106  0.07751035  1
  O  O195  1  0.25888934  0.60657345  0.57391894  1
  O  O196  1  0.60507350  0.12465738  0.08819436  1
  O  O197  1  0.61328208  0.12932078  0.57532697  1
  O  O198  1  0.61196630  0.62331621  0.08913332  1
  O  O199  1  0.61225504  0.61938180  0.58309551  1
  O  O200  1  0.93678645  0.11907666  0.08619812  1
  O  O201  1  0.94031693  0.11902723  0.58666365  1
  O  O202  1  0.93770591  0.61440334  0.08451159  1
  O  O203  1  0.93764987  0.61700934  0.58561305  1
  O  O204  1  0.10287098  0.35983941  0.08503405  1
  O  O205  1  0.10169383  0.36435999  0.58349549  1
  O  O206  1  0.09507825  0.85255816  0.07614765  1
  O  O207  1  0.09310961  0.86406097  0.57559283  1
  O  O208  1  0.45181195  0.37589473  0.07656244  1
  O  O209  1  0.43329353  0.38145588  0.58312895  1
  O  O210  1  0.45001731  0.87028408  0.08605074  1
  O  O211  1  0.44585120  0.85986108  0.58169807  1
  O  O212  1  0.77811186  0.36704851  0.08942390  1
  O  O213  1  0.76752830  0.37873948  0.58586903  1
  O  O214  1  0.77479062  0.87092932  0.08930180  1
  O  O215  1  0.76965499  0.87254185  0.58399235  1
  O  O216  1  0.26076320  0.38331200  0.07423203  1
  O  O217  1  0.26798913  0.38574924  0.58604682  1
  O  O218  1  0.28525933  0.88003694  0.07629260  1
  O  O219  1  0.28325147  0.88701758  0.57453453  1
  O  O220  1  0.61658407  0.38319213  0.08891614  1
  O  O221  1  0.60004891  0.36795312  0.58198258  1
  O  O222  1  0.61248486  0.87771920  0.08822652  1
  O  O223  1  0.60667206  0.87208151  0.58293370  1
  O  O224  1  0.93966492  0.38288316  0.08513355  1
  O  O225  1  0.93513196  0.38152550  0.58512518  1
  O  O226  1  0.93712849  0.88660422  0.08514144  1
  O  O227  1  0.93128778  0.87358494  0.58374129  1
  O  O228  1  0.10523326  0.14182661  0.08756090  1
  O  O229  1  0.10042198  0.14120851  0.57944873  1
  O  O230  1  0.09434709  0.64881894  0.07490372  1
  O  O231  1  0.09856361  0.62804760  0.58312798  1
  O  O232  1  0.43742634  0.11569072  0.08607470  1
  O  O233  1  0.42285737  0.13893782  0.56866571  1
  O  O234  1  0.44943837  0.63089904  0.08660025  1
  O  O235  1  0.44739789  0.61793843  0.57157057  1
  O  O236  1  0.77154101  0.13066305  0.08731419  1
  O  O237  1  0.77712219  0.12883137  0.58027484  1
  O  O238  1  0.77491453  0.62884666  0.09010855  1
  O  O239  1  0.77514007  0.62915961  0.58582451  1
  O  O240  1  0.06125262  0.11526731  0.41437741  1
  O  O241  1  0.04213949  0.11005992  0.92012717  1
  O  O242  1  0.06492943  0.61738792  0.41763862  1
  O  O243  1  0.05075873  0.61650955  0.91312494  1
  O  O244  1  0.37989904  0.10496496  0.41058912  1
  O  O245  1  0.40734937  0.12310788  0.92371029  1
  O  O246  1  0.38627399  0.62164069  0.41192790  1
  O  O247  1  0.38383634  0.58345007  0.91541944  1
  O  O248  1  0.73752726  0.11402443  0.42499884  1
  O  O249  1  0.72607110  0.11553956  0.91070047  1
  O  O250  1  0.71399189  0.61990260  0.42876318  1
  O  O251  1  0.71338630  0.59654981  0.93104347  1
  O  O252  1  0.23860925  0.35664673  0.42438820  1
  O  O253  1  0.23092203  0.38248280  0.91334028  1
  O  O254  1  0.22477887  0.86829771  0.41102529  1
  O  O255  1  0.22935679  0.84048974  0.91659493  1
  O  O256  1  0.56371409  0.38503726  0.41636254  1
  O  O257  1  0.56137366  0.36166546  0.91483872  1
  O  O258  1  0.54803244  0.86370404  0.41380563  1
  O  O259  1  0.54493409  0.87147111  0.92184079  1
  O  O260  1  0.88607528  0.35176888  0.41663403  1
  O  O261  1  0.89433323  0.35476563  0.91391893  1
  O  O262  1  0.90537741  0.85238008  0.42677395  1
  O  O263  1  0.88636609  0.86572529  0.91343650  1
  O  O264  1  0.04962937  0.38435926  0.42426699  1
  O  O265  1  0.06309424  0.37896430  0.91638373  1
  O  O266  1  0.06312686  0.88848497  0.41579767  1
  O  O267  1  0.04838574  0.88259538  0.92123403  1
  O  O268  1  0.39982593  0.37450601  0.41482568  1
  O  O269  1  0.39566676  0.39536132  0.91042478  1
  O  O270  1  0.38643424  0.88629380  0.41152135  1
  O  O271  1  0.38084327  0.89367544  0.90935941  1
  O  O272  1  0.72577238  0.38614841  0.42053138  1
  O  O273  1  0.73019875  0.37022698  0.91665155  1
  O  O274  1  0.71406342  0.87932231  0.42569848  1
  O  O275  1  0.72995775  0.90273884  0.92280710  1
  O  O276  1  0.22206900  0.13637045  0.41044264  1
  O  O277  1  0.22440522  0.14754152  0.93356650  1
  O  O278  1  0.22366641  0.64580675  0.41173447  1
  O  O279  1  0.21255043  0.63423824  0.92125176  1
  O  O280  1  0.54348903  0.13026135  0.42200930  1
  O  O281  1  0.56659089  0.12478198  0.91397549  1
  O  O282  1  0.54919406  0.63163258  0.41521878  1
  O  O283  1  0.53595412  0.63804790  0.92215283  1
  O  O284  1  0.89702696  0.13971612  0.41680324  1
  O  O285  1  0.88457595  0.14454082  0.91656806  1
  O  O286  1  0.90762652  0.64717351  0.42905091  1
  O  O287  1  0.89335764  0.64039370  0.92238680  1
  O  O288  1  0.15861486  0.00952590  0.07831838  1
  O  O289  1  0.17474094  0.01645986  0.57085555  1
  O  O290  1  0.15629535  0.49334772  0.07756768  1
  O  O291  1  0.16017311  0.49564241  0.58300764  1
  O  O292  1  0.52905789  -0.00174203  0.08710203  1
  O  O293  1  0.51237368  -0.01094043  0.57105325  1
  O  O294  1  0.52785622  0.50280171  0.08844718  1
  O  O295  1  0.53244634  0.49555129  0.58185529  1
  O  O296  1  0.84127222  0.00189479  0.08790851  1
  O  O297  1  0.84954363  -0.00153290  0.58503531  1
  O  O298  1  0.84378553  0.49884704  0.09331113  1
  O  O299  1  0.84515078  0.50064181  0.58528256  1
  O  O300  1  -0.00246163  0.25011126  0.08579245  1
  O  O301  1  -0.00055771  0.25237687  0.58235666  1
  O  O302  1  -0.01755179  0.75058034  0.09044285  1
  O  O303  1  0.00372348  0.74587243  0.58376905  1
  O  O304  1  0.35339502  0.23777687  0.07669579  1
  O  O305  1  0.34368580  0.26105527  0.57948571  1
  O  O306  1  0.36187064  0.75054919  0.08443939  1
  O  O307  1  0.33909009  0.75411708  0.57418586  1
  O  O308  1  0.68328428  0.25068287  0.08920089  1
  O  O309  1  0.69563887  0.25306131  0.58005855  1
  O  O310  1  0.68748848  0.75020447  0.08954116  1
  O  O311  1  0.68686705  0.74855083  0.58351152  1
  O  O312  1  0.16313028  0.00166763  0.41310457  1
  O  O313  1  0.17774692  -0.00443716  0.93159210  1
  O  O314  1  0.17449625  0.51096168  0.42182090  1
  O  O315  1  0.14436970  0.50172435  0.91414204  1
  O  O316  1  0.48787834  -0.00276139  0.41165407  1
  O  O317  1  0.48689718  0.00178003  0.91104144  1
  O  O318  1  0.47331847  0.50265038  0.41385505  1
  O  O319  1  0.51303270  0.49597820  0.91299539  1
  O  O320  1  0.84635696  0.00617697  0.42399230  1
  O  O321  1  0.83726394  0.00556453  0.91352011  1
  O  O322  1  0.83896362  0.48956237  0.42260111  1
  O  O323  1  0.83600171  0.48222546  0.92792001  1
  O  O324  1  0.33408664  0.24348559  0.41240658  1
  O  O325  1  0.33159247  0.26897791  0.92295872  1
  O  O326  1  0.32681052  0.75446644  0.41126730  1
  O  O327  1  0.35638087  0.75178682  0.91541862  1
  O  O328  1  0.64960463  0.26219217  0.42560769  1
  O  O329  1  0.65623289  0.24553380  0.91644721  1
  O  O330  1  0.64228191  0.74918488  0.41799200  1
  O  O331  1  0.67121722  0.75179968  0.93182067  1
  O  O332  1  1.00069549  0.24830689  0.41632137  1
  O  O333  1  0.99902373  0.24875219  0.91882050  1
  O  O334  1  1.01744092  0.75207127  0.41315587  1
  O  O335  1  0.98927912  0.75142493  0.91374635  1
  O  O336  1  0.20847868  0.08243578  0.19281572  1
  O  O337  1  0.21148146  0.09219032  0.68627570  1
  O  O338  1  0.21047358  0.58464137  0.19905607  1
  O  O339  1  0.20310718  0.58067217  0.69061079  1
  O  O340  1  0.54592610  0.08116593  0.19659865  1
  O  O341  1  0.53088896  0.08332417  0.69459703  1
  O  O342  1  0.54617292  0.58481441  0.19802645  1
  O  O343  1  0.54475969  0.57957008  0.69042298  1
  O  O344  1  0.87510359  0.08457469  0.19721137  1
  O  O345  1  0.86886524  0.08208600  0.69350406  1
  O  O346  1  0.88263547  0.59001215  0.19834148  1
  O  O347  1  0.87721616  0.58218869  0.69618101  1
  O  O348  1  0.04053666  0.33169366  0.19523050  1
  O  O349  1  0.04042377  0.33506331  0.69399840  1
  O  O350  1  0.04144366  0.83814153  0.19330481  1
  O  O351  1  0.03878770  0.82774635  0.69194115  1
  O  O352  1  0.37922316  0.33329519  0.20048818  1
  O  O353  1  0.37812498  0.33563814  0.69302875  1
  O  O354  1  0.38029386  0.83453486  0.19192814  1
  O  O355  1  0.37607334  0.83232819  0.68960135  1
  O  O356  1  0.71259942  0.33218172  0.19927869  1
  O  O357  1  0.70608150  0.33311445  0.69346793  1
  O  O358  1  0.71095301  0.83295985  0.19923115  1
  O  O359  1  0.71183986  0.82950366  0.69430231  1
  O  O360  1  0.20923373  0.41556581  0.19037972  1
  O  O361  1  0.19965176  0.41699364  0.69371104  1
  O  O362  1  0.20984938  0.91670069  0.19763463  1
  O  O363  1  0.21358280  0.91395274  0.69807716  1
  O  O364  1  0.54542068  0.41630174  0.19560164  1
  O  O365  1  0.54548840  0.41423270  0.69260736  1
  O  O366  1  0.54811203  0.91673492  0.19738283  1
  O  O367  1  0.54200423  0.91648085  0.68970736  1
  O  O368  1  0.88308940  0.40909351  0.19861479  1
  O  O369  1  0.87734023  0.41942139  0.69592179  1
  O  O370  1  0.87721143  0.91910695  0.19709423  1
  O  O371  1  0.87394255  0.91265927  0.69476448  1
  O  O372  1  0.03568389  0.16795254  0.19531862  1
  O  O373  1  0.04683703  0.17533059  0.69281097  1
  O  O374  1  0.04346329  0.66373522  0.19350261  1
  O  O375  1  0.04009209  0.66442641  0.69503391  1
  O  O376  1  0.37914131  0.16409990  0.19313969  1
  O  O377  1  0.37485148  0.17296364  0.68713189  1
  O  O378  1  0.37980159  0.66712725  0.19261107  1
  O  O379  1  0.37999424  0.66239590  0.69840237  1
  O  O380  1  0.71270108  0.16633510  0.19792923  1
  O  O381  1  0.71590385  0.17348506  0.68908497  1
  O  O382  1  0.71071651  0.66921641  0.19938493  1
  O  O383  1  0.71119221  0.66643453  0.69411973  1
  O  O384  1  0.12137943  0.08059040  0.30331346  1
  O  O385  1  0.13853572  0.08478111  0.80337988  1
  O  O386  1  0.12670204  0.58552026  0.30631482  1
  O  O387  1  0.12026788  0.58389636  0.80518013  1
  O  O388  1  0.45503214  0.08236215  0.30431109  1
  O  O389  1  0.45398968  0.08742546  0.80414289  1
  O  O390  1  0.45302347  0.58415570  0.30337752  1
  O  O391  1  0.45887944  0.57871309  0.80615552  1
  O  O392  1  0.79386359  0.08409553  0.31069298  1
  O  O393  1  0.79896235  0.08421996  0.80450615  1
  O  O394  1  0.78487448  0.59434722  0.30769097  1
  O  O395  1  0.78726794  0.57986007  0.79989053  1
  O  O396  1  0.29160591  0.33244766  0.30656435  1
  O  O397  1  0.28915081  0.33686050  0.80479896  1
  O  O398  1  0.29054844  0.83393446  0.30123623  1
  O  O399  1  0.29305782  0.82842684  0.80328889  1
  O  O400  1  0.62209669  0.33569970  0.30887427  1
  O  O401  1  0.62466526  0.33106001  0.80516653  1
  O  O402  1  0.62166569  0.83343384  0.30880819  1
  O  O403  1  0.61982295  0.83195461  0.79691718  1
  O  O404  1  0.95885300  0.33220228  0.30928967  1
  O  O405  1  0.96381003  0.33242345  0.80633234  1
  O  O406  1  0.95823709  0.83922058  0.30894898  1
  O  O407  1  0.95370624  0.83145527  0.80487109  1
  O  O408  1  0.12653088  0.41584983  0.29851040  1
  O  O409  1  0.12032026  0.41763770  0.80485708  1
  O  O410  1  0.12301659  0.91871299  0.30380539  1
  O  O411  1  0.11881034  0.91172009  0.79823947  1
  O  O412  1  0.45647912  0.41924347  0.30474661  1
  O  O413  1  0.46651574  0.41513274  0.80348197  1
  O  O414  1  0.45436424  0.91572657  0.30242026  1
  O  O415  1  0.45476551  0.91594365  0.80214447  1
  O  O416  1  0.78667159  0.40794371  0.31095837  1
  O  O417  1  0.78930656  0.41522484  0.80869099  1
  O  O418  1  0.78990410  0.91681649  0.30329621  1
  O  O419  1  0.78794455  0.91735096  0.80628590  1
  O  O420  1  0.29270457  0.16619963  0.30168690  1
  O  O421  1  0.29065907  0.17186031  0.79600426  1
  O  O422  1  0.29170894  0.67072714  0.30143083  1
  O  O423  1  0.28570059  0.66396868  0.79645497  1
  O  O424  1  0.62148636  0.16696391  0.30085386  1
  O  O425  1  0.61912164  0.17259976  0.80368900  1
  O  O426  1  0.61995095  0.66639195  0.30967154  1
  O  O427  1  0.62056025  0.66395934  0.79866082  1
  O  O428  1  0.95903044  0.16631742  0.30666903  1
  O  O429  1  0.95336142  0.17320394  0.80818406  1
  O  O430  1  0.95880201  0.66498131  0.31019295  1
  O  O431  1  0.95333312  0.66638930  0.80577215  1
  F  F432  1  0.04182920  0.00097739  0.20065364  1
  F  F433  1  0.03285330  -0.01342362  0.68390130  1
  F  F434  1  0.04359771  0.50123727  0.20129634  1
  F  F435  1  0.04174282  0.50043953  0.70356646  1
  F  F436  1  0.38109452  0.00032444  0.20029359  1
  F  F437  1  0.37717946  0.00088834  0.69935024  1
  F  F438  1  0.38029459  0.50036515  0.19996505  1
  F  F439  1  0.38056014  0.50146162  0.69898995  1
  F  F440  1  0.71186515  0.00292101  0.20542992  1
  F  F441  1  0.71677742  -0.01323942  0.69638231  1
  F  F442  1  0.70142097  0.49946414  0.20302993  1
  F  F443  1  0.71192157  0.49575927  0.69992737  1
  F  F444  1  0.21370253  0.25412291  0.19939682  1
  F  F445  1  0.21040847  0.25732204  0.69808487  1
  F  F446  1  0.21309031  0.75116836  0.19679174  1
  F  F447  1  0.20799006  0.74888203  0.69748920  1
  F  F448  1  0.54702592  0.25188120  0.20211942  1
  F  F449  1  0.54563349  0.25190768  0.69892325  1
  F  F450  1  0.54902272  0.75020104  0.20494564  1
  F  F451  1  0.54333532  0.74726863  0.69609382  1
  F  F452  1  0.87824913  0.24910258  0.20665239  1
  F  F453  1  0.88192667  0.24831406  0.69991388  1
  F  F454  1  0.87256998  0.75209825  0.20679755  1
  F  F455  1  0.87590447  0.74760099  0.70318560  1
  F  F456  1  0.28929022  0.00079126  0.29578483  1
  F  F457  1  0.29652279  0.00192610  0.79744186  1
  F  F458  1  0.29119708  0.49869413  0.29581083  1
  F  F459  1  0.28359485  0.50160548  0.79526438  1
  F  F460  1  0.62086281  -0.00041801  0.30103804  1
  F  F461  1  0.61494632  -0.00930642  0.79954108  1
  F  F462  1  0.61805831  0.50006907  0.30161675  1
  F  F463  1  0.62130972  0.49658161  0.79442259  1
  F  F464  1  0.95692620  0.00213454  0.29831484  1
  F  F465  1  0.94920404  -0.01216060  0.79952481  1
  F  F466  1  0.97244506  0.50016063  0.30556819  1
  F  F467  1  0.95428722  0.49896772  0.80006612  1
  F  F468  1  0.12160572  0.25257065  0.29901502  1
  F  F469  1  0.12251787  0.25308355  0.79688324  1
  F  F470  1  0.12882152  0.75197631  0.29520032  1
  F  F471  1  0.11917305  0.74767824  0.79477980  1
  F  F472  1  0.45578818  0.24844091  0.29816125  1
  F  F473  1  0.45428142  0.25128218  0.79421919  1
  F  F474  1  0.45285748  0.75081760  0.29591695  1
  F  F475  1  0.45552990  0.75089350  0.79379718  1
  F  F476  1  0.78858926  0.24829177  0.30158987  1
  F  F477  1  0.78507999  0.24655712  0.79846048  1
  F  F478  1  0.78787687  0.75341713  0.30500571  1
  F  F479  1  0.78645994  0.74927018  0.79868438  1
