# generated using pymatgen
data_K24Na3Li5Mg64Fe17Si79(O5F)48
_symmetry_space_group_name_H-M   'P 1'
_cell_length_a   16.08754995
_cell_length_b   18.57513989
_cell_length_c   20.54112794
_cell_angle_alpha   90.02139124
_cell_angle_beta   100.00986910
_cell_angle_gamma   89.97041193
_symmetry_Int_Tables_number   1
_chemical_formula_structural   K24Na3Li5Mg64Fe17Si79(O5F)48
_chemical_formula_sum   'K24 Na3 Li5 Mg64 Fe17 Si79 O240 F48'
_cell_volume   6044.83533644
_cell_formula_units_Z   1
loop_
 _symmetry_equiv_pos_site_id
 _symmetry_equiv_pos_as_xyz
  1  'x, y, z'
loop_
 _atom_site_type_symbol
 _atom_site_label
 _atom_site_symmetry_multiplicity
 _atom_site_fract_x
 _atom_site_fract_y
 _atom_site_fract_z
 _atom_site_occupancy
  K  K0  1  -0.00450258  -0.00089232  0.00789825  1
  K  K1  1  0.00437950  -0.00082549  0.49431449  1
  K  K2  1  -0.01225123  0.50341083  -0.00180983  1
  K  K3  1  -0.01742860  0.50103631  0.49493233  1
  K  K4  1  0.32560500  -0.01008837  0.00644236  1
  K  K5  1  0.32538937  0.00326891  0.49671906  1
  K  K6  1  0.33380572  0.49608862  -0.00220634  1
  K  K7  1  0.32942546  0.50004249  0.50219920  1
  K  K8  1  0.67012631  -0.00541399  -0.00338873  1
  K  K9  1  0.66876054  -0.00136800  0.50434243  1
  K  K10  1  0.67753216  0.49811254  0.00441290  1
  K  K11  1  0.67245921  0.49937351  0.50304642  1
  K  K12  1  0.15543316  0.25305230  -0.00516031  1
  K  K13  1  0.15607150  0.24200160  0.49846910  1
  K  K14  1  0.16746336  0.75198832  0.00222332  1
  K  K15  1  0.16320228  0.75279777  0.49875022  1
  K  K16  1  0.50623684  0.24848184  -0.00784528  1
  K  K17  1  0.50468278  0.24488544  0.50305656  1
  K  K18  1  0.50010344  0.75192808  0.00176154  1
  K  K19  1  0.50515107  0.75018343  0.49904179  1
  K  K20  1  0.84153486  0.25673825  -0.00133159  1
  K  K21  1  0.83568274  0.25042738  0.50546321  1
  K  K22  1  0.83454370  0.75214016  0.00039905  1
  K  K23  1  0.82686435  0.75576942  0.49362574  1
  Na  Na24  1  0.83236649  0.50214012  0.24153367  1
  Na  Na25  1  0.00163026  0.07834255  0.25422115  1
  Na  Na26  1  0.83840360  0.16612418  0.25297721  1
  Li  Li27  1  0.15891616  -0.00339305  0.25490681  1
  Li  Li28  1  0.33545368  0.24878848  0.75147514  1
  Li  Li29  1  0.83269742  0.83332718  0.25135332  1
  Li  Li30  1  0.83218032  0.33350403  0.74148991  1
  Li  Li31  1  0.66507504  0.08476985  0.74207608  1
  Mg  Mg32  1  0.83407730  -0.00322552  0.25354263  1
  Mg  Mg33  1  0.00069148  0.25081226  0.24945445  1
  Mg  Mg34  1  0.49608298  -0.00062545  0.24874360  1
  Mg  Mg35  1  0.16674199  0.49803945  0.75559869  1
  Mg  Mg36  1  0.33306777  0.75107158  0.75220613  1
  Mg  Mg37  1  0.50454678  0.00115244  0.74926588  1
  Mg  Mg38  1  0.66702355  0.75319497  0.25207249  1
  Mg  Mg39  1  0.83377097  0.49722466  0.74812800  1
  Mg  Mg40  1  -0.00383717  0.75054008  0.24752392  1
  Mg  Mg41  1  0.00025618  0.25160108  0.74779858  1
  Mg  Mg42  1  0.50010060  0.49804336  0.74596663  1
  Mg  Mg43  1  0.33245234  0.24996880  0.25136997  1
  Mg  Mg44  1  0.16700672  0.50259219  0.25126350  1
  Mg  Mg45  1  0.67056705  0.24757206  0.74356218  1
  Mg  Mg46  1  0.33297206  0.75021676  0.25128125  1
  Mg  Mg47  1  0.50131040  0.50027050  0.25077538  1
  Mg  Mg48  1  0.00000248  0.75042385  0.75626913  1
  Mg  Mg49  1  0.66865265  0.24791652  0.24538005  1
  Mg  Mg50  1  0.66493961  0.75038583  0.75130199  1
  Mg  Mg51  1  0.83053278  0.00276551  0.74873910  1
  Mg  Mg52  1  0.16927256  0.00261420  0.75250241  1
  Mg  Mg53  1  0.16638413  0.33510731  0.24883065  1
  Mg  Mg54  1  0.16841962  0.66561002  0.75703680  1
  Mg  Mg55  1  0.00091523  0.91761588  0.75442172  1
  Mg  Mg56  1  0.83623032  0.33363365  0.24619940  1
  Mg  Mg57  1  -0.00020952  0.08631927  0.74758402  1
  Mg  Mg58  1  -0.00268221  0.58531545  0.24566230  1
  Mg  Mg59  1  0.83172724  0.83539594  0.75448362  1
  Mg  Mg60  1  -0.00055475  0.41454953  0.75022369  1
  Mg  Mg61  1  0.33702389  0.08629124  0.75063460  1
  Mg  Mg62  1  0.66755398  0.91483370  0.25262757  1
  Mg  Mg63  1  0.66455511  0.58250565  0.74818553  1
  Mg  Mg64  1  0.66759275  0.41275838  0.74189736  1
  Mg  Mg65  1  0.50160211  0.83528691  0.75180985  1
  Mg  Mg66  1  0.33365419  0.41162272  0.75230935  1
  Mg  Mg67  1  0.66341510  0.91811292  0.75108153  1
  Mg  Mg68  1  -0.00071604  0.91565480  0.25333846  1
  Mg  Mg69  1  0.33591299  0.58535613  0.25193246  1
  Mg  Mg70  1  0.00051003  0.58476117  0.75527055  1
  Mg  Mg71  1  0.49847397  0.83424847  0.25076962  1
  Mg  Mg72  1  0.49956057  0.66424174  0.74950607  1
  Mg  Mg73  1  0.83112959  0.16782668  0.74573342  1
  Mg  Mg74  1  0.33630769  0.91610481  0.75425673  1
  Mg  Mg75  1  0.66644871  0.58513995  0.24638431  1
  Mg  Mg76  1  0.16967961  0.16882658  0.74982064  1
  Mg  Mg77  1  0.50313854  0.16639161  0.74736480  1
  Mg  Mg78  1  0.49905352  0.33023488  0.74755673  1
  Mg  Mg79  1  0.16822886  0.33289694  0.75158772  1
  Mg  Mg80  1  0.49999306  0.66490538  0.25205361  1
  Mg  Mg81  1  0.16602777  0.83681883  0.25173500  1
  Mg  Mg82  1  0.66908752  0.41554215  0.24386046  1
  Mg  Mg83  1  0.33577752  0.41685191  0.25146958  1
  Mg  Mg84  1  0.66834499  0.08169377  0.24885155  1
  Mg  Mg85  1  0.83084450  0.66958022  0.24461957  1
  Mg  Mg86  1  0.33008972  0.91639904  0.25093473  1
  Mg  Mg87  1  0.33339510  0.58233800  0.75153574  1
  Mg  Mg88  1  0.49892273  0.16532904  0.24777144  1
  Mg  Mg89  1  0.83437318  0.66584093  0.75212102  1
  Mg  Mg90  1  0.50214589  0.33319687  0.24932021  1
  Mg  Mg91  1  0.32642271  0.08332243  0.25287547  1
  Mg  Mg92  1  0.16849391  0.66799688  0.25004378  1
  Mg  Mg93  1  0.16950527  0.83523756  0.75540769  1
  Mg  Mg94  1  0.16356355  0.16427700  0.25320399  1
  Mg  Mg95  1  -0.00195118  0.41811926  0.24623281  1
  Fe  Fe96  1  0.97358562  0.66874436  0.89455354  1
  Fe  Fe97  1  0.69051116  0.16191454  0.60552132  1
  Fe  Fe98  1  0.85745871  0.59410685  0.10243279  1
  Fe  Fe99  1  0.85782314  0.42257590  0.60877034  1
  Fe  Fe100  1  0.85759621  0.41487924  0.10331999  1
  Fe  Fe101  1  0.51808680  0.91534774  0.60852931  1
  Fe  Fe102  1  0.30900322  0.83595396  0.89303101  1
  Fe  Fe103  1  0.97308680  0.17168245  0.39507234  1
  Fe  Fe104  1  0.64036942  0.82876646  0.89286150  1
  Fe  Fe105  1  0.52220349  0.58434120  0.60794284  1
  Fe  Fe106  1  0.14327573  0.07839657  0.39429562  1
  Fe  Fe107  1  0.30822633  0.66674985  0.39195193  1
  Fe  Fe108  1  0.02716546  0.16576969  0.61078168  1
  Fe  Fe109  1  0.35512988  0.82824905  0.11047136  1
  Fe  Fe110  1  0.47704690  0.57678340  0.39186254  1
  Fe  Fe111  1  0.64109545  0.83874345  0.39178976  1
  Fe  Fe112  1  0.14573640  0.41391790  0.89280305  1
  Si  Si113  1  0.13461950  0.58850335  0.38568583  1
  Si  Si114  1  0.69518497  0.66958922  0.61522473  1
  Si  Si115  1  0.19142603  0.08852106  0.11464437  1
  Si  Si116  1  0.02670038  0.83829349  0.11628309  1
  Si  Si117  1  0.85559740  0.07834950  0.11436167  1
  Si  Si118  1  0.51951388  0.08363252  0.11196498  1
  Si  Si119  1  0.14301170  0.42292747  0.38382263  1
  Si  Si120  1  0.31398087  0.16328733  0.88615520  1
  Si  Si121  1  0.81146469  0.08642521  0.88403055  1
  Si  Si122  1  0.03471097  0.67253166  0.11100682  1
  Si  Si123  1  0.13788780  0.92173395  0.88998715  1
  Si  Si124  1  0.35782515  0.65747428  0.11102097  1
  Si  Si125  1  0.52699310  0.41492327  0.11256369  1
  Si  Si126  1  0.30848278  0.17175506  0.38952125  1
  Si  Si127  1  0.86068737  0.59269639  0.61362178  1
  Si  Si128  1  0.69370348  0.83413345  0.61590931  1
  Si  Si129  1  0.86075557  0.91019638  0.61834016  1
  Si  Si130  1  0.47409482  0.92196410  0.89097751  1
  Si  Si131  1  0.19185996  0.57970773  0.61857880  1
  Si  Si132  1  0.97817184  0.34070070  0.38688445  1
  Si  Si133  1  0.52750963  0.58150636  0.11289390  1
  Si  Si134  1  0.48350517  0.40907603  0.38648982  1
  Si  Si135  1  0.97392507  0.84127898  0.89082350  1
  Si  Si136  1  0.31042378  0.83482101  0.38821524  1
  Si  Si137  1  0.64457084  0.16922742  0.88157387  1
  Si  Si138  1  0.14816219  0.58472000  0.89331011  1
  Si  Si139  1  0.80586318  0.41358060  0.87926306  1
  Si  Si140  1  0.47278031  0.08915909  0.38369187  1
  Si  Si141  1  0.68463004  0.33343221  0.60480011  1
  Si  Si142  1  0.47746691  0.41254909  0.88447774  1
  Si  Si143  1  0.80433892  0.41540587  0.37987790  1
  Si  Si144  1  0.68458308  0.67578140  0.10981436  1
  Si  Si145  1  0.35558230  0.17046225  0.11323338  1
  Si  Si146  1  0.80350311  0.08166435  0.38697899  1
  Si  Si147  1  0.64544856  0.32597785  0.38102845  1
  Si  Si148  1  0.81215024  0.91991023  0.38951469  1
  Si  Si149  1  0.63885473  0.65829119  0.88777811  1
  Si  Si150  1  0.51685837  0.08271634  0.60915004  1
  Si  Si151  1  0.30962903  0.33794291  0.38565480  1
  Si  Si152  1  0.35229891  0.82975270  0.61483718  1
  Si  Si153  1  0.19323654  0.57880215  0.11509319  1
  Si  Si154  1  0.19549461  0.41464641  0.61638294  1
  Si  Si155  1  0.02935002  0.33001282  0.11036664  1
  Si  Si156  1  0.68776964  0.32603477  0.10649272  1
  Si  Si157  1  0.51764779  0.41275348  0.60986460  1
  Si  Si158  1  0.20025178  0.08440522  0.61560902  1
  Si  Si159  1  0.02344363  0.16559786  0.11448710  1
  Si  Si160  1  0.48207323  0.08518896  0.88522816  1
  Si  Si161  1  0.19293316  0.91974758  0.61791328  1
  Si  Si162  1  0.68880283  0.83983675  0.11610156  1
  Si  Si163  1  0.14114893  0.90639621  0.39091971  1
  Si  Si164  1  0.96603111  0.66364187  0.38368564  1
  Si  Si165  1  0.35957831  0.33644399  0.11453905  1
  Si  Si166  1  0.47205682  0.57723004  0.88549691  1
  Si  Si167  1  0.14564413  0.08690028  0.88733976  1
  Si  Si168  1  0.80211176  0.57795589  0.88459998  1
  Si  Si169  1  0.03033871  0.83420559  0.61959262  1
  Si  Si170  1  0.64147541  0.16231781  0.38173692  1
  Si  Si171  1  0.97587016  0.16684532  0.88546711  1
  Si  Si172  1  0.02730567  0.33714058  0.61064476  1
  Si  Si173  1  0.19259939  0.41494302  0.11538498  1
  Si  Si174  1  0.03159851  0.66848646  0.61901762  1
  Si  Si175  1  0.46819017  0.92344502  0.38737633  1
  Si  Si176  1  0.18995642  0.92170621  0.11542905  1
  Si  Si177  1  0.35687387  0.33030166  0.61624846  1
  Si  Si178  1  0.31358323  0.32837831  0.88957841  1
  Si  Si179  1  0.64269033  0.66804824  0.38802294  1
  Si  Si180  1  0.97318054  0.82857411  0.38591872  1
  Si  Si181  1  0.52352986  0.91908750  0.11195019  1
  Si  Si182  1  0.31350200  0.66580561  0.88895891  1
  Si  Si183  1  0.97381006  0.33221021  0.88633411  1
  Si  Si184  1  0.35174803  0.66814050  0.61562906  1
  Si  Si185  1  0.36141410  0.16769405  0.61697820  1
  Si  Si186  1  0.80627420  0.92162097  0.88913602  1
  Si  Si187  1  0.68702803  0.16008531  0.11091493  1
  Si  Si188  1  0.64305258  0.33278041  0.88095369  1
  Si  Si189  1  0.85801511  0.91487308  0.11592852  1
  Si  Si190  1  0.86252584  0.07510294  0.60976766  1
  Si  Si191  1  0.79983021  0.58238306  0.38075628  1
  O  O192  1  0.26675200  0.12990532  0.08147595  1
  O  O193  1  0.28763743  0.10839939  0.58941254  1
  O  O194  1  0.27801360  0.60151817  0.08594144  1
  O  O195  1  0.27224358  0.61225230  0.58913248  1
  O  O196  1  0.59905146  0.11578988  0.07989043  1
  O  O197  1  0.59658454  0.10288000  0.57373993  1
  O  O198  1  0.59933500  0.62580792  0.08182739  1
  O  O199  1  0.62319777  0.61441189  0.58053244  1
  O  O200  1  0.93434999  0.12115035  0.08697444  1
  O  O201  1  0.94849757  0.09292534  0.58160183  1
  O  O202  1  0.95183657  0.63468588  0.07061214  1
  O  O203  1  0.94451349  0.62743076  0.58729774  1
  O  O204  1  0.11750349  0.35881797  0.08602085  1
  O  O205  1  0.11750828  0.36213923  0.58597651  1
  O  O206  1  0.09456475  0.88910942  0.08640749  1
  O  O207  1  0.10676150  0.87326752  0.58927753  1
  O  O208  1  0.43599994  0.37527779  0.08370595  1
  O  O209  1  0.43918121  0.35517325  0.58415799  1
  O  O210  1  0.44793105  0.86785431  0.07685748  1
  O  O211  1  0.42982689  0.84869294  0.57783032  1
  O  O212  1  0.75906314  0.35819180  0.06918542  1
  O  O213  1  0.76118977  0.36910060  0.57307938  1
  O  O214  1  0.77079498  0.87020488  0.08566164  1
  O  O215  1  0.78334364  0.85518284  0.59044332  1
  O  O216  1  0.27598241  0.38512872  0.08649543  1
  O  O217  1  0.27826982  0.38529652  0.58656761  1
  O  O218  1  0.25702984  0.88157463  0.07715719  1
  O  O219  1  0.27097142  0.88370100  0.58802608  1
  O  O220  1  0.59680220  0.36939002  0.08005921  1
  O  O221  1  0.59901256  0.38448354  0.57899178  1
  O  O222  1  0.61190278  0.89607512  0.08639110  1
  O  O223  1  0.62055028  0.88783364  0.58116193  1
  O  O224  1  0.95220585  0.37576364  0.07045784  1
  O  O225  1  0.95801051  0.39651431  0.57842241  1
  O  O226  1  0.93336512  0.87256088  0.08521808  1
  O  O227  1  0.94302039  0.87694359  0.58969644  1
  O  O228  1  0.09955301  0.12508510  0.08262095  1
  O  O229  1  0.12807705  0.13887090  0.58257437  1
  O  O230  1  0.11770305  0.63472413  0.08584927  1
  O  O231  1  0.10853995  0.62895808  0.58898791  1
  O  O232  1  0.43467440  0.13294487  0.08378825  1
  O  O233  1  0.44363693  0.14646345  0.58400306  1
  O  O234  1  0.43640116  0.61776155  0.08195056  1
  O  O235  1  0.43091142  0.64842042  0.58069332  1
  O  O236  1  0.76611686  0.12157193  0.08205891  1
  O  O237  1  0.78518680  0.12425650  0.57329119  1
  O  O238  1  0.75921951  0.65078393  0.07211762  1
  O  O239  1  0.78539968  0.65238273  0.59001122  1
  O  O240  1  0.05727021  0.11097155  0.43569266  1
  O  O241  1  0.06614019  0.12521572  0.91567736  1
  O  O242  1  0.04658981  0.61124494  0.41284478  1
  O  O243  1  0.06910984  0.61240259  0.92620688  1
  O  O244  1  0.39842032  0.12876512  0.41536472  1
  O  O245  1  0.40012066  0.11646698  0.91579690  1
  O  O246  1  0.38124083  0.59448453  0.42713039  1
  O  O247  1  0.38901082  0.60555112  0.91460252  1
  O  O248  1  0.71233212  0.10295522  0.41156974  1
  O  O249  1  0.73184577  0.12498516  0.91233537  1
  O  O250  1  0.72206097  0.61153379  0.41515818  1
  O  O251  1  0.71233877  0.59667921  0.90997987  1
  O  O252  1  0.23026206  0.37688345  0.41345386  1
  O  O253  1  0.24159013  0.35695662  0.92922465  1
  O  O254  1  0.22379782  0.85393610  0.41756324  1
  O  O255  1  0.21069313  0.86748102  0.92402020  1
  O  O256  1  0.55886321  0.34814087  0.40909591  1
  O  O257  1  0.56429216  0.36764825  0.91278365  1
  O  O258  1  0.54477902  0.87370372  0.42372591  1
  O  O259  1  0.54714582  0.86689646  0.92559331  1
  O  O260  1  0.89501013  0.37852755  0.41167848  1
  O  O261  1  0.88620695  0.36214635  0.90932942  1
  O  O262  1  0.89745745  0.86953857  0.41613770  1
  O  O263  1  0.89274128  0.87608394  0.91851463  1
  O  O264  1  0.06160108  0.39350632  0.41358248  1
  O  O265  1  0.05190206  0.37805675  0.92698625  1
  O  O266  1  0.06263781  0.86609301  0.42083709  1
  O  O267  1  0.04920857  0.90090996  0.91510379  1
  O  O268  1  0.39706526  0.38209634  0.41377439  1
  O  O269  1  0.40281677  0.37377229  0.91710360  1
  O  O270  1  0.37945751  0.90012209  0.41181431  1
  O  O271  1  0.38807132  0.90832662  0.92073271  1
  O  O272  1  0.72629607  0.37745067  0.41135832  1
  O  O273  1  0.72607785  0.38084845  0.91123639  1
  O  O274  1  0.73806948  0.89212272  0.42804686  1
  O  O275  1  0.73238545  0.89004816  0.92486444  1
  O  O276  1  0.23959670  0.13780351  0.42806182  1
  O  O277  1  0.23308950  0.13125329  0.91802695  1
  O  O278  1  0.20482622  0.64405969  0.42138138  1
  O  O279  1  0.22854953  0.64105218  0.91717984  1
  O  O280  1  0.55615161  0.13912278  0.41026004  1
  O  O281  1  0.56538671  0.13545050  0.91430197  1
  O  O282  1  0.56274509  0.64343933  0.42096113  1
  O  O283  1  0.55424104  0.62636061  0.91508593  1
  O  O284  1  0.86854832  0.14318292  0.41830671  1
  O  O285  1  0.89948740  0.12885904  0.91762983  1
  O  O286  1  0.88623620  0.62749457  0.41265897  1
  O  O287  1  0.87495520  0.63153433  0.92057949  1
  O  O288  1  0.18628886  0.00587242  0.08696634  1
  O  O289  1  0.17898107  0.00118442  0.58809795  1
  O  O290  1  0.16954323  0.49648123  0.08660751  1
  O  O291  1  0.17613468  0.49779791  0.58838045  1
  O  O292  1  0.50142062  0.00225002  0.08288923  1
  O  O293  1  0.47724973  0.00638435  0.57853346  1
  O  O294  1  0.52391768  0.49772739  0.08376539  1
  O  O295  1  0.48786820  0.49064002  0.57894488  1
  O  O296  1  0.84925617  -0.00370789  0.08024222  1
  O  O297  1  0.83839789  -0.01037942  0.58718830  1
  O  O298  1  0.83591543  0.50407434  0.06398238  1
  O  O299  1  0.83796711  0.51837926  0.57431626  1
  O  O300  1  0.01574661  0.24643553  0.08075562  1
  O  O301  1  -0.00005107  0.25897481  0.57858700  1
  O  O302  1  0.03474073  0.75736412  0.08560402  1
  O  O303  1  0.02521946  0.75161162  0.59010026  1
  O  O304  1  0.34758856  0.25403917  0.08457828  1
  O  O305  1  0.33044593  0.24874045  0.58853539  1
  O  O306  1  0.33741477  0.73395328  0.07487898  1
  O  O307  1  0.31464947  0.74866911  0.59251719  1
  O  O308  1  0.67043868  0.24171573  0.07976025  1
  O  O309  1  0.66322848  0.25498317  0.57061909  1
  O  O310  1  0.66012288  0.75976044  0.08538269  1
  O  O311  1  0.67021343  0.75181946  0.58850596  1
  O  O312  1  0.16048284  -0.01758746  0.42826966  1
  O  O313  1  0.15853854  0.00508936  0.91791053  1
  O  O314  1  0.15966691  0.50530713  0.41231481  1
  O  O315  1  0.17983788  0.50662839  0.92345656  1
  O  O316  1  0.48692808  0.00779461  0.41345269  1
  O  O317  1  0.50569383  0.00514225  0.91540770  1
  O  O318  1  0.51725930  0.48326534  0.42065996  1
  O  O319  1  0.48980054  0.49473574  0.91480474  1
  O  O320  1  0.83549159  0.00232944  0.41846272  1
  O  O321  1  0.82314829  0.00535377  0.91650682  1
  O  O322  1  0.81400329  0.49874963  0.40752847  1
  O  O323  1  0.82520176  0.49472577  0.91032906  1
  O  O324  1  0.32402804  0.25654232  0.41550900  1
  O  O325  1  0.33566213  0.24457567  0.91579228  1
  O  O326  1  0.34698488  0.75987564  0.42149777  1
  O  O327  1  0.34546474  0.74234816  0.92088575  1
  O  O328  1  0.66889969  0.24392758  0.40868778  1
  O  O329  1  0.65749716  0.25149859  0.91320036  1
  O  O330  1  0.67438853  0.74552848  0.41969284  1
  O  O331  1  0.66428867  0.73359138  0.92509630  1
  O  O332  1  0.99756375  0.26703011  0.42712089  1
  O  O333  1  0.98473701  0.24832681  0.91643906  1
  O  O334  1  0.97858608  0.74491377  0.41661048  1
  O  O335  1  0.99691789  0.76445049  0.92591033  1
  O  O336  1  0.21406232  0.09441196  0.19337337  1
  O  O337  1  0.21415179  0.08307073  0.69667215  1
  O  O338  1  0.21100150  0.58026221  0.19548204  1
  O  O339  1  0.20922277  0.58173243  0.69921069  1
  O  O340  1  0.53876908  0.08426505  0.19231389  1
  O  O341  1  0.53631564  0.08336263  0.69009807  1
  O  O342  1  0.54364892  0.58210447  0.19309093  1
  O  O343  1  0.54279190  0.58262556  0.70005462  1
  O  O344  1  0.86770753  0.07288258  0.19210811  1
  O  O345  1  0.87797492  0.08031615  0.69158422  1
  O  O346  1  0.88220721  0.59491655  0.19305496  1
  O  O347  1  0.87823842  0.58583626  0.69443737  1
  O  O348  1  0.04677818  0.33420736  0.19134888  1
  O  O349  1  0.04548922  0.33470675  0.69219066  1
  O  O350  1  0.04286388  0.83352297  0.19614258  1
  O  O351  1  0.04616079  0.83421882  0.70017038  1
  O  O352  1  0.37807062  0.33393584  0.19496124  1
  O  O353  1  0.37759902  0.33479365  0.69593513  1
  O  O354  1  0.37731489  0.83333269  0.20202860  1
  O  O355  1  0.37569786  0.83336819  0.69585689  1
  O  O356  1  0.70600008  0.33036071  0.18705316  1
  O  O357  1  0.70164590  0.33231449  0.68573610  1
  O  O358  1  0.70565987  0.83610728  0.19541167  1
  O  O359  1  0.71192809  0.83380141  0.69692245  1
  O  O360  1  0.21268455  0.41655161  0.19579868  1
  O  O361  1  0.21362000  0.41646407  0.69672439  1
  O  O362  1  0.21142650  0.91531822  0.19511148  1
  O  O363  1  0.20927979  0.91864011  0.69832658  1
  O  O364  1  0.54259468  0.41406014  0.19289580  1
  O  O365  1  0.53917194  0.41372904  0.69124382  1
  O  O366  1  0.53836485  0.91957156  0.19262153  1
  O  O367  1  0.54139670  0.91636719  0.70022049  1
  O  O368  1  0.88292063  0.40966637  0.19367085  1
  O  O369  1  0.88142477  0.41987965  0.69930270  1
  O  O370  1  0.87639609  0.91709640  0.19514875  1
  O  O371  1  0.87987970  0.91402705  0.69899483  1
  O  O372  1  0.04799637  0.17290311  0.19295988  1
  O  O373  1  0.04833095  0.16696205  0.70275046  1
  O  O374  1  0.04704529  0.66846112  0.19188980  1
  O  O375  1  0.04811210  0.66831912  0.69928143  1
  O  O376  1  0.37490777  0.16930436  0.19359829  1
  O  O377  1  0.38036509  0.16581815  0.69678157  1
  O  O378  1  0.37736622  0.66353990  0.19147251  1
  O  O379  1  0.37324503  0.66509891  0.69690434  1
  O  O380  1  0.69873337  0.16310014  0.19015800  1
  O  O381  1  0.71305050  0.16583575  0.69590704  1
  O  O382  1  0.70423509  0.66994597  0.19052856  1
  O  O383  1  0.71042108  0.66739416  0.69661523  1
  O  O384  1  0.13711513  0.08261767  0.30595975  1
  O  O385  1  0.12729784  0.08437538  0.80728823  1
  O  O386  1  0.12191344  0.58674117  0.30461295  1
  O  O387  1  0.12660844  0.58457134  0.81120602  1
  O  O388  1  0.45365115  0.08710096  0.30287019  1
  O  O389  1  0.46047776  0.08525905  0.80519501  1
  O  O390  1  0.45634045  0.58036201  0.29874471  1
  O  O391  1  0.45471502  0.57914969  0.80517464  1
  O  O392  1  0.78294474  0.07562309  0.30713326  1
  O  O393  1  0.79908183  0.08475525  0.80502126  1
  O  O394  1  0.78240266  0.59011814  0.30169041  1
  O  O395  1  0.78809194  0.58176382  0.80349810  1
  O  O396  1  0.29179376  0.33589917  0.30485007  1
  O  O397  1  0.29091632  0.33509013  0.80992221  1
  O  O398  1  0.28867723  0.83332612  0.30715735  1
  O  O399  1  0.28905975  0.83365655  0.80110333  1
  O  O400  1  0.62407061  0.33037833  0.30039000  1
  O  O401  1  0.62329349  0.33278394  0.80097229  1
  O  O402  1  0.61830950  0.83560057  0.29989845  1
  O  O403  1  0.62288365  0.83138307  0.80154816  1
  O  O404  1  0.96185394  0.33709891  0.30619402  1
  O  O405  1  0.96665584  0.33144904  0.80707383  1
  O  O406  1  0.95974378  0.82895884  0.30657211  1
  O  O407  1  0.95690029  0.83646409  0.80953018  1
  O  O408  1  0.12675675  0.41854849  0.30331490  1
  O  O409  1  0.12320766  0.41521228  0.80097266  1
  O  O410  1  0.12048891  0.90886272  0.31092347  1
  O  O411  1  0.12392935  0.91986042  0.80877458  1
  O  O412  1  0.46007011  0.41277637  0.30501198  1
  O  O413  1  0.45797221  0.41446897  0.80431429  1
  O  O414  1  0.45565461  0.92070463  0.30634807  1
  O  O415  1  0.45721196  0.91793017  0.80957711  1
  O  O416  1  0.78373327  0.41055813  0.30066417  1
  O  O417  1  0.78448181  0.41705237  0.80004814  1
  O  O418  1  0.78662382  0.91816177  0.30962016  1
  O  O419  1  0.79027251  0.91862168  0.80828454  1
  O  O420  1  0.29168095  0.17077834  0.30822009  1
  O  O421  1  0.29071958  0.16171617  0.80689787  1
  O  O422  1  0.28868571  0.66641036  0.29886183  1
  O  O423  1  0.29286104  0.66531944  0.80752771  1
  O  O424  1  0.62159117  0.16500576  0.30097522  1
  O  O425  1  0.62286853  0.17014519  0.80260303  1
  O  O426  1  0.62311345  0.66626224  0.30609308  1
  O  O427  1  0.62137023  0.66447796  0.80687501  1
  O  O428  1  0.96862763  0.17643057  0.30783614  1
  O  O429  1  0.95728768  0.16539733  0.80564902  1
  O  O430  1  0.95471283  0.66751568  0.30397338  1
  O  O431  1  0.95545271  0.66786888  0.80236141  1
  F  F432  1  0.04618709  -0.01336386  0.19886013  1
  F  F433  1  0.04816275  -0.00125173  0.70492779  1
  F  F434  1  0.04998659  0.50139800  0.19898614  1
  F  F435  1  0.04763422  0.50560832  0.70487230  1
  F  F436  1  0.37607694  0.00347282  0.20045279  1
  F  F437  1  0.37855210  -0.00061965  0.70617834  1
  F  F438  1  0.37921253  0.49543007  0.20033119  1
  F  F439  1  0.37597872  0.49791196  0.70310995  1
  F  F440  1  0.70840210  -0.00260235  0.20157907  1
  F  F441  1  0.71472800  -0.00565757  0.70121346  1
  F  F442  1  0.69495321  0.50027285  0.19197350  1
  F  F443  1  0.71102863  0.50106299  0.69874476  1
  F  F444  1  0.21522174  0.25289654  0.20220456  1
  F  F445  1  0.21259538  0.25147956  0.70462689  1
  F  F446  1  0.21072765  0.75271109  0.20091210  1
  F  F447  1  0.20855430  0.74783125  0.70503674  1
  F  F448  1  0.54238647  0.24938922  0.19875707  1
  F  F449  1  0.54501505  0.24998907  0.69859643  1
  F  F450  1  0.54286052  0.74775484  0.20200409  1
  F  F451  1  0.54354218  0.74751188  0.70231620  1
  F  F452  1  0.88453678  0.25713295  0.19607487  1
  F  F453  1  0.88319882  0.24608982  0.69967992  1
  F  F454  1  0.87960169  0.75046590  0.19796250  1
  F  F455  1  0.88014003  0.75387120  0.70511559  1
  F  F456  1  0.29439861  0.00008439  0.29984737  1
  F  F457  1  0.28943885  0.00196686  0.80044812  1
  F  F458  1  0.28918645  0.49850436  0.29797657  1
  F  F459  1  0.29066872  0.49849902  0.80029737  1
  F  F460  1  0.61576938  0.00170748  0.29563908  1
  F  F461  1  0.62202173  0.00108383  0.79999448  1
  F  F462  1  0.62260825  0.49730358  0.29497975  1
  F  F463  1  0.62093263  0.49431103  0.79474190  1
  F  F464  1  0.94925383  -0.01259024  0.30624784  1
  F  F465  1  0.95527529  0.00235768  0.79794017  1
  F  F466  1  0.96925188  0.50184626  0.29908110  1
  F  F467  1  0.95525507  0.50203201  0.80074618  1
  F  F468  1  0.12592501  0.25470970  0.29752142  1
  F  F469  1  0.12446743  0.25079715  0.80173774  1
  F  F470  1  0.11929707  0.74933547  0.29604216  1
  F  F471  1  0.12245223  0.75149978  0.80268423  1
  F  F472  1  0.45509279  0.24983015  0.29620660  1
  F  F473  1  0.46275720  0.24960140  0.79995779  1
  F  F474  1  0.45503079  0.74773839  0.29864436  1
  F  F475  1  0.45485654  0.74826032  0.79766231  1
  F  F476  1  0.78189129  0.25927071  0.29568065  1
  F  F477  1  0.78756255  0.24936133  0.79681860  1
  F  F478  1  0.78646529  0.74737272  0.29663630  1
  F  F479  1  0.78795804  0.74978662  0.79968724  1
