# generated using pymatgen
data_K24Na3Li5Mg64Fe17Si79(O5F)48
_symmetry_space_group_name_H-M   'P 1'
_cell_length_a   16.08270113
_cell_length_b   18.57354269
_cell_length_c   20.54357906
_cell_angle_alpha   89.99497292
_cell_angle_beta   100.00683747
_cell_angle_gamma   90.00972534
_symmetry_Int_Tables_number   1
_chemical_formula_structural   K24Na3Li5Mg64Fe17Si79(O5F)48
_chemical_formula_sum   'K24 Na3 Li5 Mg64 Fe17 Si79 O240 F48'
_cell_volume   6043.27222039
_cell_formula_units_Z   1
loop_
 _symmetry_equiv_pos_site_id
 _symmetry_equiv_pos_as_xyz
  1  'x, y, z'
loop_
 _atom_site_type_symbol
 _atom_site_label
 _atom_site_symmetry_multiplicity
 _atom_site_fract_x
 _atom_site_fract_y
 _atom_site_fract_z
 _atom_site_occupancy
  K  K0  1  0.00404832  0.00207919  -0.00398575  1
  K  K1  1  0.00497582  0.01068854  0.50753121  1
  K  K2  1  0.00879604  0.48504345  -0.00151599  1
  K  K3  1  -0.00417118  0.50417433  0.49425071  1
  K  K4  1  0.32175500  -0.00118653  -0.01151106  1
  K  K5  1  0.32815764  -0.00155775  0.50569561  1
  K  K6  1  0.32127066  0.49831266  -0.00532243  1
  K  K7  1  0.32715457  0.49631072  0.50074511  1
  K  K8  1  0.66639161  -0.00541356  -0.00692336  1
  K  K9  1  0.67379361  0.00367199  0.50669412  1
  K  K10  1  0.67340723  0.49924643  0.00142566  1
  K  K11  1  0.67235465  0.49646822  0.50058453  1
  K  K12  1  0.15406492  0.25464293  -0.00510077  1
  K  K13  1  0.16451525  0.24911347  0.50190933  1
  K  K14  1  0.17578788  0.75082151  -0.00391839  1
  K  K15  1  0.16836414  0.74614558  0.50077263  1
  K  K16  1  0.49254647  0.24586719  -0.00710281  1
  K  K17  1  0.49825193  0.25023453  0.50463229  1
  K  K18  1  0.50368259  0.75355925  -0.01020015  1
  K  K19  1  0.49668313  0.75685458  0.51140626  1
  K  K20  1  0.84246710  0.24579363  -0.00615927  1
  K  K21  1  0.84666005  0.23987576  0.50190973  1
  K  K22  1  0.83366893  0.75158412  -0.00338801  1
  K  K23  1  0.83619598  0.75187646  0.49803012  1
  Na  Na24  1  0.65262813  0.75054382  0.74432299  1
  Na  Na25  1  0.50034818  0.67585962  0.75020567  1
  Na  Na26  1  0.83579643  0.33539427  0.25610722  1
  Li  Li27  1  0.67375017  0.24639080  0.74864523  1
  Li  Li28  1  0.83775387  0.49737021  0.26248424  1
  Li  Li29  1  0.83027762  0.16775763  0.74533273  1
  Li  Li30  1  0.49775081  0.83036595  0.74699287  1
  Li  Li31  1  0.33569938  0.41843174  0.75193401  1
  Mg  Mg32  1  0.33252851  0.25064828  0.24904364  1
  Mg  Mg33  1  0.49836849  0.50051977  0.75087063  1
  Mg  Mg34  1  0.17026251  0.50051508  0.75279682  1
  Mg  Mg35  1  0.83120049  0.00154628  0.74643883  1
  Mg  Mg36  1  0.33425167  0.75122159  0.25345082  1
  Mg  Mg37  1  0.16480797  0.00074453  0.74976786  1
  Mg  Mg38  1  0.49905595  0.49892650  0.24946320  1
  Mg  Mg39  1  -0.00131476  0.74997342  0.75177107  1
  Mg  Mg40  1  0.83163623  0.49845628  0.75286646  1
  Mg  Mg41  1  0.50209280  -0.00152672  0.25306607  1
  Mg  Mg42  1  0.83340073  -0.00134307  0.24520260  1
  Mg  Mg43  1  0.66785003  0.74684001  0.25227044  1
  Mg  Mg44  1  -0.00427387  0.24865070  0.74731698  1
  Mg  Mg45  1  0.66914670  0.25210511  0.25068988  1
  Mg  Mg46  1  0.33284245  0.25277080  0.74963606  1
  Mg  Mg47  1  0.49958056  0.00016243  0.75099763  1
  Mg  Mg48  1  0.16791562  -0.00077667  0.24788246  1
  Mg  Mg49  1  0.00081225  0.25016135  0.24623087  1
  Mg  Mg50  1  0.16632891  0.49887666  0.25171630  1
  Mg  Mg51  1  0.33636099  0.75186501  0.75513847  1
  Mg  Mg52  1  -0.00098679  0.74994900  0.25118282  1
  Mg  Mg53  1  0.16572291  0.33602632  0.24915439  1
  Mg  Mg54  1  -0.00352548  0.08692281  0.74887568  1
  Mg  Mg55  1  0.50180866  0.16593433  0.25021647  1
  Mg  Mg56  1  0.33226121  0.58399727  0.24848051  1
  Mg  Mg57  1  0.83170019  0.32836904  0.74988906  1
  Mg  Mg58  1  0.33745118  0.91478789  0.25438019  1
  Mg  Mg59  1  0.66760333  0.91389222  0.25007439  1
  Mg  Mg60  1  0.33571785  0.08345740  0.25043975  1
  Mg  Mg61  1  0.66892330  0.08712372  0.74554033  1
  Mg  Mg62  1  0.50138181  0.66515005  0.25109993  1
  Mg  Mg63  1  0.16668876  0.16582671  0.24668319  1
  Mg  Mg64  1  0.83647375  0.66253900  0.25418901  1
  Mg  Mg65  1  0.50182705  0.83449228  0.25430923  1
  Mg  Mg66  1  0.67186153  0.58006289  0.25295425  1
  Mg  Mg67  1  0.67127967  0.41832856  0.25237764  1
  Mg  Mg68  1  0.49969982  0.33439744  0.24969342  1
  Mg  Mg69  1  0.33031391  0.41469009  0.24893890  1
  Mg  Mg70  1  0.66121115  0.91559551  0.74837937  1
  Mg  Mg71  1  0.16648112  0.66566056  0.25102888  1
  Mg  Mg72  1  0.83439378  0.83354261  0.24949390  1
  Mg  Mg73  1  0.17158825  0.66702158  0.75461623  1
  Mg  Mg74  1  -0.00262523  0.41744419  0.25270233  1
  Mg  Mg75  1  0.16516879  0.16618148  0.74894847  1
  Mg  Mg76  1  -0.00064205  0.41462597  0.75055664  1
  Mg  Mg77  1  0.82798937  0.66702492  0.75096311  1
  Mg  Mg78  1  0.33044262  0.08607737  0.74952920  1
  Mg  Mg79  1  0.66883526  0.08480908  0.24885195  1
  Mg  Mg80  1  -0.00052516  0.91642271  0.74873105  1
  Mg  Mg81  1  -0.00013112  0.08462001  0.24548174  1
  Mg  Mg82  1  0.66316244  0.58323783  0.75054955  1
  Mg  Mg83  1  0.66621585  0.41275268  0.75054066  1
  Mg  Mg84  1  -0.00016870  0.58367457  0.75259724  1
  Mg  Mg85  1  -0.00255854  0.58433223  0.25404797  1
  Mg  Mg86  1  0.33765230  0.58397857  0.75496374  1
  Mg  Mg87  1  0.83593891  0.16663198  0.24842255  1
  Mg  Mg88  1  0.50212092  0.16824617  0.74770509  1
  Mg  Mg89  1  0.33468482  0.91492330  0.75231434  1
  Mg  Mg90  1  0.82926061  0.83310417  0.74915179  1
  Mg  Mg91  1  0.16947920  0.83398208  0.25126833  1
  Mg  Mg92  1  -0.00129775  0.91596218  0.24812452  1
  Mg  Mg93  1  0.16821793  0.83519612  0.75110417  1
  Mg  Mg94  1  0.16918712  0.33621255  0.74986682  1
  Mg  Mg95  1  0.50107362  0.33270454  0.74849493  1
  Fe  Fe96  1  0.02251707  0.16481621  0.10698110  1
  Fe  Fe97  1  0.31838813  0.66002694  0.89537055  1
  Fe  Fe98  1  0.97201218  0.32987808  0.88896136  1
  Fe  Fe99  1  0.13943998  0.91522974  0.89018755  1
  Fe  Fe100  1  0.30862742  0.33286865  0.39019562  1
  Fe  Fe101  1  0.85410514  0.91421055  0.10765330  1
  Fe  Fe102  1  0.80833947  0.57968800  0.39442637  1
  Fe  Fe103  1  0.47899200  0.91801546  0.39500170  1
  Fe  Fe104  1  0.31654033  0.83365263  0.89449712  1
  Fe  Fe105  1  0.02555229  0.17322838  0.60591304  1
  Fe  Fe106  1  0.19427887  0.08015892  0.60702694  1
  Fe  Fe107  1  0.30693036  0.17195719  0.88988759  1
  Fe  Fe108  1  0.30621421  0.83174662  0.39397626  1
  Fe  Fe109  1  0.85586249  0.08163975  0.60737870  1
  Fe  Fe110  1  0.97903283  0.67299045  0.39497799  1
  Fe  Fe111  1  0.97520481  0.32974922  0.39123392  1
  Fe  Fe112  1  0.19266079  0.41775981  0.10812753  1
  Si  Si113  1  0.48203472  0.08534166  0.38685040  1
  Si  Si114  1  0.53008369  0.91769975  0.11499243  1
  Si  Si115  1  0.52398846  0.58125609  0.61385099  1
  Si  Si116  1  0.97559232  0.84276788  0.38742638  1
  Si  Si117  1  0.96658277  0.83183511  0.88650673  1
  Si  Si118  1  0.69279918  0.17337687  0.11315385  1
  Si  Si119  1  0.85839941  0.58796450  0.11461213  1
  Si  Si120  1  0.31403114  0.34147958  0.88622636  1
  Si  Si121  1  0.80302305  0.58508354  0.88755123  1
  Si  Si122  1  0.14582451  0.07967568  0.38210816  1
  Si  Si123  1  0.19466551  0.42020795  0.61606080  1
  Si  Si124  1  0.02975719  0.83489899  0.11242885  1
  Si  Si125  1  0.52764573  0.08442664  0.61260190  1
  Si  Si126  1  0.80173876  0.07751551  0.88286712  1
  Si  Si127  1  0.36201230  0.67011631  0.11552340  1
  Si  Si128  1  0.19783909  0.91444241  0.11507984  1
  Si  Si129  1  0.97854284  0.15858819  0.38520380  1
  Si  Si130  1  0.14669503  0.58252564  0.38794635  1
  Si  Si131  1  0.02396418  0.66903728  0.11419312  1
  Si  Si132  1  0.64285936  0.16657500  0.88228152  1
  Si  Si133  1  0.64098776  0.32985231  0.88357161  1
  Si  Si134  1  0.31406728  0.66160441  0.38735395  1
  Si  Si135  1  0.96768935  0.16056835  0.88551921  1
  Si  Si136  1  0.85783756  0.42501233  0.11823535  1
  Si  Si137  1  0.52625436  0.41552229  0.11443145  1
  Si  Si138  1  0.52321926  0.58012150  0.11537070  1
  Si  Si139  1  0.19020528  0.90919564  0.61023739  1
  Si  Si140  1  0.85548340  0.90885439  0.61025530  1
  Si  Si141  1  0.35986236  0.33429613  0.61565250  1
  Si  Si142  1  0.36016208  0.83160549  0.61625525  1
  Si  Si143  1  0.13790263  0.58511174  0.88883200  1
  Si  Si144  1  0.80400136  0.91668106  0.38459181  1
  Si  Si145  1  0.68819687  0.82562392  0.11268912  1
  Si  Si146  1  0.19211384  0.58985911  0.11205095  1
  Si  Si147  1  0.63846721  0.33486613  0.38593290  1
  Si  Si148  1  0.64411898  0.82709569  0.38842240  1
  Si  Si149  1  0.69038581  0.16916391  0.61037076  1
  Si  Si150  1  0.48407243  0.57447182  0.89139176  1
  Si  Si151  1  0.02370227  0.82632339  0.61439712  1
  Si  Si152  1  0.36484593  0.16234191  0.11452111  1
  Si  Si153  1  0.47899874  0.08654271  0.88616213  1
  Si  Si154  1  0.64277663  0.17089334  0.38375847  1
  Si  Si155  1  0.80212754  0.41863421  0.88882556  1
  Si  Si156  1  0.52370784  0.91878617  0.61460183  1
  Si  Si157  1  0.13688602  0.08602345  0.88872437  1
  Si  Si158  1  0.13871070  0.41809974  0.38946328  1
  Si  Si159  1  0.13724544  0.91755603  0.38451036  1
  Si  Si160  1  0.80031888  0.91338582  0.88348281  1
  Si  Si161  1  0.47894385  0.92407111  0.88738199  1
  Si  Si162  1  0.69111874  0.33504066  0.61412891  1
  Si  Si163  1  0.69191255  0.33874135  0.11595214  1
  Si  Si164  1  0.80599909  0.08223071  0.38242692  1
  Si  Si165  1  0.31266260  0.16241519  0.38597710  1
  Si  Si166  1  0.68783160  0.66233282  0.11579341  1
  Si  Si167  1  0.85458702  0.42040354  0.61542489  1
  Si  Si168  1  0.19779762  0.08111919  0.11117181  1
  Si  Si169  1  0.68819681  0.83260849  0.61389378  1
  Si  Si170  1  0.64104705  0.66686702  0.88725272  1
  Si  Si171  1  0.02417148  0.34487740  0.61157309  1
  Si  Si172  1  0.36547273  0.83517040  0.11595962  1
  Si  Si173  1  0.63781074  0.66275294  0.38715291  1
  Si  Si174  1  0.85393007  0.58491848  0.61642104  1
  Si  Si175  1  0.96952376  0.66500391  0.88580252  1
  Si  Si176  1  0.36396984  0.16855519  0.61112088  1
  Si  Si177  1  0.52497695  0.41785260  0.61299572  1
  Si  Si178  1  0.14355074  0.41811097  0.88648900  1
  Si  Si179  1  0.01743860  0.33724457  0.10983266  1
  Si  Si180  1  0.68843929  0.66535929  0.61409831  1
  Si  Si181  1  0.47556548  0.58215893  0.38342131  1
  Si  Si182  1  0.19444831  0.58489088  0.61583756  1
  Si  Si183  1  0.53237004  0.08343808  0.11460122  1
  Si  Si184  1  0.84968685  0.08245055  0.10868396  1
  Si  Si185  1  0.47592922  0.41937035  0.38600993  1
  Si  Si186  1  0.48339296  0.41436558  0.88441778  1
  Si  Si187  1  0.80343285  0.41289946  0.39303085  1
  Si  Si188  1  0.35865701  0.66731848  0.61631583  1
  Si  Si189  1  0.36388912  0.32903145  0.11074731  1
  Si  Si190  1  0.63489747  0.83424336  0.88341438  1
  Si  Si191  1  0.02470994  0.66125107  0.61708107  1
  O  O192  1  0.28372032  0.11188314  0.08557058  1
  O  O193  1  0.28728713  0.12026599  0.57434556  1
  O  O194  1  0.26999970  0.63483857  0.08637264  1
  O  O195  1  0.26716163  0.62853743  0.58363739  1
  O  O196  1  0.60777273  0.12480427  0.08436092  1
  O  O197  1  0.60385653  0.12134758  0.58070185  1
  O  O198  1  0.60561248  0.61106851  0.08623276  1
  O  O199  1  0.60161008  0.62041834  0.58267354  1
  O  O200  1  0.93023638  0.10389381  0.07523763  1
  O  O201  1  0.93542896  0.11933854  0.56305275  1
  O  O202  1  0.93602839  0.62587316  0.08253053  1
  O  O203  1  0.93732178  0.61631134  0.58913620  1
  O  O204  1  0.09213352  0.37033495  0.07429465  1
  O  O205  1  0.10326954  0.38516909  0.58336108  1
  O  O206  1  0.11635049  0.86366731  0.08680453  1
  O  O207  1  0.10352318  0.85971872  0.58468855  1
  O  O208  1  0.44816129  0.36186515  0.08403191  1
  O  O209  1  0.43660189  0.37454903  0.58423882  1
  O  O210  1  0.44084024  0.87700939  0.08635756  1
  O  O211  1  0.43498991  0.87567632  0.58610694  1
  O  O212  1  0.77097345  0.37753749  0.08897116  1
  O  O213  1  0.77060794  0.37224994  0.58381918  1
  O  O214  1  0.76558589  0.84845520  0.07682309  1
  O  O215  1  0.76953910  0.86005615  0.58132078  1
  O  O216  1  0.28284528  0.37299475  0.07487277  1
  O  O217  1  0.27127198  0.37791446  0.58700916  1
  O  O218  1  0.27817236  0.87828341  0.08734150  1
  O  O219  1  0.26824361  0.86691119  0.58239703  1
  O  O220  1  0.60800740  0.38670652  0.08369469  1
  O  O221  1  0.60430844  0.38141714  0.58323125  1
  O  O222  1  0.60466757  0.87641051  0.08459217  1
  O  O223  1  0.60183882  0.87914377  0.58394601  1
  O  O224  1  0.93380433  0.38973805  0.08493983  1
  O  O225  1  0.93904381  0.39596961  0.58686244  1
  O  O226  1  0.95288413  0.88473332  0.07667511  1
  O  O227  1  0.93471709  0.86672758  0.58330031  1
  O  O228  1  0.11878918  0.12783082  0.07559839  1
  O  O229  1  0.11037001  0.13872702  0.56435199  1
  O  O230  1  0.10414977  0.63508532  0.08467591  1
  O  O231  1  0.10204438  0.62277544  0.58685111  1
  O  O232  1  0.44502288  0.12650198  0.08581552  1
  O  O233  1  0.44720953  0.13613260  0.58318472  1
  O  O234  1  0.43832391  0.62789311  0.08682547  1
  O  O235  1  0.43452311  0.62389593  0.58646466  1
  O  O236  1  0.77298758  0.14249867  0.08329182  1
  O  O237  1  0.76013414  0.13733464  0.57029182  1
  O  O238  1  0.76989243  0.63319394  0.08514243  1
  O  O239  1  0.77068078  0.63340149  0.58406040  1
  O  O240  1  0.05978309  0.10351758  0.40909285  1
  O  O241  1  0.04765647  0.10757709  0.91414066  1
  O  O242  1  0.07307699  0.61211494  0.42504696  1
  O  O243  1  0.05383720  0.61864878  0.91537424  1
  O  O244  1  0.39363884  0.10791138  0.41214094  1
  O  O245  1  0.40215728  0.11218038  0.92238730  1
  O  O246  1  0.38910684  0.60072028  0.41186537  1
  O  O247  1  0.40739277  0.59486213  0.92943662  1
  O  O248  1  0.72653614  0.12100967  0.41082429  1
  O  O249  1  0.72359929  0.11503150  0.91394923  1
  O  O250  1  0.70411603  0.60460385  0.42240485  1
  O  O251  1  0.73209892  0.62842900  0.92139732  1
  O  O252  1  0.21313429  0.36287020  0.42283640  1
  O  O253  1  0.23733507  0.38417903  0.91449669  1
  O  O254  1  0.20108390  0.85630092  0.41882636  1
  O  O255  1  0.22655843  0.86065261  0.93460226  1
  O  O256  1  0.55338449  0.36225471  0.41333242  1
  O  O257  1  0.55795630  0.35568056  0.91541665  1
  O  O258  1  0.56740714  0.85153438  0.42399880  1
  O  O259  1  0.56098430  0.87176674  0.91801313  1
  O  O260  1  0.87101789  0.34929093  0.41785830  1
  O  O261  1  0.88645503  0.37883331  0.92510292  1
  O  O262  1  0.89004951  0.87250843  0.41409459  1
  O  O263  1  0.88118171  0.86200045  0.91251986  1
  O  O264  1  0.05569945  0.40185315  0.42220518  1
  O  O265  1  0.07517152  0.37639722  0.92133021  1
  O  O266  1  0.04512436  0.90779081  0.40853580  1
  O  O267  1  0.04383163  0.87911187  0.92336641  1
  O  O268  1  0.39739136  0.39925348  0.42155394  1
  O  O269  1  0.39781001  0.39297293  0.91311449  1
  O  O270  1  0.38492789  0.89855496  0.43211042  1
  O  O271  1  0.40349443  0.90166641  0.92581913  1
  O  O272  1  0.71370388  0.38792982  0.41949651  1
  O  O273  1  0.71955344  0.38317265  0.91562384  1
  O  O274  1  0.72800779  0.87763983  0.41523386  1
  O  O275  1  0.72288080  0.87777478  0.91541026  1
  O  O276  1  0.22759350  0.13037374  0.41155328  1
  O  O277  1  0.20789557  0.14510280  0.92022608  1
  O  O278  1  0.23126539  0.63184671  0.41558352  1
  O  O279  1  0.21836026  0.62891933  0.92599265  1
  O  O280  1  0.55732523  0.14608269  0.41164760  1
  O  O281  1  0.56104927  0.13966244  0.91433970  1
  O  O282  1  0.54592621  0.64401030  0.41076237  1
  O  O283  1  0.56659475  0.62730244  0.92025547  1
  O  O284  1  0.89514453  0.12210074  0.41148279  1
  O  O285  1  0.88705562  0.12202858  0.91307985  1
  O  O286  1  0.89016252  0.64422783  0.43476341  1
  O  O287  1  0.89241943  0.62640167  0.91610503  1
  O  O288  1  0.18627747  -0.00370704  0.08504429  1
  O  O289  1  0.17598776  -0.01493084  0.57174811  1
  O  O290  1  0.18450937  0.51333597  0.07485130  1
  O  O291  1  0.19373157  0.50290775  0.58549974  1
  O  O292  1  0.52582669  0.00063006  0.08592524  1
  O  O293  1  0.51333896  0.00152175  0.58257027  1
  O  O294  1  0.50549082  0.49796718  0.08614170  1
  O  O295  1  0.51328557  0.49957600  0.58081754  1
  O  O296  1  0.81146181  0.00533055  0.07996030  1
  O  O297  1  0.84029865  -0.01475148  0.57354803  1
  O  O298  1  0.84150226  0.50639261  0.08358013  1
  O  O299  1  0.83371269  0.50329175  0.58765308  1
  O  O300  1  -0.00797598  0.25823503  0.07850340  1
  O  O301  1  0.00620916  0.26924388  0.57457003  1
  O  O302  1  0.01242223  0.75148033  0.08472153  1
  O  O303  1  0.01243124  0.74273399  0.58631446  1
  O  O304  1  0.35583040  0.24421831  0.08507994  1
  O  O305  1  0.35249846  0.25303795  0.58331483  1
  O  O306  1  0.36015388  0.75274065  0.08704407  1
  O  O307  1  0.35705638  0.74901474  0.58485861  1
  O  O308  1  0.67644002  0.25626838  0.08490950  1
  O  O309  1  0.67207673  0.25406244  0.58365665  1
  O  O310  1  0.66100983  0.74298488  0.08673215  1
  O  O311  1  0.67199362  0.74853875  0.58722984  1
  O  O312  1  0.17104857  -0.00153886  0.41026629  1
  O  O313  1  0.16353251  0.00871686  0.92326955  1
  O  O314  1  0.17340328  0.50039641  0.41313727  1
  O  O315  1  0.14604511  0.50138325  0.91504417  1
  O  O316  1  0.51940280  0.01156919  0.42070725  1
  O  O317  1  0.51181044  0.00604178  0.91339158  1
  O  O318  1  0.50912589  0.50187226  0.41010463  1
  O  O319  1  0.51785991  0.49228478  0.91687435  1
  O  O320  1  0.81080745  -0.00014474  0.41228803  1
  O  O321  1  0.81365478  -0.00487183  0.91482881  1
  O  O322  1  0.83248437  0.48745195  0.43224970  1
  O  O323  1  0.80571955  0.50299032  0.91690152  1
  O  O324  1  0.33809769  0.23870293  0.42142661  1
  O  O325  1  0.33356257  0.26540552  0.92460109  1
  O  O326  1  0.34347465  0.73723162  0.42224003  1
  O  O327  1  0.34933768  0.74663547  0.93554299  1
  O  O328  1  0.66185084  0.25240905  0.41299230  1
  O  O329  1  0.66496897  0.24827747  0.91239948  1
  O  O330  1  0.66926271  0.74409754  0.41318903  1
  O  O331  1  0.64681445  0.75112717  0.91394352  1
  O  O332  1  1.00194097  0.23399063  0.42184448  1
  O  O333  1  0.98172475  0.23681318  0.92470489  1
  O  O334  1  1.00698932  0.76931020  0.42535466  1
  O  O335  1  0.97736576  0.74736900  0.91451510  1
  O  O336  1  0.21395882  0.08201468  0.19242518  1
  O  O337  1  0.20919484  0.08233269  0.69902896  1
  O  O338  1  0.21032392  0.58628893  0.19324556  1
  O  O339  1  0.20863273  0.58394134  0.69572298  1
  O  O340  1  0.54726844  0.08320841  0.19516633  1
  O  O341  1  0.54339225  0.08407982  0.69293609  1
  O  O342  1  0.54140445  0.58260546  0.19560557  1
  O  O343  1  0.54637904  0.57631140  0.69280078  1
  O  O344  1  0.87199911  0.08249836  0.19053685  1
  O  O345  1  0.87741727  0.08014784  0.69777529  1
  O  O346  1  0.88017863  0.59083440  0.19344379  1
  O  O347  1  0.87368855  0.58418660  0.69699077  1
  O  O348  1  0.04356233  0.33633778  0.19089174  1
  O  O349  1  0.04498743  0.34013550  0.69215197  1
  O  O350  1  0.04478017  0.83395231  0.19368193  1
  O  O351  1  0.03971539  0.82895472  0.69462987  1
  O  O352  1  0.37994208  0.33185058  0.19179929  1
  O  O353  1  0.37956758  0.33269210  0.69499439  1
  O  O354  1  0.38185991  0.83295710  0.19607507  1
  O  O355  1  0.37102121  0.83405858  0.69515719  1
  O  O356  1  0.70056011  0.33448459  0.19497407  1
  O  O357  1  0.71136043  0.33852852  0.69352507  1
  O  O358  1  0.70753112  0.83036933  0.19377540  1
  O  O359  1  0.71175987  0.83951168  0.69269234  1
  O  O360  1  0.21072908  0.41927883  0.19964257  1
  O  O361  1  0.20794490  0.41996038  0.69557168  1
  O  O362  1  0.21355370  0.91658659  0.19550736  1
  O  O363  1  0.20809049  0.91532800  0.69060900  1
  O  O364  1  0.54151647  0.41588028  0.19482872  1
  O  O365  1  0.54371747  0.41713071  0.69297941  1
  O  O366  1  0.54727922  0.91681163  0.19545515  1
  O  O367  1  0.54340774  0.92349234  0.69356702  1
  O  O368  1  0.87947203  0.42770933  0.19661511  1
  O  O369  1  0.87260108  0.41977138  0.69570025  1
  O  O370  1  0.87689802  0.91459600  0.19961789  1
  O  O371  1  0.87479340  0.91180628  0.69135312  1
  O  O372  1  0.04642689  0.16489278  0.19877661  1
  O  O373  1  0.04399964  0.16802802  0.69867867  1
  O  O374  1  0.04386523  0.66763140  0.19451581  1
  O  O375  1  0.04251160  0.66402875  0.69739857  1
  O  O376  1  0.38094490  0.16433876  0.19522926  1
  O  O377  1  0.37884471  0.16799589  0.69181869  1
  O  O378  1  0.37893646  0.66782123  0.19612380  1
  O  O379  1  0.36769104  0.66632293  0.69491730  1
  O  O380  1  0.70834583  0.16834484  0.19345928  1
  O  O381  1  0.70801779  0.16509378  0.68958465  1
  O  O382  1  0.70699438  0.66493456  0.19581080  1
  O  O383  1  0.71105564  0.65807034  0.69309326  1
  O  O384  1  0.12768591  0.08101474  0.30154204  1
  O  O385  1  0.12106653  0.08337469  0.80744897  1
  O  O386  1  0.12615944  0.58536752  0.30651217  1
  O  O387  1  0.12179866  0.58558757  0.80765288  1
  O  O388  1  0.46174866  0.08418920  0.30521849  1
  O  O389  1  0.45785981  0.08736107  0.80510491  1
  O  O390  1  0.45606478  0.58257805  0.30258049  1
  O  O391  1  0.45854057  0.57563635  0.81169122  1
  O  O392  1  0.78882155  0.08103726  0.30177030  1
  O  O393  1  0.78325430  0.07584981  0.80379349  1
  O  O394  1  0.78811342  0.58536450  0.30285309  1
  O  O395  1  0.78842114  0.58340510  0.80718237  1
  O  O396  1  0.29082364  0.33170001  0.29838323  1
  O  O397  1  0.29120174  0.33433904  0.80633620  1
  O  O398  1  0.29007149  0.83298741  0.30079216  1
  O  O399  1  0.28647404  0.83488633  0.80202575  1
  O  O400  1  0.62110905  0.33386950  0.30515142  1
  O  O401  1  0.62180815  0.33442998  0.80418718  1
  O  O402  1  0.62530138  0.83138430  0.30683141  1
  O  O403  1  0.61872491  0.84066824  0.80522583  1
  O  O404  1  0.96981390  0.32994248  0.30152345  1
  O  O405  1  0.95378143  0.33391145  0.79765067  1
  O  O406  1  0.95700279  0.83502727  0.30634138  1
  O  O407  1  0.95337515  0.83188511  0.80540918  1
  O  O408  1  0.12412884  0.41732270  0.30780142  1
  O  O409  1  0.12355859  0.41823168  0.80558744  1
  O  O410  1  0.12294425  0.91663667  0.30297791  1
  O  O411  1  0.11922634  0.91574353  0.79764282  1
  O  O412  1  0.45618105  0.41667048  0.30463517  1
  O  O413  1  0.46622717  0.41508666  0.80478772  1
  O  O414  1  0.45882786  0.91693940  0.30154666  1
  O  O415  1  0.45519555  0.92429367  0.80763584  1
  O  O416  1  0.78057248  0.42230591  0.31366954  1
  O  O417  1  0.78822746  0.41786013  0.80806357  1
  O  O418  1  0.78695090  0.91603875  0.30395240  1
  O  O419  1  0.78610130  0.91543778  0.80327861  1
  O  O420  1  0.29369666  0.16477402  0.30446349  1
  O  O421  1  0.28923789  0.17035820  0.79839804  1
  O  O422  1  0.29315058  0.66510949  0.30584266  1
  O  O423  1  0.29048205  0.66589786  0.80329921  1
  O  O424  1  0.62378918  0.16737339  0.30312283  1
  O  O425  1  0.62241456  0.16408517  0.80285627  1
  O  O426  1  0.62187797  0.66421855  0.30564943  1
  O  O427  1  0.62935167  0.65820152  0.80946362  1
  O  O428  1  0.95677194  0.16169085  0.30441272  1
  O  O429  1  0.95625226  0.16731845  0.80607997  1
  O  O430  1  0.95754538  0.66976156  0.30231393  1
  O  O431  1  0.95319983  0.66498808  0.80520991  1
  F  F432  1  0.04646836  -0.00143040  0.19975343  1
  F  F433  1  0.04173160  0.00054282  0.69990503  1
  F  F434  1  0.04680216  0.50341048  0.20432581  1
  F  F435  1  0.04500068  0.50216013  0.70481083  1
  F  F436  1  0.38153291  0.00094305  0.20175392  1
  F  F437  1  0.37823756  0.00179462  0.70256384  1
  F  F438  1  0.37833881  0.49991065  0.20045552  1
  F  F439  1  0.38043652  0.50454524  0.70180380  1
  F  F440  1  0.70921751  -0.00121680  0.20035615  1
  F  F441  1  0.70945090  -0.00123269  0.69811850  1
  F  F442  1  0.69813245  0.49914778  0.19681860  1
  F  F443  1  0.71236520  0.49881753  0.70337745  1
  F  F444  1  0.21431055  0.24684499  0.19791050  1
  F  F445  1  0.21191223  0.25548505  0.69916284  1
  F  F446  1  0.21330786  0.74792615  0.20162823  1
  F  F447  1  0.20589155  0.74925355  0.70156808  1
  F  F448  1  0.54557706  0.24934082  0.20165861  1
  F  F449  1  0.53953242  0.25112919  0.69807242  1
  F  F450  1  0.54588249  0.74994310  0.20373118  1
  F  F451  1  0.52856144  0.76173814  0.68068535  1
  F  F452  1  0.88087493  0.24100712  0.19764088  1
  F  F453  1  0.87822519  0.25497470  0.69460830  1
  F  F454  1  0.87733989  0.75136368  0.20137909  1
  F  F455  1  0.87780340  0.74754424  0.70089442  1
  F  F456  1  0.28961445  0.00090967  0.29663904  1
  F  F457  1  0.28758590  -0.00042752  0.79780942  1
  F  F458  1  0.29046954  0.50267594  0.29739511  1
  F  F459  1  0.28612885  0.50447560  0.80130901  1
  F  F460  1  0.62491073  0.00028206  0.29760206  1
  F  F461  1  0.62194580  0.00282857  0.79599462  1
  F  F462  1  0.61662313  0.49933411  0.29808521  1
  F  F463  1  0.62260467  0.49735715  0.79773368  1
  F  F464  1  0.95440559  0.00227126  0.29451261  1
  F  F465  1  0.95156527  -0.00425642  0.79709103  1
  F  F466  1  0.96158375  0.50242500  0.30292534  1
  F  F467  1  0.95323228  0.50077506  0.79956227  1
  F  F468  1  0.12640826  0.24967941  0.29496848  1
  F  F469  1  0.12101279  0.25462957  0.79578540  1
  F  F470  1  0.12211839  0.75030807  0.29629472  1
  F  F471  1  0.11780594  0.74876937  0.79941971  1
  F  F472  1  0.45573628  0.24970711  0.29644531  1
  F  F473  1  0.45565018  0.25005496  0.79771729  1
  F  F474  1  0.45672956  0.74864186  0.29876930  1
  F  F475  1  0.44956678  0.75923689  0.80754955  1
  F  F476  1  0.78284625  0.23744126  0.30122335  1
  F  F477  1  0.78898122  0.25199481  0.79939625  1
  F  F478  1  0.78780156  0.75135308  0.29748822  1
  F  F479  1  0.79581975  0.74973116  0.80029134  1
