# generated using pymatgen
data_K24Na3Li5Mg64Fe17Si79(O5F)48
_symmetry_space_group_name_H-M   'P 1'
_cell_length_a   16.08766781
_cell_length_b   18.58171995
_cell_length_c   20.54906354
_cell_angle_alpha   89.99315914
_cell_angle_beta   100.00817213
_cell_angle_gamma   90.01677107
_symmetry_Int_Tables_number   1
_chemical_formula_structural   K24Na3Li5Mg64Fe17Si79(O5F)48
_chemical_formula_sum   'K24 Na3 Li5 Mg64 Fe17 Si79 O240 F48'
_cell_volume   6049.38949533
_cell_formula_units_Z   1
loop_
 _symmetry_equiv_pos_site_id
 _symmetry_equiv_pos_as_xyz
  1  'x, y, z'
loop_
 _atom_site_type_symbol
 _atom_site_label
 _atom_site_symmetry_multiplicity
 _atom_site_fract_x
 _atom_site_fract_y
 _atom_site_fract_z
 _atom_site_occupancy
  K  K0  1  0.00577582  -0.00193052  -0.00239684  1
  K  K1  1  -0.00624278  0.00452289  0.50534758  1
  K  K2  1  -0.00547483  0.50333712  -0.00800036  1
  K  K3  1  -0.00051656  0.49558427  0.50257806  1
  K  K4  1  0.32172324  0.01226707  -0.00589513  1
  K  K5  1  0.34178763  0.00448985  0.50850039  1
  K  K6  1  0.33274111  0.50549536  -0.00323799  1
  K  K7  1  0.33622404  0.50392819  0.50760014  1
  K  K8  1  0.66934006  0.00251310  -0.00444274  1
  K  K9  1  0.67668856  -0.00875824  0.51095151  1
  K  K10  1  0.66930027  0.50148155  -0.00031491  1
  K  K11  1  0.66979961  0.50238780  0.50918478  1
  K  K12  1  0.15636024  0.24397861  -0.01164391  1
  K  K13  1  0.16603488  0.24394402  0.50487474  1
  K  K14  1  0.15732456  0.75100714  -0.00656660  1
  K  K15  1  0.15832279  0.74848302  0.50529073  1
  K  K16  1  0.49840723  0.23831560  -0.00483202  1
  K  K17  1  0.51221577  0.24291637  0.51049766  1
  K  K18  1  0.49750724  0.75359871  -0.00399594  1
  K  K19  1  0.50810781  0.75016251  0.51226519  1
  K  K20  1  0.83583560  0.24037398  0.00177490  1
  K  K21  1  0.84851998  0.24675899  0.50316682  1
  K  K22  1  0.84134218  0.75317507  -0.00083364  1
  K  K23  1  0.84149526  0.76447676  0.50583621  1
  Na  Na24  1  0.83335838  0.49931566  0.75485610  1
  Na  Na25  1  0.16375546  0.66786311  0.75029535  1
  Na  Na26  1  0.50031464  0.83083723  0.74233771  1
  Li  Li27  1  0.66755234  0.75087006  0.25012919  1
  Li  Li28  1  0.00759504  0.24565094  0.75481428  1
  Li  Li29  1  0.66581296  0.08125046  0.74488176  1
  Li  Li30  1  0.16256749  0.16494831  0.24855777  1
  Li  Li31  1  0.16634703  0.16356009  0.75513424  1
  Mg  Mg32  1  0.33154315  0.74971205  0.74657351  1
  Mg  Mg33  1  0.16684122  0.00349409  0.75126360  1
  Mg  Mg34  1  0.00134452  0.24905162  0.25371610  1
  Mg  Mg35  1  0.66733644  0.74909471  0.74586808  1
  Mg  Mg36  1  0.50056704  0.50288893  0.24669882  1
  Mg  Mg37  1  0.83406827  0.50020662  0.24940852  1
  Mg  Mg38  1  0.66791717  0.25090294  0.24821033  1
  Mg  Mg39  1  0.50053718  -0.00022404  0.25192743  1
  Mg  Mg40  1  0.50333975  -0.00187745  0.74818195  1
  Mg  Mg41  1  0.33467890  0.75174921  0.24534178  1
  Mg  Mg42  1  0.33140240  0.24944468  0.25062249  1
  Mg  Mg43  1  0.00169174  0.74961176  0.24591400  1
  Mg  Mg44  1  0.66567924  0.24557408  0.74878866  1
  Mg  Mg45  1  0.00107793  0.75039988  0.75109127  1
  Mg  Mg46  1  0.83374058  -0.00242078  0.24926447  1
  Mg  Mg47  1  0.16569128  0.49915506  0.75233119  1
  Mg  Mg48  1  0.49996804  0.49962425  0.74753647  1
  Mg  Mg49  1  0.16624946  0.00153286  0.24668811  1
  Mg  Mg50  1  0.32987254  0.24627771  0.74913467  1
  Mg  Mg51  1  0.83397315  0.00273613  0.74871718  1
  Mg  Mg52  1  0.16819050  0.49947133  0.25061970  1
  Mg  Mg53  1  0.49848537  0.33169115  0.74955161  1
  Mg  Mg54  1  0.66908872  0.91285513  0.25368753  1
  Mg  Mg55  1  -0.00101325  0.41554790  0.75328926  1
  Mg  Mg56  1  0.33116639  0.58386136  0.74619645  1
  Mg  Mg57  1  0.83452913  0.16718763  0.74989825  1
  Mg  Mg58  1  0.83484677  0.83607667  0.74947575  1
  Mg  Mg59  1  0.00037207  0.58405250  0.75228900  1
  Mg  Mg60  1  0.66534389  0.58268736  0.74840139  1
  Mg  Mg61  1  0.33159665  0.08401638  0.75191135  1
  Mg  Mg62  1  0.32982435  0.08593554  0.24959166  1
  Mg  Mg63  1  0.83500406  0.33166986  0.75177663  1
  Mg  Mg64  1  0.50021272  0.33601576  0.24853972  1
  Mg  Mg65  1  0.00111196  0.91732761  0.75227689  1
  Mg  Mg66  1  0.50018682  0.16710575  0.25123386  1
  Mg  Mg67  1  -0.00100787  0.91338400  0.24563730  1
  Mg  Mg68  1  0.16432768  0.32830779  0.75389142  1
  Mg  Mg69  1  0.83193580  0.66650535  0.24786080  1
  Mg  Mg70  1  -0.00201741  0.58277313  0.24636995  1
  Mg  Mg71  1  0.66776811  0.41696309  0.24959687  1
  Mg  Mg72  1  0.16610718  0.33094116  0.25285569  1
  Mg  Mg73  1  0.49749734  0.66552792  0.74388055  1
  Mg  Mg74  1  0.33066778  0.91767712  0.24564083  1
  Mg  Mg75  1  0.83431905  0.16396802  0.25158188  1
  Mg  Mg76  1  0.66620677  0.91839116  0.74557901  1
  Mg  Mg77  1  0.16512147  0.83448871  0.74838506  1
  Mg  Mg78  1  0.83152972  0.83227416  0.25067350  1
  Mg  Mg79  1  0.33468603  0.58604789  0.24687910  1
  Mg  Mg80  1  0.49996825  0.16166691  0.74908276  1
  Mg  Mg81  1  0.33309452  0.41575355  0.25050122  1
  Mg  Mg82  1  0.33261883  0.91621855  0.74699973  1
  Mg  Mg83  1  -0.00109887  0.41413371  0.25144141  1
  Mg  Mg84  1  0.83577518  0.66499881  0.75085316  1
  Mg  Mg85  1  0.66796192  0.08354201  0.25186471  1
  Mg  Mg86  1  -0.00009915  0.08372511  0.24970993  1
  Mg  Mg87  1  0.66696168  0.58811823  0.24766269  1
  Mg  Mg88  1  0.66561806  0.41471640  0.74980452  1
  Mg  Mg89  1  0.83351394  0.33355679  0.25088693  1
  Mg  Mg90  1  0.16517167  0.83600337  0.24448198  1
  Mg  Mg91  1  0.16705076  0.66599122  0.24517109  1
  Mg  Mg92  1  0.50087468  0.66953909  0.24752482  1
  Mg  Mg93  1  0.50175033  0.83360466  0.24942287  1
  Mg  Mg94  1  0.33169236  0.41464540  0.75081104  1
  Mg  Mg95  1  0.00404319  0.08894153  0.75208147  1
  Fe  Fe96  1  0.53220472  0.08206503  0.60974734  1
  Fe  Fe97  1  0.02434631  0.82905377  0.10492213  1
  Fe  Fe98  1  0.85536623  0.57988330  0.10898451  1
  Fe  Fe99  1  0.85671248  0.08269374  0.11077597  1
  Fe  Fe100  1  0.35751436  0.67172606  0.10758666  1
  Fe  Fe101  1  0.52273139  0.58284280  0.60826472  1
  Fe  Fe102  1  0.35206990  0.83491208  0.60694096  1
  Fe  Fe103  1  0.19401983  0.92469889  0.10571051  1
  Fe  Fe104  1  0.31405808  0.17041569  0.89326695  1
  Fe  Fe105  1  0.68858624  0.33170765  0.11056570  1
  Fe  Fe106  1  0.86442820  0.92268889  0.61138315  1
  Fe  Fe107  1  0.18777727  0.08537683  0.61141465  1
  Fe  Fe108  1  0.97757922  0.33548533  0.39301743  1
  Fe  Fe109  1  0.80657736  0.91449519  0.39172511  1
  Fe  Fe110  1  0.97315301  0.66549508  0.89263147  1
  Fe  Fe111  1  0.14130275  0.08491029  0.89451980  1
  Fe  Fe112  1  0.03022864  0.82857040  0.60950742  1
  Si  Si113  1  0.80619315  0.92145425  0.88502947  1
  Si  Si114  1  0.52173486  0.41152268  0.61222460  1
  Si  Si115  1  0.18962120  0.57502424  0.61385541  1
  Si  Si116  1  0.97854868  0.82896779  0.38557470  1
  Si  Si117  1  0.14215916  0.91443853  0.38411959  1
  Si  Si118  1  0.31136738  0.66343482  0.88334438  1
  Si  Si119  1  0.02296807  0.33646980  0.61825399  1
  Si  Si120  1  0.80079254  0.41256927  0.88715152  1
  Si  Si121  1  0.63788675  0.16636343  0.88451629  1
  Si  Si122  1  0.52916542  0.91531920  0.11675090  1
  Si  Si123  1  0.30764587  0.83426144  0.38266332  1
  Si  Si124  1  0.63644672  0.33049216  0.88638774  1
  Si  Si125  1  0.19529300  0.57772648  0.11259630  1
  Si  Si126  1  0.68942412  0.83115593  0.11671530  1
  Si  Si127  1  0.47804816  0.07752535  0.88940291  1
  Si  Si128  1  0.47579109  0.58572760  0.88287324  1
  Si  Si129  1  0.47480866  0.08536343  0.38612947  1
  Si  Si130  1  0.85144230  0.91283853  0.10955716  1
  Si  Si131  1  0.02799517  0.65691728  0.11082930  1
  Si  Si132  1  0.14637066  0.58560475  0.38389329  1
  Si  Si133  1  0.97261804  0.83721680  0.88857183  1
  Si  Si134  1  0.97039271  0.33694807  0.88800449  1
  Si  Si135  1  0.19134888  0.41279798  0.11643987  1
  Si  Si136  1  0.36086577  0.16623873  0.61069072  1
  Si  Si137  1  0.69229000  0.66888879  0.11252124  1
  Si  Si138  1  0.96865022  0.16957761  0.88920117  1
  Si  Si139  1  0.35576222  0.33057063  0.61596049  1
  Si  Si140  1  0.69238562  0.33421388  0.61487277  1
  Si  Si141  1  0.47580109  0.42170097  0.88444483  1
  Si  Si142  1  0.63716196  0.66529434  0.38460378  1
  Si  Si143  1  0.52258291  0.42315058  0.11174793  1
  Si  Si144  1  0.19088730  0.09368255  0.11475378  1
  Si  Si145  1  0.97797243  0.66339969  0.38361586  1
  Si  Si146  1  0.80622946  0.58775653  0.38599497  1
  Si  Si147  1  0.30882122  0.33130828  0.38733247  1
  Si  Si148  1  0.14838818  0.42095852  0.38906755  1
  Si  Si149  1  0.30749988  0.16549486  0.38545062  1
  Si  Si150  1  0.02593698  0.17108027  0.11575189  1
  Si  Si151  1  0.80437472  0.42151470  0.38966373  1
  Si  Si152  1  0.14437519  0.57953409  0.88912936  1
  Si  Si153  1  0.30975969  0.66982379  0.38329402  1
  Si  Si154  1  0.47164906  0.41661643  0.38546160  1
  Si  Si155  1  0.64526046  0.83361117  0.88238022  1
  Si  Si156  1  0.36188770  0.84129751  0.11058724  1
  Si  Si157  1  0.36208183  0.16911264  0.11619207  1
  Si  Si158  1  0.14229392  0.07854585  0.38402949  1
  Si  Si159  1  0.34782072  0.66492081  0.60590017  1
  Si  Si160  1  0.52778690  0.58811445  0.11136732  1
  Si  Si161  1  0.31003447  0.82940879  0.88508341  1
  Si  Si162  1  0.79860467  0.58141844  0.88825804  1
  Si  Si163  1  0.63760068  0.33719897  0.38588652  1
  Si  Si164  1  0.02605678  0.33487559  0.11665257  1
  Si  Si165  1  0.19131747  0.92004817  0.61152873  1
  Si  Si166  1  0.31242116  0.33948967  0.88924598  1
  Si  Si167  1  0.97946477  0.16382262  0.38985750  1
  Si  Si168  1  0.47319202  0.58174509  0.38444163  1
  Si  Si169  1  0.68350073  0.16492699  0.11293270  1
  Si  Si170  1  0.69733706  0.66408173  0.61182182  1
  Si  Si171  1  0.86125769  0.58146541  0.61486091  1
  Si  Si172  1  0.14566459  0.91331171  0.88801764  1
  Si  Si173  1  0.19018332  0.41245169  0.61626873  1
  Si  Si174  1  0.02185381  0.65905916  0.61058057  1
  Si  Si175  1  0.47566888  0.91379468  0.88334147  1
  Si  Si176  1  0.85822895  0.41089390  0.11188483  1
  Si  Si177  1  0.63234819  0.83134443  0.38839181  1
  Si  Si178  1  0.64047092  0.17099529  0.38630635  1
  Si  Si179  1  0.69958064  0.17116672  0.61260446  1
  Si  Si180  1  0.63943700  0.66938639  0.88406673  1
  Si  Si181  1  0.52354831  0.07900674  0.11718967  1
  Si  Si182  1  0.47056285  0.91876146  0.38470507  1
  Si  Si183  1  0.80702634  0.08730383  0.38957783  1
  Si  Si184  1  0.52947002  0.91375096  0.60672959  1
  Si  Si185  1  0.85841767  0.41631321  0.61647951  1
  Si  Si186  1  0.86240298  0.09189763  0.61429925  1
  Si  Si187  1  0.69703496  0.83063574  0.61211085  1
  Si  Si188  1  0.02622138  0.17332590  0.61672292  1
  Si  Si189  1  0.36026265  0.33518011  0.11517925  1
  Si  Si190  1  0.14146557  0.41471468  0.88822581  1
  Si  Si191  1  0.80423730  0.08687030  0.88318232  1
  O  O192  1  0.27632567  0.12522355  0.08811533  1
  O  O193  1  0.28353176  0.11574842  0.57601390  1
  O  O194  1  0.27562352  0.59968429  0.07959072  1
  O  O195  1  0.26790168  0.60726805  0.58129758  1
  O  O196  1  0.60671630  0.10470188  0.08817840  1
  O  O197  1  0.62534914  0.12028788  0.57467662  1
  O  O198  1  0.61576457  0.61017257  0.08524617  1
  O  O199  1  0.61858164  0.61581864  0.57562984  1
  O  O200  1  0.95316777  0.11770783  0.07852658  1
  O  O201  1  0.94427391  0.12253971  0.58446648  1
  O  O202  1  0.96094114  0.59377374  0.08428658  1
  O  O203  1  0.94236131  0.60378269  0.58040481  1
  O  O204  1  0.11073782  0.36132648  0.08763281  1
  O  O205  1  0.10527985  0.36548996  0.58619228  1
  O  O206  1  0.11576492  0.85774947  0.06778672  1
  O  O207  1  0.13163175  0.85216782  0.58235347  1
  O  O208  1  0.43621038  0.37491216  0.08532365  1
  O  O209  1  0.43873006  0.35911721  0.58584162  1
  O  O210  1  0.45503988  0.85823831  0.08771828  1
  O  O211  1  0.45406998  0.85768826  0.57819829  1
  O  O212  1  0.79269903  0.34701892  0.08295344  1
  O  O213  1  0.77155608  0.37117357  0.58519004  1
  O  O214  1  0.77218463  0.85469970  0.08542473  1
  O  O215  1  0.77379170  0.86039301  0.57914103  1
  O  O216  1  0.27277860  0.37961103  0.08737747  1
  O  O217  1  0.27267987  0.38100590  0.58691182  1
  O  O218  1  0.30168562  0.90803822  0.08298327  1
  O  O219  1  0.27826988  0.91152805  0.58036787  1
  O  O220  1  0.60024082  0.39719966  0.07771929  1
  O  O221  1  0.60454049  0.37747479  0.58457789  1
  O  O222  1  0.61314252  0.88921930  0.08758268  1
  O  O223  1  0.61331910  0.87774052  0.58096806  1
  O  O224  1  0.95042095  0.39127098  0.08850470  1
  O  O225  1  0.94029014  0.38681695  0.58529756  1
  O  O226  1  0.92875274  0.88671703  0.07431318  1
  O  O227  1  0.94883331  0.89168575  0.56841886  1
  O  O228  1  0.11764634  0.15535358  0.09266541  1
  O  O229  1  0.10234453  0.15215817  0.57827265  1
  O  O230  1  0.11735322  0.63247170  0.08627957  1
  O  O231  1  0.10408797  0.62045439  0.58466248  1
  O  O232  1  0.44202592  0.13106965  0.08878226  1
  O  O233  1  0.44347418  0.14733327  0.57805298  1
  O  O234  1  0.45627562  0.64328150  0.07647069  1
  O  O235  1  0.42570854  0.63513854  0.57170456  1
  O  O236  1  0.76381204  0.14361592  0.07923403  1
  O  O237  1  0.78863536  0.15218097  0.58738089  1
  O  O238  1  0.77148455  0.64914839  0.07675598  1
  O  O239  1  0.78119298  0.63323658  0.58325061  1
  O  O240  1  0.06330525  0.11237227  0.41537514  1
  O  O241  1  0.05079001  0.12892223  0.92829557  1
  O  O242  1  0.06333797  0.61505036  0.41297013  1
  O  O243  1  0.07597659  0.61800897  0.92656316  1
  O  O244  1  0.39710384  0.12381912  0.41620235  1
  O  O245  1  0.41047664  0.11368881  0.92891273  1
  O  O246  1  0.39559358  0.62294229  0.41224294  1
  O  O247  1  0.39718369  0.61726674  0.91568459  1
  O  O248  1  0.73126233  0.13479188  0.41647946  1
  O  O249  1  0.72792052  0.12722644  0.91339525  1
  O  O250  1  0.73091885  0.63097728  0.41515371  1
  O  O251  1  0.71859341  0.61866461  0.91765371  1
  O  O252  1  0.23512358  0.37399481  0.41737631  1
  O  O253  1  0.22884375  0.37079997  0.91803050  1
  O  O254  1  0.22737616  0.86672052  0.41214731  1
  O  O255  1  0.23083938  0.86286864  0.91583333  1
  O  O256  1  0.56034261  0.37604922  0.41597509  1
  O  O257  1  0.55830206  0.37163628  0.91442885  1
  O  O258  1  0.55179497  0.86995112  0.41635685  1
  O  O259  1  0.56345384  0.86764267  0.91057497  1
  O  O260  1  0.88680546  0.37942519  0.42667002  1
  O  O261  1  0.89456915  0.37913895  0.91921935  1
  O  O262  1  0.90398343  0.85957602  0.42047922  1
  O  O263  1  0.89813740  0.88594755  0.91546958  1
  O  O264  1  0.07341549  0.39342946  0.42530022  1
  O  O265  1  0.06183039  0.37732147  0.91789928  1
  O  O266  1  0.06595486  0.87457951  0.41363705  1
  O  O267  1  0.06427986  0.87606912  0.91466899  1
  O  O268  1  0.39810118  0.37311693  0.41578429  1
  O  O269  1  0.39120789  0.39802875  0.91369698  1
  O  O270  1  0.38883072  0.88533451  0.41238198  1
  O  O271  1  0.39962429  0.87213461  0.91460876  1
  O  O272  1  0.72156402  0.38414846  0.41544879  1
  O  O273  1  0.72610884  0.36981440  0.91860171  1
  O  O274  1  0.71776382  0.86897116  0.42528366  1
  O  O275  1  0.73084783  0.87903465  0.91611204  1
  O  O276  1  0.22925693  0.12535548  0.41268124  1
  O  O277  1  0.23225752  0.13757285  0.93820306  1
  O  O278  1  0.22896073  0.63621843  0.41309562  1
  O  O279  1  0.23591241  0.62199474  0.91329325  1
  O  O280  1  0.56228627  0.13035971  0.41443367  1
  O  O281  1  0.56877798  0.11993781  0.91700137  1
  O  O282  1  0.56478276  0.61781254  0.41509813  1
  O  O283  1  0.55680581  0.63701625  0.91229220  1
  O  O284  1  0.89677875  0.12950063  0.41685857  1
  O  O285  1  0.88726697  0.13302606  0.91730807  1
  O  O286  1  0.89832019  0.62671513  0.41325248  1
  O  O287  1  0.88566333  0.61630014  0.92580768  1
  O  O288  1  0.16219957  0.01968634  0.07683447  1
  O  O289  1  0.14636722  -0.00518856  0.58128619  1
  O  O290  1  0.16948323  0.49402386  0.08764261  1
  O  O291  1  0.17321180  0.49277629  0.58270357  1
  O  O292  1  0.50204576  -0.00295528  0.08911991  1
  O  O293  1  0.51117660  -0.00887380  0.56894896  1
  O  O294  1  0.49861816  0.50586092  0.08568133  1
  O  O295  1  0.50150464  0.48766262  0.57533390  1
  O  O296  1  0.81794178  -0.00880464  0.08038512  1
  O  O297  1  0.83323392  0.01627271  0.57927101  1
  O  O298  1  0.82341222  0.48650180  0.07803656  1
  O  O299  1  0.83773260  0.49842252  0.58771474  1
  O  O300  1  0.00149081  0.25431344  0.08772989  1
  O  O301  1  -0.00188044  0.25637922  0.58911767  1
  O  O302  1  -0.00286802  0.73315066  0.07800877  1
  O  O303  1  0.00442054  0.73455212  0.57206051  1
  O  O304  1  0.35341581  0.25214084  0.08746717  1
  O  O305  1  0.33322960  0.25076569  0.58590424  1
  O  O306  1  0.32781707  0.76506274  0.07711301  1
  O  O307  1  0.31638998  0.74189274  0.57405796  1
  O  O308  1  0.64312875  0.24115514  0.08440987  1
  O  O309  1  0.67834463  0.25414181  0.58250494  1
  O  O310  1  0.65808782  0.75086084  0.08773127  1
  O  O311  1  0.67970135  0.74689896  0.58476958  1
  O  O312  1  0.15797718  -0.00357755  0.41439689  1
  O  O313  1  0.16150168  -0.01068209  0.92585812  1
  O  O314  1  0.17148978  0.50501267  0.41375528  1
  O  O315  1  0.15714204  0.49596349  0.91991238  1
  O  O316  1  0.48458918  0.00206726  0.41280840  1
  O  O317  1  0.49283251  -0.00631177  0.91798713  1
  O  O318  1  0.47470756  0.49910035  0.41421795  1
  O  O319  1  0.49817475  0.50384802  0.91273110  1
  O  O320  1  0.81203520  0.00965294  0.42429314  1
  O  O321  1  0.80862126  0.00436668  0.91408839  1
  O  O322  1  0.80854045  0.50590391  0.41734760  1
  O  O323  1  0.79792072  0.49589499  0.91269626  1
  O  O324  1  0.31521496  0.24848721  0.41592238  1
  O  O325  1  0.34196463  0.26562291  0.92640746  1
  O  O326  1  0.32600299  0.75193582  0.41185501  1
  O  O327  1  0.32338842  0.74577385  0.91385168  1
  O  O328  1  0.64371744  0.25439689  0.41484417  1
  O  O329  1  0.64032282  0.24858031  0.91695366  1
  O  O330  1  0.63155213  0.74643915  0.41408638  1
  O  O331  1  0.65588534  0.75129002  0.91425243  1
  O  O332  1  0.99812877  0.24118479  0.42600092  1
  O  O333  1  0.97354413  0.25478248  0.91751623  1
  O  O334  1  0.99727467  0.74466060  0.41261891  1
  O  O335  1  0.97431766  0.76014575  0.92535234  1
  O  O336  1  0.21271308  0.08492093  0.19488402  1
  O  O337  1  0.21398207  0.08203433  0.70085994  1
  O  O338  1  0.21283982  0.57959786  0.19423060  1
  O  O339  1  0.21201181  0.57254414  0.69320709  1
  O  O340  1  0.54182673  0.08307507  0.19793101  1
  O  O341  1  0.54399726  0.08255434  0.70011434  1
  O  O342  1  0.54314344  0.58578912  0.19279107  1
  O  O343  1  0.54353199  0.58057214  0.69978130  1
  O  O344  1  0.87699014  0.08264689  0.20301274  1
  O  O345  1  0.87907800  0.08743825  0.69505893  1
  O  O346  1  0.87660508  0.58198309  0.20128790  1
  O  O347  1  0.87974145  0.58622861  0.69396575  1
  O  O348  1  0.04633859  0.33467375  0.19723329  1
  O  O349  1  0.04521131  0.34022538  0.69744877  1
  O  O350  1  0.04505138  0.83175181  0.19812241  1
  O  O351  1  0.04246172  0.83344927  0.70147799  1
  O  O352  1  0.37757485  0.33496753  0.19601462  1
  O  O353  1  0.37604857  0.33378663  0.69635007  1
  O  O354  1  0.37881922  0.83639958  0.19277129  1
  O  O355  1  0.36684737  0.83243668  0.69676091  1
  O  O356  1  0.71090852  0.33475659  0.20318993  1
  O  O357  1  0.70841254  0.33354357  0.69509126  1
  O  O358  1  0.70861539  0.83353698  0.19641638  1
  O  O359  1  0.71212115  0.83210057  0.69300041  1
  O  O360  1  0.21135698  0.41470000  0.19727110  1
  O  O361  1  0.20926631  0.41486116  0.69650965  1
  O  O362  1  0.21146696  0.91921357  0.19879791  1
  O  O363  1  0.20856291  0.91955105  0.69375566  1
  O  O364  1  0.54122732  0.41885474  0.19334298  1
  O  O365  1  0.54042743  0.41324026  0.69325829  1
  O  O366  1  0.54543643  0.91787389  0.19743064  1
  O  O367  1  0.54926734  0.92287919  0.68674635  1
  O  O368  1  0.87564782  0.41583350  0.19388383  1
  O  O369  1  0.87876908  0.41014954  0.69542049  1
  O  O370  1  0.87496601  0.91335600  0.19134698  1
  O  O371  1  0.87982379  0.91872358  0.70290950  1
  O  O372  1  0.03734966  0.16895008  0.19608553  1
  O  O373  1  0.04253726  0.16868764  0.69579169  1
  O  O374  1  0.04607094  0.66208007  0.19295815  1
  O  O375  1  0.03364502  0.66374171  0.69009632  1
  O  O376  1  0.37957349  0.16950672  0.19686720  1
  O  O377  1  0.37871544  0.16657733  0.69206012  1
  O  O378  1  0.37923678  0.66748872  0.19979617  1
  O  O379  1  0.37178028  0.66281291  0.68739228  1
  O  O380  1  0.70588735  0.16509758  0.19503459  1
  O  O381  1  0.71200723  0.17161920  0.69259259  1
  O  O382  1  0.71200956  0.66446845  0.19286013  1
  O  O383  1  0.71299064  0.66271404  0.69271196  1
  O  O384  1  0.12226203  0.07931108  0.30436281  1
  O  O385  1  0.12090288  0.08173213  0.80472425  1
  O  O386  1  0.12685356  0.58395132  0.30350232  1
  O  O387  1  0.12168787  0.57537526  0.80949768  1
  O  O388  1  0.45689568  0.08621206  0.30572702  1
  O  O389  1  0.45740448  0.08196337  0.80908146  1
  O  O390  1  0.45697675  0.58147523  0.30419985  1
  O  O391  1  0.45523267  0.58161755  0.80292487  1
  O  O392  1  0.78704628  0.08561963  0.30865521  1
  O  O393  1  0.79167967  0.08531701  0.80383100  1
  O  O394  1  0.78776360  0.58464523  0.30596284  1
  O  O395  1  0.78176206  0.58969162  0.80859868  1
  O  O396  1  0.29213702  0.33375132  0.30691898  1
  O  O397  1  0.29251312  0.33625125  0.80852223  1
  O  O398  1  0.29139016  0.83282190  0.30233850  1
  O  O399  1  0.29039755  0.83171970  0.80543219  1
  O  O400  1  0.61930015  0.33614346  0.30560496  1
  O  O401  1  0.61994228  0.33213743  0.80592094  1
  O  O402  1  0.61783485  0.83666607  0.30841741  1
  O  O403  1  0.63431043  0.83154569  0.80331691  1
  O  O404  1  0.95515431  0.33410880  0.30136520  1
  O  O405  1  0.95214509  0.33974891  0.80882890  1
  O  O406  1  0.95829368  0.83039891  0.30481573  1
  O  O407  1  0.95353410  0.83376302  0.80833334  1
  O  O408  1  0.12843937  0.41736183  0.30818321  1
  O  O409  1  0.12486400  0.41515394  0.80804096  1
  O  O410  1  0.12383111  0.91663454  0.30401708  1
  O  O411  1  0.12713292  0.91734034  0.80752187  1
  O  O412  1  0.45586921  0.41683203  0.30496300  1
  O  O413  1  0.45760887  0.41721857  0.80403692  1
  O  O414  1  0.45456903  0.91841081  0.30411072  1
  O  O415  1  0.45377534  0.92052548  0.80466774  1
  O  O416  1  0.79011204  0.42011614  0.30887234  1
  O  O417  1  0.78198537  0.40587564  0.80794521  1
  O  O418  1  0.78938522  0.91613858  0.29997210  1
  O  O419  1  0.78834116  0.91849594  0.80519790  1
  O  O420  1  0.29600265  0.16802288  0.30606394  1
  O  O421  1  0.29617422  0.16808072  0.80297281  1
  O  O422  1  0.28992821  0.66662896  0.30315645  1
  O  O423  1  0.29915048  0.66366878  0.80418107  1
  O  O424  1  0.62193890  0.16939572  0.30565631  1
  O  O425  1  0.61878323  0.17154797  0.80544697  1
  O  O426  1  0.61913561  0.66188840  0.30501882  1
  O  O427  1  0.62303292  0.66775660  0.80403382  1
  O  O428  1  0.95945254  0.16650941  0.30918041  1
  O  O429  1  0.95322702  0.16664475  0.80940677  1
  O  O430  1  0.96026166  0.66438990  0.30352550  1
  O  O431  1  0.95569070  0.66605434  0.80130234  1
  F  F432  1  0.04393134  0.00002174  0.20098393  1
  F  F433  1  0.04356449  0.00058001  0.70446539  1
  F  F434  1  0.04820164  0.49682052  0.20522030  1
  F  F435  1  0.04560904  0.49860833  0.70279761  1
  F  F436  1  0.38104171  0.00433317  0.20366408  1
  F  F437  1  0.38037676  0.00198556  0.70356277  1
  F  F438  1  0.37862302  0.49815090  0.20180832  1
  F  F439  1  0.37758648  0.49681011  0.70103240  1
  F  F440  1  0.70814736  0.00114809  0.20419285  1
  F  F441  1  0.71575006  -0.00183746  0.69970245  1
  F  F442  1  0.71122233  0.50063408  0.20387778  1
  F  F443  1  0.69898257  0.49717225  0.69913150  1
  F  F444  1  0.21614110  0.25638989  0.20214341  1
  F  F445  1  0.21517006  0.25994895  0.69935840  1
  F  F446  1  0.21340348  0.74916581  0.20000351  1
  F  F447  1  0.21281126  0.75593490  0.69996914  1
  F  F448  1  0.54343658  0.25113072  0.20340633  1
  F  F449  1  0.54477024  0.25138973  0.70066302  1
  F  F450  1  0.54280340  0.75174487  0.20242797  1
  F  F451  1  0.55226864  0.73726498  0.69341765  1
  F  F452  1  0.87779717  0.24779317  0.20533344  1
  F  F453  1  0.87352113  0.25125289  0.70353368  1
  F  F454  1  0.87962612  0.74902542  0.20198937  1
  F  F455  1  0.87707768  0.75136567  0.70217892  1
  F  F456  1  0.29067240  0.00247832  0.29935233  1
  F  F457  1  0.29042678  -0.00289033  0.80045522  1
  F  F458  1  0.29104788  0.50032234  0.29853607  1
  F  F459  1  0.28966552  0.49892734  0.79871083  1
  F  F460  1  0.62017020  0.00189520  0.30105726  1
  F  F461  1  0.62049865  -0.00908664  0.80135574  1
  F  F462  1  0.61946693  0.50075125  0.29686692  1
  F  F463  1  0.61966947  0.49583617  0.80031098  1
  F  F464  1  0.95634596  -0.00452387  0.29765261  1
  F  F465  1  0.95501265  0.00377660  0.80083183  1
  F  F466  1  0.95697729  0.49847386  0.30006917  1
  F  F467  1  0.96657763  0.49931212  0.80434226  1
  F  F468  1  0.12175166  0.25371640  0.30239682  1
  F  F469  1  0.12423337  0.25473488  0.80654553  1
  F  F470  1  0.12495099  0.74689418  0.29628325  1
  F  F471  1  0.11824176  0.75771821  0.80477218  1
  F  F472  1  0.45504376  0.25286739  0.29925685  1
  F  F473  1  0.45459317  0.24975485  0.79647824  1
  F  F474  1  0.45409444  0.75228622  0.29936444  1
  F  F475  1  0.45131990  0.73794894  0.79691698  1
  F  F476  1  0.78709831  0.24799923  0.30075671  1
  F  F477  1  0.78466149  0.24949139  0.80011823  1
  F  F478  1  0.79345388  0.74737752  0.29947610  1
  F  F479  1  0.78769610  0.74964176  0.79623475  1
