# generated using pymatgen
data_K24Na3Li5Mg64Fe17Si79(O5F)48
_symmetry_space_group_name_H-M   'P 1'
_cell_length_a   16.09163927
_cell_length_b   18.60126454
_cell_length_c   20.57711378
_cell_angle_alpha   89.98316446
_cell_angle_beta   100.00726056
_cell_angle_gamma   89.99637318
_symmetry_Int_Tables_number   1
_chemical_formula_structural   K24Na3Li5Mg64Fe17Si79(O5F)48
_chemical_formula_sum   'K24 Na3 Li5 Mg64 Fe17 Si79 O240 F48'
_cell_volume   6065.53266988
_cell_formula_units_Z   1
loop_
 _symmetry_equiv_pos_site_id
 _symmetry_equiv_pos_as_xyz
  1  'x, y, z'
loop_
 _atom_site_type_symbol
 _atom_site_label
 _atom_site_symmetry_multiplicity
 _atom_site_fract_x
 _atom_site_fract_y
 _atom_site_fract_z
 _atom_site_occupancy
  K  K0  1  -0.00213926  -0.00485519  0.00083460  1
  K  K1  1  -0.01557466  -0.00987957  0.48682319  1
  K  K2  1  -0.00537976  0.50477999  -0.00439981  1
  K  K3  1  0.00697808  0.50796989  0.50967531  1
  K  K4  1  0.33097070  -0.00916269  -0.00085122  1
  K  K5  1  0.33839655  -0.00779905  0.49363594  1
  K  K6  1  0.33619738  0.49471497  -0.00490810  1
  K  K7  1  0.33496134  0.50681274  0.50754774  1
  K  K8  1  0.66424536  -0.00443765  0.00659932  1
  K  K9  1  0.67118267  -0.01612433  0.49246620  1
  K  K10  1  0.65895284  0.50959215  -0.00551978  1
  K  K11  1  0.66629233  0.50509535  0.50149656  1
  K  K12  1  0.16345409  0.23566163  0.00032047  1
  K  K13  1  0.17212616  0.23607999  0.49808176  1
  K  K14  1  0.16590256  0.76029459  -0.00555739  1
  K  K15  1  0.17704442  0.76227822  0.50433776  1
  K  K16  1  0.50215580  0.25159799  0.00671690  1
  K  K17  1  0.49699955  0.23677026  0.49675631  1
  K  K18  1  0.50570231  0.75755826  -0.00336712  1
  K  K19  1  0.50250977  0.76947855  0.50198131  1
  K  K20  1  0.82817485  0.24663167  0.00341729  1
  K  K21  1  0.82803110  0.23960764  0.49407167  1
  K  K22  1  0.82984168  0.75426313  0.00170405  1
  K  K23  1  0.82679948  0.76793857  0.50211092  1
  Na  Na24  1  0.82874086  -0.00021415  0.24406840  1
  Na  Na25  1  0.16969819  0.66766277  0.75196615  1
  Na  Na26  1  -0.00117370  0.91976475  0.25090545  1
  Li  Li27  1  0.51169138  -0.00543295  0.25118547  1
  Li  Li28  1  0.17434430  0.50553004  0.75127859  1
  Li  Li29  1  0.50038912  0.66740645  0.76111187  1
  Li  Li30  1  0.49980634  0.84060898  0.24973358  1
  Li  Li31  1  0.66067889  0.06697193  0.24618078  1
  Mg  Mg32  1  -0.00115719  0.75090287  0.74624153  1
  Mg  Mg33  1  0.00022299  0.25157337  0.74957665  1
  Mg  Mg34  1  0.83189588  0.49833292  0.24735061  1
  Mg  Mg35  1  0.66740050  0.24994050  0.75109580  1
  Mg  Mg36  1  0.49922847  0.00214661  0.75160072  1
  Mg  Mg37  1  0.16659154  0.49933199  0.25544235  1
  Mg  Mg38  1  0.33360111  0.25038813  0.75146131  1
  Mg  Mg39  1  0.00055871  0.75157428  0.24852619  1
  Mg  Mg40  1  0.66269100  0.75158981  0.74556694  1
  Mg  Mg41  1  0.50035358  0.50423133  0.75263020  1
  Mg  Mg42  1  0.00009905  0.24737639  0.25252150  1
  Mg  Mg43  1  0.33510292  0.24678240  0.25716940  1
  Mg  Mg44  1  0.16971191  -0.00194164  0.25436563  1
  Mg  Mg45  1  0.66675461  0.24396456  0.24591306  1
  Mg  Mg46  1  0.83350710  0.50196300  0.74692995  1
  Mg  Mg47  1  0.49963253  0.49971114  0.25133989  1
  Mg  Mg48  1  0.66365781  0.75142226  0.24064640  1
  Mg  Mg49  1  0.83160575  0.00071819  0.74757352  1
  Mg  Mg50  1  0.33470194  0.74987757  0.75366203  1
  Mg  Mg51  1  0.33714597  0.75220612  0.25569520  1
  Mg  Mg52  1  0.16432864  0.00003500  0.75101029  1
  Mg  Mg53  1  0.16803029  0.83346967  0.75008186  1
  Mg  Mg54  1  0.50323010  0.16644747  0.75397274  1
  Mg  Mg55  1  -0.00311825  0.08666410  0.74680083  1
  Mg  Mg56  1  0.16601318  0.16717163  0.75038933  1
  Mg  Mg57  1  0.50316988  0.16153706  0.25421258  1
  Mg  Mg58  1  0.34035654  0.91506485  0.25123807  1
  Mg  Mg59  1  0.50064929  0.33242817  0.25277696  1
  Mg  Mg60  1  0.00566419  0.42003552  0.74838596  1
  Mg  Mg61  1  0.66185938  0.91682383  0.24491214  1
  Mg  Mg62  1  -0.00182051  0.58344341  0.24957239  1
  Mg  Mg63  1  0.33563385  0.58646117  0.75447996  1
  Mg  Mg64  1  0.16899881  0.83522416  0.25255978  1
  Mg  Mg65  1  0.33449005  0.41967868  0.75129283  1
  Mg  Mg66  1  0.16844929  0.33199426  0.25759897  1
  Mg  Mg67  1  0.50230469  0.33542353  0.75168743  1
  Mg  Mg68  1  -0.00346720  0.91560235  0.74660508  1
  Mg  Mg69  1  0.00011573  0.08184625  0.25421341  1
  Mg  Mg70  1  0.66857644  0.08589219  0.75104846  1
  Mg  Mg71  1  0.83686866  0.33531427  0.74873394  1
  Mg  Mg72  1  0.33419675  0.41477740  0.25771676  1
  Mg  Mg73  1  0.16646834  0.66672253  0.25444602  1
  Mg  Mg74  1  0.82993754  0.66517331  0.24633190  1
  Mg  Mg75  1  0.49930376  0.66782761  0.25098255  1
  Mg  Mg76  1  0.66456601  0.41347011  0.24895534  1
  Mg  Mg77  1  0.66335064  0.58766957  0.74838868  1
  Mg  Mg78  1  0.83182947  0.83619653  0.74528235  1
  Mg  Mg79  1  0.82887168  0.33186816  0.24769118  1
  Mg  Mg80  1  0.33481766  0.91539134  0.75391148  1
  Mg  Mg81  1  0.00378365  0.58300543  0.74612415  1
  Mg  Mg82  1  0.82819975  0.16328687  0.24643501  1
  Mg  Mg83  1  0.66403461  0.58419717  0.24699726  1
  Mg  Mg84  1  0.83105204  0.83374763  0.24206146  1
  Mg  Mg85  1  -0.00158135  0.41359572  0.25129821  1
  Mg  Mg86  1  0.33359923  0.58402639  0.25639382  1
  Mg  Mg87  1  0.17076397  0.16321024  0.25657750  1
  Mg  Mg88  1  0.66814591  0.41774611  0.74868263  1
  Mg  Mg89  1  0.33964183  0.08234379  0.25566709  1
  Mg  Mg90  1  0.66765048  0.91649363  0.74652884  1
  Mg  Mg91  1  0.83429076  0.16590806  0.74864669  1
  Mg  Mg92  1  0.50185376  0.83383621  0.74988419  1
  Mg  Mg93  1  0.33454821  0.08422793  0.75208289  1
  Mg  Mg94  1  0.16904094  0.33796285  0.74872136  1
  Mg  Mg95  1  0.83282767  0.66684654  0.74580525  1
  Fe  Fe96  1  0.47117845  0.08740583  0.89133007  1
  Fe  Fe97  1  0.46992742  0.58252677  0.89308550  1
  Fe  Fe98  1  0.51601577  0.91234365  0.10970465  1
  Fe  Fe99  1  0.52293414  0.08165080  0.11422395  1
  Fe  Fe100  1  0.64285843  0.67085765  0.88732573  1
  Fe  Fe101  1  0.68711968  0.33361978  0.10867784  1
  Fe  Fe102  1  0.31042955  0.83434540  0.39462824  1
  Fe  Fe103  1  0.31131049  0.16276016  0.39758509  1
  Fe  Fe104  1  0.97074347  0.17044433  0.88847427  1
  Fe  Fe105  1  0.80486951  0.08021793  0.88978348  1
  Fe  Fe106  1  0.69070353  0.66219272  0.10653743  1
  Fe  Fe107  1  0.68729077  0.83150175  0.60481341  1
  Fe  Fe108  1  0.86066551  0.92284035  0.60291998  1
  Fe  Fe109  1  0.97169762  0.83135173  0.88483294  1
  Fe  Fe110  1  0.02495649  0.83309798  0.11049540  1
  Fe  Fe111  1  0.30899984  0.83226417  0.89167963  1
  Fe  Fe112  1  0.64034199  0.16979035  0.89164373  1
  Si  Si113  1  0.80683076  0.91501576  0.88405821  1
  Si  Si114  1  0.96831294  0.16512110  0.38630517  1
  Si  Si115  1  0.19814070  0.08327486  0.12003174  1
  Si  Si116  1  0.29829603  0.16638362  0.88612786  1
  Si  Si117  1  0.02863016  0.66247794  0.11553750  1
  Si  Si118  1  0.30897977  0.33796564  0.39443956  1
  Si  Si119  1  0.64193581  0.33273656  0.38851241  1
  Si  Si120  1  0.86135324  0.41536551  0.61180431  1
  Si  Si121  1  0.35814681  0.33363674  0.61467488  1
  Si  Si122  1  0.80751207  0.41663812  0.38646507  1
  Si  Si123  1  0.19213306  0.08313228  0.61432250  1
  Si  Si124  1  0.19393044  0.91752971  0.61471150  1
  Si  Si125  1  0.86058834  0.58157644  0.60994121  1
  Si  Si126  1  0.81087551  0.58306069  0.88231354  1
  Si  Si127  1  0.69043274  0.17156406  0.61115814  1
  Si  Si128  1  0.80706111  0.58128983  0.38532037  1
  Si  Si129  1  0.13739426  0.92095821  0.88465018  1
  Si  Si130  1  0.86516374  0.41152281  0.11360753  1
  Si  Si131  1  0.48146931  0.91676248  0.38728278  1
  Si  Si132  1  0.96801918  0.82972530  0.38344285  1
  Si  Si133  1  0.13460568  0.08117848  0.39207182  1
  Si  Si134  1  0.35556837  0.82527834  0.11654763  1
  Si  Si135  1  0.13738681  0.91551770  0.39049351  1
  Si  Si136  1  0.85939110  0.09346207  0.60603469  1
  Si  Si137  1  0.35834417  0.17245917  0.11802888  1
  Si  Si138  1  0.19777561  0.58390455  0.61491028  1
  Si  Si139  1  0.81289678  0.41981138  0.88138678  1
  Si  Si140  1  0.52351103  0.41648750  0.61378719  1
  Si  Si141  1  0.51597666  0.58146708  0.11578360  1
  Si  Si142  1  0.69130904  0.83608369  0.10495732  1
  Si  Si143  1  0.13736500  0.41596200  0.38999021  1
  Si  Si144  1  0.35500193  0.33472098  0.12136151  1
  Si  Si145  1  0.35992326  0.83516624  0.61634606  1
  Si  Si146  1  0.13699895  0.58043148  0.88134196  1
  Si  Si147  1  0.03029855  0.83107965  0.60795613  1
  Si  Si148  1  0.19293725  0.41651662  0.12186500  1
  Si  Si149  1  0.03232123  0.32940728  0.11943350  1
  Si  Si150  1  0.19623360  0.42008300  0.61340904  1
  Si  Si151  1  0.35719684  0.16866126  0.61547321  1
  Si  Si152  1  0.69152065  0.33680405  0.61229860  1
  Si  Si153  1  0.52427851  0.08795919  0.61360752  1
  Si  Si154  1  0.52277488  0.57996696  0.61314604  1
  Si  Si155  1  0.35951993  0.66896305  0.61609152  1
  Si  Si156  1  0.98091905  0.33896553  0.88527293  1
  Si  Si157  1  0.03118937  0.16401567  0.11906793  1
  Si  Si158  1  0.64368873  0.16865453  0.38755503  1
  Si  Si159  1  0.51679016  0.41873568  0.11581723  1
  Si  Si160  1  0.13543742  0.08352218  0.88324933  1
  Si  Si161  1  0.48220531  0.08253590  0.39300103  1
  Si  Si162  1  0.97120567  0.66616097  0.38580691  1
  Si  Si163  1  0.64454456  0.83875048  0.88279505  1
  Si  Si164  1  0.14466315  0.42050581  0.88312807  1
  Si  Si165  1  0.65036438  0.33739860  0.88462477  1
  Si  Si166  1  0.48079606  0.91861273  0.88685539  1
  Si  Si167  1  0.30780083  0.33196380  0.88496888  1
  Si  Si168  1  0.80381073  0.91446777  0.37917255  1
  Si  Si169  1  0.80243236  0.08278890  0.38115225  1
  Si  Si170  1  0.69431263  0.16447571  0.10884642  1
  Si  Si171  1  0.13699635  0.58160125  0.38876708  1
  Si  Si172  1  0.47732117  0.58213747  0.38875825  1
  Si  Si173  1  0.35326619  0.66374069  0.11984247  1
  Si  Si174  1  0.19318401  0.57977922  0.12062839  1
  Si  Si175  1  0.30425275  0.66321145  0.89199154  1
  Si  Si176  1  0.19752619  0.91784651  0.11525528  1
  Si  Si177  1  0.52033927  0.92261109  0.61126561  1
  Si  Si178  1  0.02941978  0.17238492  0.61145663  1
  Si  Si179  1  0.64350051  0.83001649  0.38031086  1
  Si  Si180  1  0.64136732  0.66543491  0.38526331  1
  Si  Si181  1  0.85710133  0.91885119  0.10870487  1
  Si  Si182  1  0.97180342  0.33099124  0.38749157  1
  Si  Si183  1  0.68958127  0.65884887  0.60690572  1
  Si  Si184  1  0.86391810  0.08708863  0.11489961  1
  Si  Si185  1  0.02669668  0.66483500  0.61190442  1
  Si  Si186  1  0.30786377  0.66003408  0.39265168  1
  Si  Si187  1  0.03044500  0.33704621  0.61233106  1
  Si  Si188  1  0.47896407  0.41112216  0.88784775  1
  Si  Si189  1  0.97750008  0.66261847  0.88291948  1
  Si  Si190  1  0.47785203  0.41719035  0.39003189  1
  Si  Si191  1  0.86590887  0.57718423  0.11293903  1
  O  O192  1  0.27364977  0.12353891  0.08973606  1
  O  O193  1  0.26944173  0.12482378  0.58572131  1
  O  O194  1  0.27755474  0.60493782  0.09265882  1
  O  O195  1  0.26967303  0.62836183  0.58120658  1
  O  O196  1  0.62209953  0.10686522  0.08112798  1
  O  O197  1  0.60115751  0.12868622  0.58281839  1
  O  O198  1  0.59578370  0.60073935  0.08190579  1
  O  O199  1  0.60276135  0.60994448  0.58025593  1
  O  O200  1  0.94761944  0.11879507  0.08614040  1
  O  O201  1  0.93460199  0.14369502  0.58041296  1
  O  O202  1  0.95529588  0.60167948  0.09055914  1
  O  O203  1  0.93658307  0.62282600  0.57900902  1
  O  O204  1  0.11467854  0.36292118  0.09212768  1
  O  O205  1  0.10309701  0.38339646  0.58266651  1
  O  O206  1  0.11678037  0.87401421  0.07766282  1
  O  O207  1  0.11072802  0.87123934  0.58137669  1
  O  O208  1  0.43607420  0.36362279  0.09075701  1
  O  O209  1  0.43823961  0.36867333  0.58472204  1
  O  O210  1  0.43347846  0.84043700  0.07957680  1
  O  O211  1  0.42968965  0.88075967  0.58399336  1
  O  O212  1  0.78659097  0.36450074  0.07903990  1
  O  O213  1  0.76998124  0.37571094  0.58203417  1
  O  O214  1  0.77085252  0.87477059  0.07621381  1
  O  O215  1  0.76457658  0.87641849  0.56143284  1
  O  O216  1  0.27669924  0.39031626  0.09336982  1
  O  O217  1  0.27156025  0.37779695  0.58217453  1
  O  O218  1  0.27954828  0.88314910  0.08844328  1
  O  O219  1  0.27087748  0.87679329  0.58637491  1
  O  O220  1  0.59406893  0.39649778  0.07995066  1
  O  O221  1  0.60434517  0.38229570  0.58340311  1
  O  O222  1  0.60927559  0.88213010  0.07309710  1
  O  O223  1  0.58781193  0.88512485  0.57292196  1
  O  O224  1  0.95166900  0.37959962  0.08947807  1
  O  O225  1  0.93699394  0.37249046  0.58201675  1
  O  O226  1  0.93305257  0.89043831  0.07258927  1
  O  O227  1  0.94696471  0.87049330  0.56965575  1
  O  O228  1  0.11185970  0.13001466  0.09061963  1
  O  O229  1  0.10381460  0.12640432  0.58305065  1
  O  O230  1  0.11395302  0.63054291  0.08989477  1
  O  O231  1  0.10334038  0.61918131  0.58551779  1
  O  O232  1  0.43696408  0.15381810  0.08337972  1
  O  O233  1  0.43710504  0.13456593  0.58592224  1
  O  O234  1  0.43609664  0.63632836  0.09049864  1
  O  O235  1  0.43557104  0.62612699  0.58553072  1
  O  O236  1  0.78462809  0.13917247  0.08487175  1
  O  O237  1  0.76929843  0.13827735  0.57955895  1
  O  O238  1  0.78716037  0.62332079  0.07717191  1
  O  O239  1  0.76767193  0.61486644  0.57833427  1
  O  O240  1  0.05737688  0.12670598  0.41861578  1
  O  O241  1  0.05686459  0.10273654  0.91905713  1
  O  O242  1  0.06201299  0.62610049  0.41678864  1
  O  O243  1  0.05108764  0.60176927  0.91100665  1
  O  O244  1  0.41166215  0.11417141  0.43422947  1
  O  O245  1  0.36767183  0.11024173  0.92004848  1
  O  O246  1  0.39582590  0.61249708  0.41874875  1
  O  O247  1  0.36943938  0.60167023  0.92599162  1
  O  O248  1  0.73158396  0.12514296  0.41750220  1
  O  O249  1  0.70779883  0.09395741  0.92459629  1
  O  O250  1  0.72884878  0.61946485  0.41465995  1
  O  O251  1  0.73237335  0.60380288  0.91669560  1
  O  O252  1  0.23095540  0.38363534  0.42019619  1
  O  O253  1  0.22848398  0.37066791  0.91342449  1
  O  O254  1  0.22300457  0.88005544  0.43169043  1
  O  O255  1  0.21179916  0.86807295  0.91987702  1
  O  O256  1  0.56415036  0.37122614  0.41978207  1
  O  O257  1  0.56349397  0.36051502  0.91192714  1
  O  O258  1  0.56915890  0.86904636  0.41272833  1
  O  O259  1  0.55721456  0.85948279  0.90985531  1
  O  O260  1  0.89659787  0.37464794  0.41679663  1
  O  O261  1  0.89420712  0.36833752  0.91096410  1
  O  O262  1  0.89427930  0.87497290  0.41284731  1
  O  O263  1  0.86770313  0.84756705  0.91142126  1
  O  O264  1  0.06329403  0.36961084  0.41801673  1
  O  O265  1  0.05930373  0.39604732  0.91230532  1
  O  O266  1  0.05744266  0.86997535  0.41294982  1
  O  O267  1  0.05137125  0.90439261  0.91326289  1
  O  O268  1  0.39664471  0.38561395  0.41987453  1
  O  O269  1  0.39709188  0.37217508  0.91448064  1
  O  O270  1  0.41189545  0.88312663  0.42843722  1
  O  O271  1  0.40041013  0.89398001  0.91952919  1
  O  O272  1  0.73019732  0.37782522  0.41690535  1
  O  O273  1  0.72619998  0.39821286  0.90863362  1
  O  O274  1  0.73153444  0.87233304  0.41278359  1
  O  O275  1  0.71377245  0.90286695  0.90698566  1
  O  O276  1  0.22100431  0.11792058  0.43047191  1
  O  O277  1  0.20807599  0.14508073  0.90862978  1
  O  O278  1  0.23084222  0.61298250  0.41922011  1
  O  O279  1  0.20965634  0.63922502  0.90949933  1
  O  O280  1  0.56928638  0.13054344  0.42074132  1
  O  O281  1  0.53784976  0.16520252  0.91999435  1
  O  O282  1  0.56439970  0.62684387  0.41745634  1
  O  O283  1  0.55514699  0.64439049  0.92989961  1
  O  O284  1  0.89252061  0.12381730  0.41557045  1
  O  O285  1  0.87801989  0.15328157  0.92585447  1
  O  O286  1  0.89693607  0.62131444  0.41555578  1
  O  O287  1  0.89307760  0.63372174  0.91087028  1
  O  O288  1  0.18854061  0.00264756  0.08847291  1
  O  O289  1  0.18574240  0.00086247  0.58470639  1
  O  O290  1  0.16948277  0.49746060  0.09310770  1
  O  O291  1  0.19216528  0.50151727  0.58098945  1
  O  O292  1  0.47756063  -0.00073945  0.07293420  1
  O  O293  1  0.50741433  0.00709638  0.58299646  1
  O  O294  1  0.48051460  0.49958952  0.09330489  1
  O  O295  1  0.50553899  0.49711027  0.58105560  1
  O  O296  1  0.84378655  0.00553512  0.08729607  1
  O  O297  1  0.85697479  0.01863256  0.56696161  1
  O  O298  1  0.85571053  0.49382559  0.08556991  1
  O  O299  1  0.85841516  0.49746103  0.58091054  1
  O  O300  1  0.01983228  0.24766954  0.09025647  1
  O  O301  1  0.03385641  0.25525095  0.58208075  1
  O  O302  1  0.00299648  0.73705341  0.07904330  1
  O  O303  1  0.02881182  0.74602759  0.58052591  1
  O  O304  1  0.32567352  0.25557687  0.09283919  1
  O  O305  1  0.34453311  0.25116758  0.58544208  1
  O  O306  1  0.31987570  0.74252859  0.09270506  1
  O  O307  1  0.35457865  0.75219903  0.58610820  1
  O  O308  1  0.66817343  0.24220878  0.07289037  1
  O  O309  1  0.67827114  0.25513502  0.58111149  1
  O  O310  1  0.68006042  0.75494112  0.07352339  1
  O  O311  1  0.67604523  0.73521190  0.57015803  1
  O  O312  1  0.12732999  -0.00167202  0.41880990  1
  O  O313  1  0.17156601  0.00376212  0.90700098  1
  O  O314  1  0.13274480  0.49867380  0.41792839  1
  O  O315  1  0.16754751  0.50075381  0.91460923  1
  O  O316  1  0.50445878  -0.00082553  0.41719206  1
  O  O317  1  0.51486424  -0.00373177  0.91606597  1
  O  O318  1  0.49480481  0.49955281  0.41881213  1
  O  O319  1  0.49575282  0.48641187  0.92549136  1
  O  O320  1  0.81012626  -0.00162392  0.40769536  1
  O  O321  1  0.84891083  -0.01121781  0.91656404  1
  O  O322  1  0.81543893  0.49887401  0.41674047  1
  O  O323  1  0.84179130  0.50039513  0.90747831  1
  O  O324  1  0.31801438  0.26088818  0.43017682  1
  O  O325  1  0.31566749  0.24995591  0.91404179  1
  O  O326  1  0.31578802  0.73703976  0.42820087  1
  O  O327  1  0.32704902  0.73996625  0.92877661  1
  O  O328  1  0.65577634  0.25188748  0.42084317  1
  O  O329  1  0.68689173  0.26278212  0.91568276  1
  O  O330  1  0.65399598  0.74741307  0.41348734  1
  O  O331  1  0.68074853  0.76375973  0.91539572  1
  O  O332  1  0.97317380  0.24888214  0.41706963  1
  O  O333  1  1.01071193  0.26365348  0.91960589  1
  O  O334  1  0.97356479  0.74742805  0.41681073  1
  O  O335  1  1.00841775  0.73853928  0.91613139  1
  O  O336  1  0.21317834  0.08434689  0.20017968  1
  O  O337  1  0.20886587  0.08548566  0.69438210  1
  O  O338  1  0.21003767  0.57975906  0.20148432  1
  O  O339  1  0.22021688  0.57864848  0.69280892  1
  O  O340  1  0.54160097  0.08476176  0.20368835  1
  O  O341  1  0.54359488  0.08726971  0.69307987  1
  O  O342  1  0.53846497  0.58099514  0.19719127  1
  O  O343  1  0.54607052  0.57514864  0.69150874  1
  O  O344  1  0.88599539  0.09288898  0.19423925  1
  O  O345  1  0.87700671  0.08901332  0.68609464  1
  O  O346  1  0.87812614  0.57867989  0.19459065  1
  O  O347  1  0.87661075  0.58179781  0.68985522  1
  O  O348  1  0.04728278  0.33190606  0.20016703  1
  O  O349  1  0.04561324  0.33614240  0.69222184  1
  O  O350  1  0.05357709  0.82457786  0.20072372  1
  O  O351  1  0.04485788  0.83373256  0.68808867  1
  O  O352  1  0.37444835  0.33524129  0.20211320  1
  O  O353  1  0.37632769  0.33457562  0.69464294  1
  O  O354  1  0.37373385  0.82811212  0.19666797  1
  O  O355  1  0.37878820  0.83615415  0.69570748  1
  O  O356  1  0.70884274  0.33378063  0.20134533  1
  O  O357  1  0.71104309  0.33633942  0.69212545  1
  O  O358  1  0.70932785  0.83086779  0.18646909  1
  O  O359  1  0.71065330  0.83421749  0.69616323  1
  O  O360  1  0.20997170  0.41573973  0.20258023  1
  O  O361  1  0.21456972  0.41392931  0.69237578  1
  O  O362  1  0.21123320  0.91778795  0.19605104  1
  O  O363  1  0.20851750  0.92057441  0.69432626  1
  O  O364  1  0.53906585  0.41581084  0.19732355  1
  O  O365  1  0.54371859  0.41571630  0.69365588  1
  O  O366  1  0.54191262  0.91241216  0.19803446  1
  O  O367  1  0.54057381  0.92170323  0.69160195  1
  O  O368  1  0.87907729  0.41351123  0.19527797  1
  O  O369  1  0.87792709  0.41604882  0.69157208  1
  O  O370  1  0.87402112  0.90782821  0.18702742  1
  O  O371  1  0.87618156  0.92126280  0.69432091  1
  O  O372  1  0.04835156  0.16835249  0.19953921  1
  O  O373  1  0.04677032  0.17135148  0.69128842  1
  O  O374  1  0.04575986  0.66217476  0.19708699  1
  O  O375  1  0.03427601  0.66613085  0.69036593  1
  O  O376  1  0.37693766  0.17050106  0.19895785  1
  O  O377  1  0.37366403  0.16956686  0.69515430  1
  O  O378  1  0.37358672  0.66211505  0.20059448  1
  O  O379  1  0.37191088  0.66782905  0.69479100  1
  O  O380  1  0.71442100  0.17412609  0.18897768  1
  O  O381  1  0.71043135  0.17257188  0.69064104  1
  O  O382  1  0.71059998  0.66211247  0.19877565  1
  O  O383  1  0.71107069  0.66113833  0.68700227  1
  O  O384  1  0.12468009  0.08542193  0.31184224  1
  O  O385  1  0.11916751  0.08627069  0.80166495  1
  O  O386  1  0.12057584  0.58049723  0.30846938  1
  O  O387  1  0.11639017  0.57403076  0.80280268  1
  O  O388  1  0.45449129  0.09236734  0.31448061  1
  O  O389  1  0.45322039  0.08584286  0.79800579  1
  O  O390  1  0.45737789  0.57980104  0.30870080  1
  O  O391  1  0.45522510  0.58004950  0.80170319  1
  O  O392  1  0.78434490  0.09196685  0.30357704  1
  O  O393  1  0.78966468  0.08516061  0.79564547  1
  O  O394  1  0.79106192  0.57933479  0.30543243  1
  O  O395  1  0.79149557  0.58316065  0.80088412  1
  O  O396  1  0.29018562  0.33586685  0.31347219  1
  O  O397  1  0.29041455  0.33385186  0.80431252  1
  O  O398  1  0.28951613  0.83229918  0.30360592  1
  O  O399  1  0.28826969  0.83433531  0.79978492  1
  O  O400  1  0.62154167  0.33631676  0.30899463  1
  O  O401  1  0.62747595  0.33696403  0.80301567  1
  O  O402  1  0.62799129  0.82642963  0.30153654  1
  O  O403  1  0.62324916  0.83657859  0.80162418  1
  O  O404  1  0.95616100  0.33353620  0.30741331  1
  O  O405  1  0.96087067  0.33785429  0.80373273  1
  O  O406  1  0.94855078  0.82254479  0.30494000  1
  O  O407  1  0.95291552  0.83200757  0.79305340  1
  O  O408  1  0.12130727  0.41534875  0.30959719  1
  O  O409  1  0.12497751  0.41484022  0.80347051  1
  O  O410  1  0.13458652  0.91676341  0.31173981  1
  O  O411  1  0.12096137  0.91868417  0.80266559  1
  O  O412  1  0.45851970  0.41655769  0.30977515  1
  O  O413  1  0.45870499  0.41435198  0.80649049  1
  O  O414  1  0.45370602  0.91527555  0.30898999  1
  O  O415  1  0.45809749  0.91888869  0.80475812  1
  O  O416  1  0.79140557  0.41671753  0.30658258  1
  O  O417  1  0.79345082  0.41722668  0.80053138  1
  O  O418  1  0.78588312  0.90675497  0.30096365  1
  O  O419  1  0.78927476  0.91878893  0.80235208  1
  O  O420  1  0.28974808  0.16746350  0.30625705  1
  O  O421  1  0.28690515  0.16880688  0.80464360  1
  O  O422  1  0.28848809  0.66077282  0.31209716  1
  O  O423  1  0.30093619  0.66756802  0.81221128  1
  O  O424  1  0.62183262  0.17673445  0.30925615  1
  O  O425  1  0.62376807  0.16946890  0.79778504  1
  O  O426  1  0.62132808  0.66046582  0.30589389  1
  O  O427  1  0.62442110  0.66871887  0.79564527  1
  O  O428  1  0.95522156  0.16976414  0.30672107  1
  O  O429  1  0.95518138  0.17039753  0.79523542  1
  O  O430  1  0.95482877  0.66235479  0.30575265  1
  O  O431  1  0.95682011  0.66339883  0.80167465  1
  F  F432  1  0.05513899  0.01182407  0.20284763  1
  F  F433  1  0.04582581  0.00337222  0.69811551  1
  F  F434  1  0.04699691  0.49660782  0.20580256  1
  F  F435  1  0.03506831  0.49851611  0.69152117  1
  F  F436  1  0.37073797  0.00176933  0.20447221  1
  F  F437  1  0.37474806  0.00026229  0.70040537  1
  F  F438  1  0.37508779  0.49783815  0.20912842  1
  F  F439  1  0.38200630  0.49455552  0.69835288  1
  F  F440  1  0.69792275  -0.00553772  0.19220815  1
  F  F441  1  0.70899857  0.00254000  0.69651551  1
  F  F442  1  0.71113276  0.49737900  0.20315762  1
  F  F443  1  0.71325624  0.49846520  0.69813842  1
  F  F444  1  0.21177836  0.25325462  0.20824164  1
  F  F445  1  0.21274445  0.25136824  0.70031530  1
  F  F446  1  0.21427033  0.74367652  0.20790372  1
  F  F447  1  0.21705530  0.75848849  0.69561055  1
  F  F448  1  0.54277449  0.25234729  0.20517932  1
  F  F449  1  0.54393514  0.25465905  0.69968444  1
  F  F450  1  0.54487442  0.73936724  0.19931340  1
  F  F451  1  0.54566548  0.76077027  0.69302051  1
  F  F452  1  0.88268185  0.25296596  0.20328859  1
  F  F453  1  0.88002332  0.25677899  0.69620976  1
  F  F454  1  0.88027898  0.74306346  0.19947696  1
  F  F455  1  0.87689156  0.74586756  0.69415751  1
  F  F456  1  0.28918190  0.00096612  0.30350518  1
  F  F457  1  0.28564257  0.00218998  0.79628475  1
  F  F458  1  0.28722379  0.49829338  0.30558900  1
  F  F459  1  0.29383607  0.49826821  0.79920620  1
  F  F460  1  0.63056660  -0.00884540  0.30587448  1
  F  F461  1  0.62102390  0.00116090  0.79219697  1
  F  F462  1  0.62191201  0.49845300  0.29896300  1
  F  F463  1  0.62445611  0.49888102  0.79552193  1
  F  F464  1  0.96175613  0.01226465  0.31167930  1
  F  F465  1  0.95489074  0.00414825  0.79190425  1
  F  F466  1  0.95401963  0.49771045  0.29919524  1
  F  F467  1  0.95304669  0.49930872  0.79314152  1
  F  F468  1  0.12077631  0.25096016  0.30491695  1
  F  F469  1  0.12258057  0.25377185  0.79452387  1
  F  F470  1  0.12027764  0.74273151  0.30551124  1
  F  F471  1  0.11440197  0.75907460  0.79677008  1
  F  F472  1  0.45514950  0.25446743  0.30409278  1
  F  F473  1  0.45362339  0.25316910  0.79572974  1
  F  F474  1  0.45243769  0.73772451  0.30639464  1
  F  F475  1  0.45513413  0.75510324  0.79724058  1
  F  F476  1  0.79009413  0.25072290  0.29979075  1
  F  F477  1  0.79061883  0.25394947  0.79266350  1
  F  F478  1  0.78668656  0.74748847  0.29398856  1
  F  F479  1  0.78799710  0.74711006  0.79049107  1
