# generated using pymatgen
data_K24Na3Li5Mg64Fe17Si79(O5F)48
_symmetry_space_group_name_H-M   'P 1'
_cell_length_a   16.08176733
_cell_length_b   18.57965482
_cell_length_c   20.55235236
_cell_angle_alpha   90.00739680
_cell_angle_beta   100.01110439
_cell_angle_gamma   89.97017618
_symmetry_Int_Tables_number   1
_chemical_formula_structural   K24Na3Li5Mg64Fe17Si79(O5F)48
_chemical_formula_sum   'K24 Na3 Li5 Mg64 Fe17 Si79 O240 F48'
_cell_volume   6047.41124017
_cell_formula_units_Z   1
loop_
 _symmetry_equiv_pos_site_id
 _symmetry_equiv_pos_as_xyz
  1  'x, y, z'
loop_
 _atom_site_type_symbol
 _atom_site_label
 _atom_site_symmetry_multiplicity
 _atom_site_fract_x
 _atom_site_fract_y
 _atom_site_fract_z
 _atom_site_occupancy
  K  K0  1  0.00534926  -0.00484776  0.00638153  1
  K  K1  1  -0.00290142  0.00230816  0.49122623  1
  K  K2  1  0.00103200  0.50690916  0.00450490  1
  K  K3  1  -0.00502347  0.49730739  0.49456000  1
  K  K4  1  0.34481423  0.00668310  0.00726614  1
  K  K5  1  0.32755803  -0.00868480  0.49654559  1
  K  K6  1  0.33931547  0.49980662  0.00244793  1
  K  K7  1  0.34341967  0.49704683  0.49590282  1
  K  K8  1  0.66085579  -0.01091981  0.00423195  1
  K  K9  1  0.68030102  0.00114161  0.49360446  1
  K  K10  1  0.66453513  0.49944204  0.00254666  1
  K  K11  1  0.65874334  0.48769870  0.49216300  1
  K  K12  1  0.17372573  0.24608471  0.00180691  1
  K  K13  1  0.16324164  0.25157931  0.49810615  1
  K  K14  1  0.17203316  0.74620337  0.00799942  1
  K  K15  1  0.16573841  0.75313989  0.48535827  1
  K  K16  1  0.49909038  0.25932098  0.00590904  1
  K  K17  1  0.51321864  0.26405745  0.49801172  1
  K  K18  1  0.50201621  0.75087878  -0.00123723  1
  K  K19  1  0.49337962  0.74387059  0.48634422  1
  K  K20  1  0.83922246  0.24440584  0.00003256  1
  K  K21  1  0.81602139  0.24789607  0.49224381  1
  K  K22  1  0.82938797  0.74899808  0.00399414  1
  K  K23  1  0.82153395  0.74981103  0.49496209  1
  Na  Na24  1  0.32969051  0.74835314  0.25127917  1
  Na  Na25  1  0.49638330  0.67186156  0.24986922  1
  Na  Na26  1  0.50040810  0.83239621  0.75879826  1
  Li  Li27  1  0.66280861  0.25810804  0.24128295  1
  Li  Li28  1  -0.00181621  0.24552826  0.74684385  1
  Li  Li29  1  0.00075446  0.08851038  0.74822853  1
  Li  Li30  1  0.16793514  0.66646142  0.23663332  1
  Li  Li31  1  0.66361595  0.41135976  0.23935392  1
  Mg  Mg32  1  0.33186934  0.75036595  0.75597176  1
  Mg  Mg33  1  0.33248843  0.25137627  0.74868004  1
  Mg  Mg34  1  0.50263963  0.50301431  0.24675240  1
  Mg  Mg35  1  0.16256920  0.00243153  0.74898608  1
  Mg  Mg36  1  0.50032677  -0.00088020  0.75379494  1
  Mg  Mg37  1  0.83827477  0.00111826  0.75087296  1
  Mg  Mg38  1  0.83182239  0.00144382  0.25695022  1
  Mg  Mg39  1  -0.00180997  0.75064926  0.75012584  1
  Mg  Mg40  1  0.66439131  0.75032305  0.75389228  1
  Mg  Mg41  1  0.49973366  0.49730705  0.74771910  1
  Mg  Mg42  1  0.00669836  0.74843943  0.25457777  1
  Mg  Mg43  1  0.33627589  0.25015453  0.24617525  1
  Mg  Mg44  1  0.83129346  0.49599675  0.24558143  1
  Mg  Mg45  1  0.16494046  -0.00183389  0.25141910  1
  Mg  Mg46  1  -0.00052261  0.25193389  0.25134052  1
  Mg  Mg47  1  0.16820294  0.50366934  0.24569037  1
  Mg  Mg48  1  0.16453592  0.49992302  0.74975522  1
  Mg  Mg49  1  0.66845640  0.75042670  0.25456246  1
  Mg  Mg50  1  0.50066791  0.00093516  0.25283116  1
  Mg  Mg51  1  0.66953015  0.25003444  0.74385816  1
  Mg  Mg52  1  0.83071166  0.49891991  0.74725268  1
  Mg  Mg53  1  -0.00209598  0.58401350  0.75018774  1
  Mg  Mg54  1  0.50126790  0.16818491  0.25060172  1
  Mg  Mg55  1  0.84024973  0.16580830  0.74513470  1
  Mg  Mg56  1  0.16292673  0.83173913  0.25448325  1
  Mg  Mg57  1  0.83170104  0.83508144  0.75149426  1
  Mg  Mg58  1  0.33431375  0.58504114  0.75347920  1
  Mg  Mg59  1  0.00239827  0.58378906  0.24733577  1
  Mg  Mg60  1  0.67047627  0.91672923  0.25792975  1
  Mg  Mg61  1  -0.00254819  0.41282486  0.74543125  1
  Mg  Mg62  1  0.33148314  0.91457714  0.25313224  1
  Mg  Mg63  1  0.66643621  0.41345506  0.74512191  1
  Mg  Mg64  1  0.16740915  0.33459794  0.24684811  1
  Mg  Mg65  1  0.33490186  0.91717183  0.75602500  1
  Mg  Mg66  1  -0.00125868  0.08559042  0.25683315  1
  Mg  Mg67  1  0.66684468  0.58340508  0.74909296  1
  Mg  Mg68  1  0.82769205  0.33459814  0.24798305  1
  Mg  Mg69  1  0.16700651  0.66585317  0.75233987  1
  Mg  Mg70  1  0.16126016  0.16770444  0.74962145  1
  Mg  Mg71  1  0.33447358  0.41681032  0.24376999  1
  Mg  Mg72  1  0.50477458  0.33558224  0.24348614  1
  Mg  Mg73  1  0.16744671  0.83486071  0.75353424  1
  Mg  Mg74  1  0.16686342  0.16543338  0.25117397  1
  Mg  Mg75  1  0.33407344  0.08464930  0.75197570  1
  Mg  Mg76  1  0.66794465  0.08758983  0.25462883  1
  Mg  Mg77  1  0.83721261  0.83473269  0.25745397  1
  Mg  Mg78  1  0.16337059  0.33247270  0.74920397  1
  Mg  Mg79  1  0.83377156  0.33110605  0.74360264  1
  Mg  Mg80  1  0.50193694  0.33541676  0.74628763  1
  Mg  Mg81  1  0.66441117  0.58194508  0.24974607  1
  Mg  Mg82  1  0.33327599  0.08442596  0.25000858  1
  Mg  Mg83  1  -0.00001868  0.91912902  0.74935840  1
  Mg  Mg84  1  0.50066139  0.66578581  0.75301647  1
  Mg  Mg85  1  0.82819895  0.16980653  0.25481091  1
  Mg  Mg86  1  -0.00158755  0.41647704  0.24675928  1
  Mg  Mg87  1  0.83516577  0.66406715  0.25093548  1
  Mg  Mg88  1  0.66983894  0.08329819  0.74726272  1
  Mg  Mg89  1  0.50222881  0.16619181  0.74927933  1
  Mg  Mg90  1  0.83150936  0.66541466  0.75049750  1
  Mg  Mg91  1  0.50065408  0.83341541  0.25648627  1
  Mg  Mg92  1  0.32998708  0.58532511  0.24544124  1
  Mg  Mg93  1  0.66649978  0.91572457  0.75406585  1
  Mg  Mg94  1  0.33431648  0.41572809  0.74831481  1
  Mg  Mg95  1  0.00076790  0.91485506  0.25590589  1
  Fe  Fe96  1  0.19590863  0.58192244  0.10280775  1
  Fe  Fe97  1  0.14218402  0.91678303  0.39481134  1
  Fe  Fe98  1  0.80716220  0.57925171  0.88825145  1
  Fe  Fe99  1  0.64676274  0.83252206  0.89617013  1
  Fe  Fe100  1  0.36136717  0.16483143  0.11043106  1
  Fe  Fe101  1  0.81081803  0.91130131  0.39808459  1
  Fe  Fe102  1  0.80966905  0.08784296  0.39651149  1
  Fe  Fe103  1  0.02163318  0.66643079  0.10939038  1
  Fe  Fe104  1  0.02261563  0.83522404  0.11218613  1
  Fe  Fe105  1  0.69059285  0.32712224  0.10445842  1
  Fe  Fe106  1  0.69475203  0.33051816  0.60296930  1
  Fe  Fe107  1  0.47146793  0.92477834  0.89690042  1
  Fe  Fe108  1  0.47905729  0.41192562  0.88775468  1
  Fe  Fe109  1  0.52170677  0.42057385  0.60360957  1
  Fe  Fe110  1  0.52607831  0.42652832  0.10683847  1
  Fe  Fe111  1  0.85992357  0.41103463  0.10644414  1
  Fe  Fe112  1  0.30751768  0.66648221  0.89216704  1
  Si  Si113  1  0.19604301  0.91478706  0.11500080  1
  Si  Si114  1  0.13204468  0.41642716  0.88223393  1
  Si  Si115  1  0.69633950  0.83567541  0.12148420  1
  Si  Si116  1  0.52835090  0.91330340  0.12158324  1
  Si  Si117  1  0.81527101  0.08356686  0.88317657  1
  Si  Si118  1  0.13662866  0.91793301  0.88538739  1
  Si  Si119  1  0.47163705  0.58006050  0.38382787  1
  Si  Si120  1  0.80680622  0.58059219  0.38717609  1
  Si  Si121  1  0.14343655  0.08257026  0.88392391  1
  Si  Si122  1  0.35492797  0.67132216  0.61525429  1
  Si  Si123  1  0.64793882  0.32792969  0.88289654  1
  Si  Si124  1  0.30801413  0.66269224  0.38528668  1
  Si  Si125  1  0.86063182  0.91500610  0.61488353  1
  Si  Si126  1  0.80719106  0.41529735  0.38430706  1
  Si  Si127  1  0.47089703  0.08198086  0.38895736  1
  Si  Si128  1  0.30819837  0.16822412  0.38621614  1
  Si  Si129  1  0.64113291  0.66261435  0.38641001  1
  Si  Si130  1  0.97054176  0.67086706  0.88446951  1
  Si  Si131  1  0.68917686  0.16185503  0.11603375  1
  Si  Si132  1  0.35676147  0.16326840  0.61357841  1
  Si  Si133  1  0.53148483  0.07767385  0.11624682  1
  Si  Si134  1  0.02662870  0.83213099  0.61560579  1
  Si  Si135  1  0.31081844  0.33260845  0.38256921  1
  Si  Si136  1  0.19176241  0.41602243  0.61249170  1
  Si  Si137  1  0.47311961  0.91589785  0.38925366  1
  Si  Si138  1  0.85601636  0.08698048  0.12044133  1
  Si  Si139  1  0.63884688  0.33364767  0.37978644  1
  Si  Si140  1  0.14288508  0.08958263  0.39107657  1
  Si  Si141  1  0.47425562  0.41730357  0.38157488  1
  Si  Si142  1  0.69244929  0.15713593  0.60871226  1
  Si  Si143  1  0.02701712  0.66687682  0.61389908  1
  Si  Si144  1  0.30650476  0.16969253  0.88391782  1
  Si  Si145  1  0.97802168  0.34004528  0.38595750  1
  Si  Si146  1  0.85260514  0.57993400  0.11295701  1
  Si  Si147  1  0.35776030  0.33453477  0.10896322  1
  Si  Si148  1  0.29959935  0.33572996  0.88464338  1
  Si  Si149  1  0.02330568  0.16343090  0.11777816  1
  Si  Si150  1  0.47758352  0.58108129  0.88572553  1
  Si  Si151  1  0.65081526  0.16670502  0.88146681  1
  Si  Si152  1  0.36284107  0.83667561  0.11877290  1
  Si  Si153  1  0.36149892  0.67035051  0.11088075  1
  Si  Si154  1  0.97827955  0.17595129  0.39117265  1
  Si  Si155  1  0.97169285  0.32829798  0.87928870  1
  Si  Si156  1  0.85792860  0.92367304  0.11862275  1
  Si  Si157  1  0.03211895  0.32906706  0.11253204  1
  Si  Si158  1  0.97572449  0.82258673  0.39559219  1
  Si  Si159  1  0.14595620  0.41696594  0.38398827  1
  Si  Si160  1  0.69190654  0.67115059  0.61359866  1
  Si  Si161  1  0.52707244  0.59342381  0.11135612  1
  Si  Si162  1  0.69566375  0.67115717  0.11720911  1
  Si  Si163  1  0.97825559  0.16586257  0.88126472  1
  Si  Si164  1  0.52289416  0.07938568  0.61347686  1
  Si  Si165  1  0.52186959  0.59233868  0.61101622  1
  Si  Si166  1  0.63247116  0.16806998  0.38978498  1
  Si  Si167  1  0.02547577  0.16894879  0.61363015  1
  Si  Si168  1  0.69137744  0.83680897  0.61458041  1
  Si  Si169  1  0.86320370  0.08012991  0.61386715  1
  Si  Si170  1  0.18974162  0.91882575  0.61680737  1
  Si  Si171  1  0.19206770  0.58233321  0.61379900  1
  Si  Si172  1  0.97752459  0.65660378  0.38784826  1
  Si  Si173  1  0.18919657  0.08422716  0.61412872  1
  Si  Si174  1  0.97499449  0.83458102  0.88373287  1
  Si  Si175  1  0.64029238  0.66181963  0.88805671  1
  Si  Si176  1  0.14540640  0.57924558  0.38588739  1
  Si  Si177  1  0.52309363  0.91596038  0.61648395  1
  Si  Si178  1  0.35394825  0.32914309  0.60881801  1
  Si  Si179  1  0.48042040  0.09484186  0.88851006  1
  Si  Si180  1  0.35284481  0.83520576  0.61831026  1
  Si  Si181  1  0.13206258  0.58264467  0.88544085  1
  Si  Si182  1  0.86348683  0.42034046  0.60740582  1
  Si  Si183  1  0.85895686  0.58722281  0.61193864  1
  Si  Si184  1  0.30827450  0.83170913  0.39089284  1
  Si  Si185  1  0.30269354  0.83897933  0.89246185  1
  Si  Si186  1  0.81220844  0.41119099  0.88272298  1
  Si  Si187  1  0.18873745  0.08004545  0.11447242  1
  Si  Si188  1  0.19129442  0.41252243  0.11105413  1
  Si  Si189  1  0.81292913  0.91959189  0.88815351  1
  Si  Si190  1  0.63782558  0.82931776  0.39344222  1
  Si  Si191  1  0.02774278  0.33455342  0.61165535  1
  O  O192  1  0.26260280  0.11083073  0.07827476  1
  O  O193  1  0.27088817  0.11646324  0.58450858  1
  O  O194  1  0.29094645  0.61860231  0.06812249  1
  O  O195  1  0.26923382  0.62331426  0.58515361  1
  O  O196  1  0.62168036  0.09512697  0.09198032  1
  O  O197  1  0.60381663  0.11062723  0.58361297  1
  O  O198  1  0.61171571  0.62619202  0.08436549  1
  O  O199  1  0.60084247  0.63435385  0.58321404  1
  O  O200  1  0.93867184  0.11543638  0.08928580  1
  O  O201  1  0.93718443  0.12521072  0.58450111  1
  O  O202  1  0.93363058  0.60004008  0.08007718  1
  O  O203  1  0.93501945  0.63057495  0.58289568  1
  O  O204  1  0.12317538  0.34573059  0.08869348  1
  O  O205  1  0.10537804  0.37248789  0.58031016  1
  O  O206  1  0.12134037  0.86384535  0.07864779  1
  O  O207  1  0.10210853  0.87510078  0.58723974  1
  O  O208  1  0.43540176  0.36357555  0.07639796  1
  O  O209  1  0.42361244  0.36380400  0.57132981  1
  O  O210  1  0.44718552  0.86388461  0.08925263  1
  O  O211  1  0.43508061  0.87015524  0.59095241  1
  O  O212  1  0.78698271  0.34073916  0.06841881  1
  O  O213  1  0.78362348  0.37725380  0.56892742  1
  O  O214  1  0.77379253  0.87318155  0.09134920  1
  O  O215  1  0.76729891  0.87999269  0.58558662  1
  O  O216  1  0.27736215  0.38919604  0.08383831  1
  O  O217  1  0.26498303  0.37374141  0.58139877  1
  O  O218  1  0.28505438  0.89230130  0.08902378  1
  O  O219  1  0.26884401  0.88362799  0.58636915  1
  O  O220  1  0.61111590  0.39263278  0.06588540  1
  O  O221  1  0.60142066  0.38008643  0.56007746  1
  O  O222  1  0.61103923  0.88263688  0.09338393  1
  O  O223  1  0.60018955  0.87612796  0.58536223  1
  O  O224  1  0.96276720  0.38464404  0.07649072  1
  O  O225  1  0.94709363  0.38574838  0.58126432  1
  O  O226  1  0.93504705  0.90366007  0.08166221  1
  O  O227  1  0.93389929  0.86786673  0.58682962  1
  O  O228  1  0.10066939  0.12598536  0.08731684  1
  O  O229  1  0.10411701  0.13033485  0.58227641  1
  O  O230  1  0.10705953  0.63923582  0.06478630  1
  O  O231  1  0.10144689  0.62287600  0.58406316  1
  O  O232  1  0.45575967  0.12749708  0.07785670  1
  O  O233  1  0.43660512  0.12658258  0.58476949  1
  O  O234  1  0.45456327  0.65594128  0.08828788  1
  O  O235  1  0.43641511  0.64258020  0.58453091  1
  O  O236  1  0.77795878  0.13953478  0.08894509  1
  O  O237  1  0.76914263  0.11155286  0.58234326  1
  O  O238  1  0.77734535  0.64122619  0.08834304  1
  O  O239  1  0.76908100  0.62925485  0.58390283  1
  O  O240  1  0.06701318  0.13244072  0.41976399  1
  O  O241  1  0.06381779  0.11892404  0.91328413  1
  O  O242  1  0.06336514  0.60914962  0.41782813  1
  O  O243  1  0.04514402  0.61154132  0.90901300  1
  O  O244  1  0.38858144  0.11636011  0.41678184  1
  O  O245  1  0.39913274  0.13545535  0.91344735  1
  O  O246  1  0.39789291  0.62065951  0.41857470  1
  O  O247  1  0.39408910  0.59970757  0.91712902  1
  O  O248  1  0.71596867  0.12853963  0.42871763  1
  O  O249  1  0.72998567  0.11170072  0.91057213  1
  O  O250  1  0.73211149  0.62278702  0.41941801  1
  O  O251  1  0.70501031  0.59736981  0.91656382  1
  O  O252  1  0.23039724  0.36722221  0.41297342  1
  O  O253  1  0.21475932  0.36735295  0.91073003  1
  O  O254  1  0.24079317  0.86519258  0.43283310  1
  O  O255  1  0.21079714  0.86168766  0.91503050  1
  O  O256  1  0.56464919  0.37821852  0.41104858  1
  O  O257  1  0.56621388  0.34479480  0.91566386  1
  O  O258  1  0.55734630  0.86920592  0.41977290  1
  O  O259  1  0.55660362  0.86292259  0.93501230  1
  O  O260  1  0.89964271  0.37715341  0.41676184  1
  O  O261  1  0.88671198  0.35050042  0.90837103  1
  O  O262  1  0.89586451  0.84424649  0.42992463  1
  O  O263  1  0.89372474  0.86469951  0.91343016  1
  O  O264  1  0.06481884  0.38648678  0.41563589  1
  O  O265  1  0.05105621  0.38166871  0.90983760  1
  O  O266  1  0.05717477  0.86932841  0.43053414  1
  O  O267  1  0.05147792  0.89087095  0.91209776  1
  O  O268  1  0.39715307  0.37727097  0.41265830  1
  O  O269  1  0.37983949  0.38156651  0.91884227  1
  O  O270  1  0.39787402  0.87574339  0.42013277  1
  O  O271  1  0.36719379  0.90191638  0.92292523  1
  O  O272  1  0.73091696  0.37182416  0.41226007  1
  O  O273  1  0.72658148  0.38324594  0.90890548  1
  O  O274  1  0.72059163  0.86793939  0.43360807  1
  O  O275  1  0.73819940  0.89762465  0.92651153  1
  O  O276  1  0.22754468  0.14006022  0.41793928  1
  O  O277  1  0.23182408  0.12590783  0.91379245  1
  O  O278  1  0.22956365  0.62703478  0.41888732  1
  O  O279  1  0.20866010  0.63225436  0.91936032  1
  O  O280  1  0.55116028  0.13248938  0.42044365  1
  O  O281  1  0.56524387  0.14622643  0.91071850  1
  O  O282  1  0.56314368  0.61996799  0.41319357  1
  O  O283  1  0.54765432  0.64514595  0.90960697  1
  O  O284  1  0.90491605  0.14692857  0.42818134  1
  O  O285  1  0.89698837  0.13474591  0.91344685  1
  O  O286  1  0.89867609  0.61875545  0.41877364  1
  O  O287  1  0.88852650  0.65196923  0.91583465  1
  O  O288  1  0.17005683  -0.00261245  0.08750417  1
  O  O289  1  0.17627967  0.00101808  0.58680049  1
  O  O290  1  0.15903223  0.48643993  0.07473590  1
  O  O291  1  0.18431255  0.49955210  0.58367002  1
  O  O292  1  0.50886698  -0.00589691  0.09078462  1
  O  O293  1  0.50578801  -0.00278389  0.58323945  1
  O  O294  1  0.49827728  0.52003048  0.07159570  1
  O  O295  1  0.50429800  0.51704230  0.57226967  1
  O  O296  1  0.82885574  0.00623868  0.09275982  1
  O  O297  1  0.86488941  -0.00328833  0.58615174  1
  O  O298  1  0.81576315  0.50326672  0.08298134  1
  O  O299  1  0.85772192  0.50578411  0.58109588  1
  O  O300  1  0.00851229  0.24480566  0.08708733  1
  O  O301  1  0.01652573  0.25171559  0.58202832  1
  O  O302  1  -0.01855603  0.75256556  0.07017755  1
  O  O303  1  0.02565811  0.74971625  0.58582468  1
  O  O304  1  0.32917514  0.25592939  0.07713773  1
  O  O305  1  0.33764678  0.24433839  0.58283838  1
  O  O306  1  0.33930513  0.75635320  0.08870259  1
  O  O307  1  0.33642681  0.75380111  0.58610485  1
  O  O308  1  0.65162499  0.23265134  0.07689707  1
  O  O309  1  0.68340384  0.23348340  0.57152700  1
  O  O310  1  0.68193141  0.75483049  0.09001565  1
  O  O311  1  0.68957720  0.75430914  0.58410125  1
  O  O312  1  0.15734355  0.01294255  0.42821601  1
  O  O313  1  0.15589243  0.00021771  0.91418279  1
  O  O314  1  0.16582227  0.49699910  0.41753079  1
  O  O315  1  0.14495098  0.49827714  0.91111093  1
  O  O316  1  0.48340367  -0.00076658  0.41966906  1
  O  O317  1  0.49826938  0.02078681  0.92846997  1
  O  O318  1  0.48001125  0.49790978  0.41577137  1
  O  O319  1  0.51626064  0.50425126  0.91404140  1
  O  O320  1  0.83310158  -0.00008871  0.43867555  1
  O  O321  1  0.84229000  0.00299624  0.91206896  1
  O  O322  1  0.81143904  0.49760293  0.41724122  1
  O  O323  1  0.84531289  0.48645308  0.91679545  1
  O  O324  1  0.32656293  0.25100709  0.41407801  1
  O  O325  1  0.30576716  0.25173527  0.91214857  1
  O  O326  1  0.32264545  0.74591113  0.41464181  1
  O  O327  1  0.33043575  0.76092718  0.92409016  1
  O  O328  1  0.63836883  0.25346543  0.41452030  1
  O  O329  1  0.68338970  0.24642873  0.90760135  1
  O  O330  1  0.64059469  0.74391298  0.41948546  1
  O  O331  1  0.67571589  0.73697817  0.92226011  1
  O  O332  1  0.99817279  0.25983014  0.41786207  1
  O  O333  1  0.99770804  0.24787009  0.91065111  1
  O  O334  1  0.99568955  0.73677465  0.41957523  1
  O  O335  1  1.00291797  0.75312515  0.90904793  1
  O  O336  1  0.20796653  0.08332618  0.19574784  1
  O  O337  1  0.20873362  0.08577131  0.69428326  1
  O  O338  1  0.21159428  0.57909852  0.19388868  1
  O  O339  1  0.20658661  0.58210974  0.69375997  1
  O  O340  1  0.54296004  0.08170768  0.19722051  1
  O  O341  1  0.54181290  0.08251984  0.69399561  1
  O  O342  1  0.54861918  0.58207216  0.19070760  1
  O  O343  1  0.54170399  0.58552010  0.69160246  1
  O  O344  1  0.87842345  0.08694546  0.20071721  1
  O  O345  1  0.87638869  0.08094599  0.69329128  1
  O  O346  1  0.87412379  0.58228253  0.19483502  1
  O  O347  1  0.87828434  0.58590942  0.69194800  1
  O  O348  1  0.04530398  0.33060076  0.19397482  1
  O  O349  1  0.04679981  0.33673856  0.69109414  1
  O  O350  1  0.03982977  0.83476087  0.20423123  1
  O  O351  1  0.04352855  0.83274967  0.69593536  1
  O  O352  1  0.37548002  0.33269246  0.19087810  1
  O  O353  1  0.37221786  0.33061489  0.68958777  1
  O  O354  1  0.38304858  0.84176433  0.19827360  1
  O  O355  1  0.36347422  0.83344030  0.69734534  1
  O  O356  1  0.71375274  0.33235930  0.19403856  1
  O  O357  1  0.71263164  0.33194628  0.69527250  1
  O  O358  1  0.71406646  0.83409345  0.20170053  1
  O  O359  1  0.71126783  0.83544003  0.69444346  1
  O  O360  1  0.20936175  0.41459058  0.19255956  1
  O  O361  1  0.20836701  0.41628380  0.69278085  1
  O  O362  1  0.21174886  0.91771188  0.19587587  1
  O  O363  1  0.20806382  0.91813883  0.69704880  1
  O  O364  1  0.54168970  0.42059901  0.19734094  1
  O  O365  1  0.54506914  0.41571103  0.69542277  1
  O  O366  1  0.54614147  0.91692856  0.20204920  1
  O  O367  1  0.54795204  0.92388463  0.69501416  1
  O  O368  1  0.88018441  0.41327996  0.19900578  1
  O  O369  1  0.87711923  0.41819666  0.68822129  1
  O  O370  1  0.87800344  0.91989952  0.19961496  1
  O  O371  1  0.87701017  0.91499849  0.69514548  1
  O  O372  1  0.04319373  0.16559948  0.19842226  1
  O  O373  1  0.04720956  0.16805394  0.69229266  1
  O  O374  1  0.04110146  0.66696971  0.20119924  1
  O  O375  1  0.04298638  0.66613778  0.69423652  1
  O  O376  1  0.37863094  0.16458540  0.20220169  1
  O  O377  1  0.37573518  0.16504997  0.69403265  1
  O  O378  1  0.36926856  0.66082584  0.18885971  1
  O  O379  1  0.37357960  0.66763471  0.69496707  1
  O  O380  1  0.70940523  0.16497999  0.19634433  1
  O  O381  1  0.71074127  0.16195706  0.68963893  1
  O  O382  1  0.71201035  0.66892436  0.19780691  1
  O  O383  1  0.71034276  0.66953759  0.69351767  1
  O  O384  1  0.12494966  0.08676589  0.31007097  1
  O  O385  1  0.12719895  0.08362593  0.80430823  1
  O  O386  1  0.12186832  0.57489722  0.30741757  1
  O  O387  1  0.11907881  0.58243559  0.80365294  1
  O  O388  1  0.45485257  0.08132270  0.30893058  1
  O  O389  1  0.45877703  0.08901335  0.80703052  1
  O  O390  1  0.44965496  0.57701372  0.30524038  1
  O  O391  1  0.45685036  0.58045485  0.80326300  1
  O  O392  1  0.78896068  0.08547357  0.30450732  1
  O  O393  1  0.79414923  0.08433364  0.80270310  1
  O  O394  1  0.79107798  0.58275030  0.30751139  1
  O  O395  1  0.78888677  0.58165933  0.79551484  1
  O  O396  1  0.29067950  0.33206579  0.30254251  1
  O  O397  1  0.28627464  0.33419297  0.80317049  1
  O  O398  1  0.28501043  0.84216995  0.31208218  1
  O  O399  1  0.28620968  0.83605785  0.81006253  1
  O  O400  1  0.61998717  0.33233858  0.30158852  1
  O  O401  1  0.62566160  0.32887075  0.80176438  1
  O  O402  1  0.62709172  0.83421950  0.31322132  1
  O  O403  1  0.63578896  0.83410324  0.80497273  1
  O  O404  1  0.96215331  0.33588839  0.30637621  1
  O  O405  1  0.95451476  0.33297748  0.79937205  1
  O  O406  1  0.95676808  0.83063294  0.31470550  1
  O  O407  1  0.95623802  0.83493328  0.80281598  1
  O  O408  1  0.12566402  0.41501885  0.30407829  1
  O  O409  1  0.11874635  0.41675671  0.80138884  1
  O  O410  1  0.12219062  0.92083291  0.30383040  1
  O  O411  1  0.12136763  0.91824358  0.80462080  1
  O  O412  1  0.45362440  0.41614722  0.30221016  1
  O  O413  1  0.45258778  0.41370995  0.79557269  1
  O  O414  1  0.45627768  0.92001172  0.30935050  1
  O  O415  1  0.45009431  0.92809249  0.80545216  1
  O  O416  1  0.79592721  0.41781031  0.30588401  1
  O  O417  1  0.79318242  0.41438290  0.80125580  1
  O  O418  1  0.79083802  0.91680425  0.30589448  1
  O  O419  1  0.79351450  0.91858396  0.80677028  1
  O  O420  1  0.28900801  0.16689949  0.30616087  1
  O  O421  1  0.28885008  0.16783873  0.80319848  1
  O  O422  1  0.28818008  0.65589254  0.30754496  1
  O  O423  1  0.28476756  0.66584289  0.79950048  1
  O  O424  1  0.61565806  0.16040407  0.31039665  1
  O  O425  1  0.62817550  0.16490480  0.80056281  1
  O  O426  1  0.63378911  0.66684995  0.30797512  1
  O  O427  1  0.62493888  0.66422032  0.80575920  1
  O  O428  1  0.96019710  0.17077783  0.31049292  1
  O  O429  1  0.95648870  0.16443982  0.80258289  1
  O  O430  1  0.95619082  0.66001900  0.30825267  1
  O  O431  1  0.95489972  0.66867076  0.80261932  1
  F  F432  1  0.04293186  0.00564617  0.20592714  1
  F  F433  1  0.04689537  -0.00503920  0.69736494  1
  F  F434  1  0.04581850  0.49772468  0.20144353  1
  F  F435  1  0.04419084  0.50132224  0.69844834  1
  F  F436  1  0.37889701  0.00023591  0.20512139  1
  F  F437  1  0.37627708  0.00407270  0.70107180  1
  F  F438  1  0.37882604  0.49911173  0.19950756  1
  F  F439  1  0.37334578  0.50244926  0.69838496  1
  F  F440  1  0.70966431  -0.00020056  0.20648641  1
  F  F441  1  0.71525585  -0.00186485  0.70277771  1
  F  F442  1  0.71260864  0.50417462  0.20335400  1
  F  F443  1  0.71100445  0.49919417  0.69570356  1
  F  F444  1  0.21181591  0.24753721  0.20268322  1
  F  F445  1  0.21179839  0.25025985  0.69948000  1
  F  F446  1  0.19708260  0.75648098  0.19995446  1
  F  F447  1  0.20722094  0.75232221  0.70215006  1
  F  F448  1  0.53822357  0.24734069  0.19926207  1
  F  F449  1  0.54474833  0.24707324  0.69855040  1
  F  F450  1  0.55420748  0.76355785  0.20344230  1
  F  F451  1  0.54823954  0.74150897  0.70028858  1
  F  F452  1  0.88164115  0.24774873  0.20492803  1
  F  F453  1  0.87539249  0.24860817  0.69422563  1
  F  F454  1  0.87996683  0.75085870  0.20941220  1
  F  F455  1  0.87782080  0.75122959  0.69979922  1
  F  F456  1  0.28750342  0.00292871  0.29958566  1
  F  F457  1  0.28371507  0.00389918  0.79703283  1
  F  F458  1  0.28774127  0.49329268  0.29718987  1
  F  F459  1  0.28445691  0.49816032  0.79525665  1
  F  F460  1  0.62054375  0.00039704  0.30353468  1
  F  F461  1  0.62417627  0.00414059  0.79815094  1
  F  F462  1  0.61640087  0.51109126  0.30548270  1
  F  F463  1  0.62289920  0.49893925  0.79263796  1
  F  F464  1  0.95589195  0.00199706  0.30409570  1
  F  F465  1  0.95556833  -0.00356673  0.79893943  1
  F  F466  1  0.95622869  0.50000099  0.29791017  1
  F  F467  1  0.95388986  0.49823805  0.79250939  1
  F  F468  1  0.12340102  0.25120801  0.29859291  1
  F  F469  1  0.12676209  0.25094741  0.79903082  1
  F  F470  1  0.11950302  0.75757484  0.31263540  1
  F  F471  1  0.11834748  0.75019798  0.79747958  1
  F  F472  1  0.45408425  0.25357395  0.29909495  1
  F  F473  1  0.45351858  0.24978147  0.79331984  1
  F  F474  1  0.46514230  0.76257343  0.31488940  1
  F  F475  1  0.44799205  0.73920028  0.80267907  1
  F  F476  1  0.79948166  0.25321067  0.30517776  1
  F  F477  1  0.79046379  0.24549230  0.79322598  1
  F  F478  1  0.79045511  0.74793534  0.30300019  1
  F  F479  1  0.79020732  0.75047059  0.79591050  1
