# generated using pymatgen
data_K24Na3Li5Mg64Fe17Si79(O5F)48
_symmetry_space_group_name_H-M   'P 1'
_cell_length_a   16.12119162
_cell_length_b   18.61879277
_cell_length_c   20.60992771
_cell_angle_alpha   90.00163992
_cell_angle_beta   100.00726605
_cell_angle_gamma   89.95625857
_symmetry_Int_Tables_number   1
_chemical_formula_structural   K24Na3Li5Mg64Fe17Si79(O5F)48
_chemical_formula_sum   'K24 Na3 Li5 Mg64 Fe17 Si79 O240 F48'
_cell_volume   6092.09605073
_cell_formula_units_Z   1
loop_
 _symmetry_equiv_pos_site_id
 _symmetry_equiv_pos_as_xyz
  1  'x, y, z'
loop_
 _atom_site_type_symbol
 _atom_site_label
 _atom_site_symmetry_multiplicity
 _atom_site_fract_x
 _atom_site_fract_y
 _atom_site_fract_z
 _atom_site_occupancy
  K  K0  1  0.00171505  -0.01438730  -0.01115195  1
  K  K1  1  -0.00679482  -0.00077035  0.50265452  1
  K  K2  1  0.01558392  0.50412581  -0.00585292  1
  K  K3  1  0.01890079  0.50574915  0.51123151  1
  K  K4  1  0.32617517  -0.01122431  -0.01680857  1
  K  K5  1  0.33427558  0.01051002  0.49917518  1
  K  K6  1  0.33529512  0.51251445  -0.00719737  1
  K  K7  1  0.34023075  0.51258268  0.50696563  1
  K  K8  1  0.67159603  -0.01136669  -0.00703692  1
  K  K9  1  0.67084162  0.00131604  0.51486554  1
  K  K10  1  0.65290430  0.50012138  -0.00921552  1
  K  K11  1  0.66219618  0.50838549  0.50824505  1
  K  K12  1  0.16107185  0.24630313  -0.00979208  1
  K  K13  1  0.18108476  0.24123977  0.50550880  1
  K  K14  1  0.17630866  0.76332144  -0.00695620  1
  K  K15  1  0.16784181  0.74133599  0.50716987  1
  K  K16  1  0.49152497  0.24726055  -0.01293016  1
  K  K17  1  0.49888002  0.23985174  0.50845112  1
  K  K18  1  0.47921569  0.75643075  -0.00757211  1
  K  K19  1  0.49468911  0.75490471  0.51304705  1
  K  K20  1  0.83391919  0.23713490  -0.00920918  1
  K  K21  1  0.84119092  0.23187403  0.50835917  1
  K  K22  1  0.83715842  0.76432979  -0.00383848  1
  K  K23  1  0.84025250  0.75761925  0.50428366  1
  Na  Na24  1  0.83263861  -0.00045188  0.24358660  1
  Na  Na25  1  0.49488399  0.82815256  0.74606019  1
  Na  Na26  1  0.67161360  0.07518018  0.74586582  1
  Li  Li27  1  0.32842799  0.75320392  0.74186834  1
  Li  Li28  1  0.83858586  0.00053562  0.74675054  1
  Li  Li29  1  0.32654057  0.07613583  0.74816922  1
  Li  Li30  1  -0.00490424  0.07204541  0.75249381  1
  Li  Li31  1  0.33369100  0.41976583  0.24932305  1
  Mg  Mg32  1  0.16360247  -0.00057640  0.25461036  1
  Mg  Mg33  1  0.49780394  0.49938769  0.75396859  1
  Mg  Mg34  1  -0.00139237  0.24522163  0.75223910  1
  Mg  Mg35  1  0.66794178  0.25089837  0.24849268  1
  Mg  Mg36  1  0.66395685  0.75218578  0.24743794  1
  Mg  Mg37  1  0.17140553  0.49978656  0.25100288  1
  Mg  Mg38  1  0.49731166  0.49990416  0.24767804  1
  Mg  Mg39  1  0.16642046  0.49854905  0.75390050  1
  Mg  Mg40  1  0.00432762  0.75079946  0.75009201  1
  Mg  Mg41  1  -0.00004808  0.75267530  0.24812633  1
  Mg  Mg42  1  0.49808645  0.00107993  0.24628288  1
  Mg  Mg43  1  0.33252334  0.75036849  0.24869466  1
  Mg  Mg44  1  0.16553877  0.00115458  0.74989426  1
  Mg  Mg45  1  0.66767122  0.74965394  0.75057975  1
  Mg  Mg46  1  0.49921942  -0.00309516  0.74790904  1
  Mg  Mg47  1  0.33416964  0.25440336  0.25006367  1
  Mg  Mg48  1  0.33252745  0.24328385  0.75189669  1
  Mg  Mg49  1  0.66648432  0.24493182  0.75313011  1
  Mg  Mg50  1  0.83354525  0.50273299  0.24988419  1
  Mg  Mg51  1  0.00025018  0.25007594  0.25218616  1
  Mg  Mg52  1  0.83218111  0.49926561  0.75373893  1
  Mg  Mg53  1  0.00099106  0.41493334  0.75737617  1
  Mg  Mg54  1  0.33075996  0.91504995  0.24881690  1
  Mg  Mg55  1  0.66398155  0.41377315  0.75541512  1
  Mg  Mg56  1  0.66382464  0.91736954  0.24292487  1
  Mg  Mg57  1  0.00105164  0.08363374  0.25074658  1
  Mg  Mg58  1  0.66660494  0.08404519  0.24558474  1
  Mg  Mg59  1  0.17039176  0.33564739  0.25183945  1
  Mg  Mg60  1  0.66615173  0.41725837  0.24891564  1
  Mg  Mg61  1  0.16678840  0.33233215  0.75767232  1
  Mg  Mg62  1  0.49783645  0.66858198  0.75375368  1
  Mg  Mg63  1  0.00308384  0.58536249  0.25165598  1
  Mg  Mg64  1  0.16719871  0.16707495  0.25293859  1
  Mg  Mg65  1  0.66868969  0.91642966  0.74752949  1
  Mg  Mg66  1  0.16849367  0.83544988  0.74629064  1
  Mg  Mg67  1  0.33189811  0.08651567  0.24962000  1
  Mg  Mg68  1  0.16618146  0.66672129  0.74932823  1
  Mg  Mg69  1  0.00040542  0.91822501  0.74593246  1
  Mg  Mg70  1  0.49874658  0.33160758  0.75516485  1
  Mg  Mg71  1  0.17055419  0.66601533  0.25028773  1
  Mg  Mg72  1  0.49593543  0.66671576  0.24698972  1
  Mg  Mg73  1  0.66534017  0.58365723  0.75202229  1
  Mg  Mg74  1  0.49965374  0.16794366  0.24743706  1
  Mg  Mg75  1  0.33006769  0.91872500  0.74799430  1
  Mg  Mg76  1  0.83450914  0.16603319  0.24913764  1
  Mg  Mg77  1  0.83258482  0.83545219  0.24691663  1
  Mg  Mg78  1  0.16821446  0.83518131  0.25038168  1
  Mg  Mg79  1  0.49903827  0.16083411  0.75049300  1
  Mg  Mg80  1  0.83446275  0.33646671  0.25022498  1
  Mg  Mg81  1  0.33477745  0.41345756  0.75600651  1
  Mg  Mg82  1  0.00014326  0.91694326  0.25030170  1
  Mg  Mg83  1  0.16300847  0.16214650  0.75068387  1
  Mg  Mg84  1  0.83533051  0.66596227  0.75167314  1
  Mg  Mg85  1  0.83224249  0.33180868  0.75582255  1
  Mg  Mg86  1  0.49861233  0.33539655  0.24804478  1
  Mg  Mg87  1  0.33362918  0.58418860  0.24801245  1
  Mg  Mg88  1  0.83277594  0.66750781  0.24945942  1
  Mg  Mg89  1  0.00161747  0.58386379  0.75350503  1
  Mg  Mg90  1  0.83520115  0.16159269  0.75134458  1
  Mg  Mg91  1  0.66378081  0.58541296  0.24754524  1
  Mg  Mg92  1  0.00215750  0.41722742  0.25179913  1
  Mg  Mg93  1  0.33246375  0.58633086  0.74957863  1
  Mg  Mg94  1  0.49488647  0.83575602  0.24624056  1
  Mg  Mg95  1  0.83626128  0.83681675  0.74819207  1
  Fe  Fe96  1  0.35535472  0.66690288  0.10591165  1
  Fe  Fe97  1  0.02466601  0.82776994  0.60702731  1
  Fe  Fe98  1  0.86100630  0.91389194  0.10668891  1
  Fe  Fe99  1  0.14125807  0.41601869  0.89520336  1
  Fe  Fe100  1  0.14051588  0.91724808  0.88939625  1
  Fe  Fe101  1  0.47404426  0.41726167  0.89392660  1
  Fe  Fe102  1  0.35862326  0.66988858  0.61324106  1
  Fe  Fe103  1  0.35428422  0.84206272  0.10540266  1
  Fe  Fe104  1  0.18597539  0.09275495  0.61064711  1
  Fe  Fe105  1  0.13977718  0.90866976  0.39178014  1
  Fe  Fe106  1  0.85869641  0.08190893  0.61223032  1
  Fe  Fe107  1  0.35633482  0.84377063  0.60526314  1
  Fe  Fe108  1  0.18764008  0.92449034  0.60632839  1
  Fe  Fe109  1  0.14503580  0.08585015  0.39167110  1
  Fe  Fe110  1  0.02310904  0.65709861  0.61138410  1
  Fe  Fe111  1  0.31313885  0.83008910  0.39040350  1
  Fe  Fe112  1  0.31635824  0.66073713  0.39019179  1
  Si  Si113  1  0.47344663  0.92521481  0.38407142  1
  Si  Si114  1  0.64378378  0.16208996  0.88713001  1
  Si  Si115  1  0.52809233  0.08884718  0.11233405  1
  Si  Si116  1  0.53513349  0.91914775  0.61104239  1
  Si  Si117  1  0.31116151  0.16189813  0.88564088  1
  Si  Si118  1  0.03188396  0.83054330  0.11072783  1
  Si  Si119  1  0.96756639  0.16843855  0.38747968  1
  Si  Si120  1  0.18801362  0.09084004  0.11506452  1
  Si  Si121  1  0.31170296  0.83469012  0.88366596  1
  Si  Si122  1  0.02914059  0.66449412  0.11451308  1
  Si  Si123  1  0.19115531  0.41139736  0.11641425  1
  Si  Si124  1  0.01801623  0.33763341  0.61991857  1
  Si  Si125  1  0.02359406  0.33541687  0.11617304  1
  Si  Si126  1  0.18887279  0.92760222  0.11295873  1
  Si  Si127  1  0.97256279  0.33496371  0.38628378  1
  Si  Si128  1  0.85412909  0.57704765  0.61652668  1
  Si  Si129  1  0.69114005  0.66440596  0.11398750  1
  Si  Si130  1  0.80278561  0.08124612  0.38101688  1
  Si  Si131  1  0.52725364  0.08311720  0.61446221  1
  Si  Si132  1  0.14073936  0.08780361  0.88923202  1
  Si  Si133  1  0.69382235  0.17296894  0.11265127  1
  Si  Si134  1  0.85254645  0.41568356  0.62093509  1
  Si  Si135  1  0.81155344  0.08071041  0.88622520  1
  Si  Si136  1  0.47706867  0.58803235  0.88947495  1
  Si  Si137  1  0.69159814  0.17136559  0.61387056  1
  Si  Si138  1  0.80559273  0.58162913  0.88867863  1
  Si  Si139  1  0.35761384  0.16647725  0.11278886  1
  Si  Si140  1  0.13840185  0.58083501  0.38763982  1
  Si  Si141  1  0.52487799  0.41475166  0.11371858  1
  Si  Si142  1  0.14393367  0.58804807  0.89088947  1
  Si  Si143  1  0.63312650  0.83622023  0.38161935  1
  Si  Si144  1  0.47833479  0.08889271  0.38261577  1
  Si  Si145  1  0.69518043  0.66538206  0.61794758  1
  Si  Si146  1  0.31487745  0.33952217  0.38422320  1
  Si  Si147  1  0.14248569  0.41371683  0.38662728  1
  Si  Si148  1  0.69636741  0.82986589  0.61501765  1
  Si  Si149  1  0.68885692  0.82908684  0.10978481  1
  Si  Si150  1  0.97234938  0.16804485  0.88891521  1
  Si  Si151  1  0.36145185  0.33168375  0.61768187  1
  Si  Si152  1  0.80431558  0.58595003  0.38400694  1
  Si  Si153  1  0.68891186  0.33284944  0.61871456  1
  Si  Si154  1  0.96980664  0.82889444  0.88721199  1
  Si  Si155  1  0.47850745  0.07960380  0.88594202  1
  Si  Si156  1  0.96783570  0.33290891  0.89318070  1
  Si  Si157  1  0.80680287  0.91577181  0.88318150  1
  Si  Si158  1  0.85946107  0.08919226  0.11105061  1
  Si  Si159  1  0.19178507  0.40719540  0.61967061  1
  Si  Si160  1  0.97107723  0.66400222  0.88809363  1
  Si  Si161  1  0.64139691  0.32685005  0.89157443  1
  Si  Si162  1  0.47726121  0.91656010  0.88305183  1
  Si  Si163  1  0.97162372  0.66573008  0.38418310  1
  Si  Si164  1  0.80200412  0.41562604  0.88950282  1
  Si  Si165  1  0.52871675  0.92243142  0.10878920  1
  Si  Si166  1  0.64274311  0.66998180  0.88717471  1
  Si  Si167  1  0.35928459  0.33153307  0.11457773  1
  Si  Si168  1  0.31492658  0.17518682  0.38633192  1
  Si  Si169  1  0.48371877  0.41472241  0.38343685  1
  Si  Si170  1  0.30721551  0.66878248  0.88301619  1
  Si  Si171  1  0.02266196  0.17671385  0.61285587  1
  Si  Si172  1  0.53008382  0.58350043  0.61710132  1
  Si  Si173  1  0.96444844  0.83208725  0.38547702  1
  Si  Si174  1  0.85799286  0.91294738  0.60927477  1
  Si  Si175  1  0.63908614  0.66988894  0.38291605  1
  Si  Si176  1  0.30783469  0.32618536  0.89310863  1
  Si  Si177  1  0.69442232  0.33795503  0.11408419  1
  Si  Si178  1  0.64433387  0.83417464  0.88322480  1
  Si  Si179  1  0.86007435  0.42193435  0.11524557  1
  Si  Si180  1  0.64365652  0.16716015  0.38251786  1
  Si  Si181  1  0.18878127  0.57526250  0.11169207  1
  Si  Si182  1  0.80748312  0.42041552  0.38508026  1
  Si  Si183  1  0.52838122  0.58056750  0.11111822  1
  Si  Si184  1  0.52592147  0.41839714  0.61858778  1
  Si  Si185  1  0.36485437  0.16742842  0.61289737  1
  Si  Si186  1  0.86017566  0.58777048  0.11498877  1
  Si  Si187  1  0.19561692  0.57277234  0.61404492  1
  Si  Si188  1  0.64577696  0.33108790  0.38413515  1
  Si  Si189  1  0.48338104  0.57618603  0.38606023  1
  Si  Si190  1  0.02299880  0.17233091  0.11465784  1
  Si  Si191  1  0.79748115  0.91350195  0.38010829  1
  O  O192  1  0.26971715  0.12310446  0.08457535  1
  O  O193  1  0.28046354  0.12949819  0.57625713  1
  O  O194  1  0.26266879  0.60465904  0.07617145  1
  O  O195  1  0.27799476  0.59721507  0.58559472  1
  O  O196  1  0.60228352  0.13518469  0.08443464  1
  O  O197  1  0.60427480  0.12567600  0.58718989  1
  O  O198  1  0.61699946  0.60647964  0.08651625  1
  O  O199  1  0.61674300  0.61117190  0.59055547  1
  O  O200  1  0.93850202  0.12790627  0.08151708  1
  O  O201  1  0.94729881  0.12502889  0.57619446  1
  O  O202  1  0.93700372  0.62588575  0.08562217  1
  O  O203  1  0.93239315  0.59140195  0.58039265  1
  O  O204  1  0.10580080  0.36400062  0.08708046  1
  O  O205  1  0.10207223  0.36563484  0.59110631  1
  O  O206  1  0.11105455  0.87168592  0.08540342  1
  O  O207  1  0.12072224  0.84874428  0.57351320  1
  O  O208  1  0.43911271  0.36873129  0.08599061  1
  O  O209  1  0.43609326  0.37793460  0.58943597  1
  O  O210  1  0.44390315  0.88685847  0.07089496  1
  O  O211  1  0.45701413  0.87213002  0.57562425  1
  O  O212  1  0.77208229  0.37872380  0.08619172  1
  O  O213  1  0.77305227  0.36242570  0.59095982  1
  O  O214  1  0.76514898  0.85516896  0.07461130  1
  O  O215  1  0.77806449  0.85477733  0.58398202  1
  O  O216  1  0.27122320  0.37519273  0.08778847  1
  O  O217  1  0.26817367  0.36715081  0.58863478  1
  O  O218  1  0.26700598  0.90888088  0.07720632  1
  O  O219  1  0.28409727  0.91648180  0.57177281  1
  O  O220  1  0.60568723  0.37904708  0.08555281  1
  O  O221  1  0.60557952  0.38250816  0.58877583  1
  O  O222  1  0.60801622  0.88161234  0.08291760  1
  O  O223  1  0.61846033  0.88301223  0.58402603  1
  O  O224  1  0.93993717  0.38542305  0.08751591  1
  O  O225  1  0.93806643  0.39317180  0.59199204  1
  O  O226  1  0.94738048  0.86764563  0.07085508  1
  O  O227  1  0.93323710  0.88772707  0.57111379  1
  O  O228  1  0.10725281  0.14413470  0.08694575  1
  O  O229  1  0.10732319  0.16646581  0.58167511  1
  O  O230  1  0.09763609  0.61589089  0.08408617  1
  O  O231  1  0.11259721  0.61447071  0.57675210  1
  O  O232  1  0.43681496  0.12836525  0.08413488  1
  O  O233  1  0.44300265  0.12953743  0.58150373  1
  O  O234  1  0.45163100  0.62745436  0.07419954  1
  O  O235  1  0.45387017  0.63059656  0.58001875  1
  O  O236  1  0.77236793  0.13792750  0.08320524  1
  O  O237  1  0.76305577  0.14141102  0.57540793  1
  O  O238  1  0.77512148  0.63423310  0.08631535  1
  O  O239  1  0.77517004  0.63207724  0.58757703  1
  O  O240  1  0.05164621  0.12996363  0.42249686  1
  O  O241  1  0.06659205  0.13598385  0.91830432  1
  O  O242  1  0.05368450  0.61571687  0.41203730  1
  O  O243  1  0.06309848  0.62818507  0.91784575  1
  O  O244  1  0.40045168  0.12560633  0.41267958  1
  O  O245  1  0.39844362  0.11595106  0.91524434  1
  O  O246  1  0.40385249  0.59239858  0.42007049  1
  O  O247  1  0.39540484  0.62584380  0.91461183  1
  O  O248  1  0.72245861  0.11454515  0.41223452  1
  O  O249  1  0.73164938  0.11791161  0.91694934  1
  O  O250  1  0.72830747  0.62746945  0.41224420  1
  O  O251  1  0.73028467  0.62392016  0.91841260  1
  O  O252  1  0.23327509  0.37315283  0.41414402  1
  O  O253  1  0.22546502  0.34844398  0.92436629  1
  O  O254  1  0.21239972  0.83407266  0.42071343  1
  O  O255  1  0.24409650  0.87148338  0.92338452  1
  O  O256  1  0.56345106  0.36015201  0.41357837  1
  O  O257  1  0.56847671  0.35859214  0.92794831  1
  O  O258  1  0.55490535  0.87170354  0.41122539  1
  O  O259  1  0.56631428  0.87302794  0.91203443  1
  O  O260  1  0.89920764  0.38336710  0.41360282  1
  O  O261  1  0.88682672  0.37119455  0.92046865  1
  O  O262  1  0.87540766  0.85951169  0.40853408  1
  O  O263  1  0.89172999  0.87033197  0.91542303  1
  O  O264  1  0.06604545  0.36970064  0.41437030  1
  O  O265  1  0.04917517  0.37638410  0.92962566  1
  O  O266  1  0.03629809  0.88492061  0.42008222  1
  O  O267  1  0.05631680  0.86440339  0.92426400  1
  O  O268  1  0.39876792  0.38926564  0.41214101  1
  O  O269  1  0.38594741  0.37565897  0.92881475  1
  O  O270  1  0.39305797  0.90628461  0.41608473  1
  O  O271  1  0.40398081  0.87380332  0.91410884  1
  O  O272  1  0.73047487  0.37901500  0.41311367  1
  O  O273  1  0.72635608  0.37599271  0.91943693  1
  O  O274  1  0.71681879  0.88383375  0.41219800  1
  O  O275  1  0.72990129  0.87924917  0.91664530  1
  O  O276  1  0.23755931  0.15058238  0.41953439  1
  O  O277  1  0.23238225  0.12951612  0.91834313  1
  O  O278  1  0.22038866  0.62244889  0.42297727  1
  O  O279  1  0.22928831  0.63615755  0.91754479  1
  O  O280  1  0.56002671  0.14079152  0.41095795  1
  O  O281  1  0.56587600  0.12504865  0.91892486  1
  O  O282  1  0.56637667  0.62784661  0.41435179  1
  O  O283  1  0.56433839  0.63507228  0.91772088  1
  O  O284  1  0.88489987  0.13008023  0.41176607  1
  O  O285  1  0.90000611  0.12252570  0.92103215  1
  O  O286  1  0.89253075  0.62667427  0.41233056  1
  O  O287  1  0.89803754  0.61709892  0.91845181  1
  O  O288  1  0.15941849  0.01082156  0.08782490  1
  O  O289  1  0.14092308  0.00932233  0.57149542  1
  O  O290  1  0.17075750  0.49127901  0.08539172  1
  O  O291  1  0.17974382  0.48719600  0.58812323  1
  O  O292  1  0.53124713  0.00771956  0.08367470  1
  O  O293  1  0.52596006  0.00300484  0.58049658  1
  O  O294  1  0.51557244  0.49612494  0.08476665  1
  O  O295  1  0.51843761  0.49948631  0.58798474  1
  O  O296  1  0.84174604  0.01109470  0.07830070  1
  O  O297  1  0.82608792  -0.00941290  0.57757719  1
  O  O298  1  0.84841501  0.50451157  0.08659417  1
  O  O299  1  0.81884712  0.49496297  0.59320085  1
  O  O300  1  0.00343109  0.25481437  0.08601184  1
  O  O301  1  -0.01156333  0.26052452  0.58758088  1
  O  O302  1  0.03047962  0.74536967  0.08446534  1
  O  O303  1  -0.01041851  0.74016607  0.56765240  1
  O  O304  1  0.34884543  0.24927237  0.08343110  1
  O  O305  1  0.36414159  0.25252315  0.58379939  1
  O  O306  1  0.33146649  0.75401418  0.06441829  1
  O  O307  1  0.32792127  0.75378068  0.56881559  1
  O  O308  1  0.68672813  0.25624235  0.08468302  1
  O  O309  1  0.66640213  0.25453686  0.58506526  1
  O  O310  1  0.66531998  0.74462378  0.08516425  1
  O  O311  1  0.67451120  0.74615590  0.58739417  1
  O  O312  1  0.18122834  -0.00220567  0.42306885  1
  O  O313  1  0.14482325  0.01121273  0.92691621  1
  O  O314  1  0.14196111  0.49563455  0.41517027  1
  O  O315  1  0.15688984  0.51112006  0.92863687  1
  O  O316  1  0.50343782  0.00826639  0.41003749  1
  O  O317  1  0.49013592  -0.00214164  0.91802315  1
  O  O318  1  0.51622456  0.49384428  0.41190336  1
  O  O319  1  0.49294703  0.51149006  0.92776173  1
  O  O320  1  0.81610370  -0.00258229  0.40582421  1
  O  O321  1  0.81830430  -0.00237256  0.91511375  1
  O  O322  1  0.80900109  0.50305387  0.41306853  1
  O  O323  1  0.80807438  0.49877306  0.91827871  1
  O  O324  1  0.33988478  0.25853107  0.41356572  1
  O  O325  1  0.33157455  0.24234598  0.91837004  1
  O  O326  1  0.36736643  0.74519513  0.41958784  1
  O  O327  1  0.32356238  0.75053631  0.91076242  1
  O  O328  1  0.66616137  0.24895699  0.41139969  1
  O  O329  1  0.66126697  0.24388143  0.91949457  1
  O  O330  1  0.64799867  0.75293077  0.40990395  1
  O  O331  1  0.65784409  0.75212049  0.91597704  1
  O  O332  1  0.96540982  0.25370217  0.41388914  1
  O  O333  1  0.97046967  0.24974880  0.92209997  1
  O  O334  1  0.97837486  0.74740331  0.41240255  1
  O  O335  1  0.96597769  0.74518281  0.91709688  1
  O  O336  1  0.21206393  0.09210652  0.19484234  1
  O  O337  1  0.20695617  0.08530177  0.70054264  1
  O  O338  1  0.20607288  0.57906240  0.19230158  1
  O  O339  1  0.20727171  0.57647067  0.69521488  1
  O  O340  1  0.54322609  0.08912000  0.19274753  1
  O  O341  1  0.53583148  0.08259324  0.69308230  1
  O  O342  1  0.54475770  0.58164722  0.19227541  1
  O  O343  1  0.54590071  0.57941913  0.69775371  1
  O  O344  1  0.88064696  0.09547656  0.19073538  1
  O  O345  1  0.87897459  0.08666436  0.70017197  1
  O  O346  1  0.87690358  0.58403267  0.19539704  1
  O  O347  1  0.87319151  0.57982501  0.69750759  1
  O  O348  1  0.04083936  0.33552955  0.19657986  1
  O  O349  1  0.03773702  0.33543009  0.69994327  1
  O  O350  1  0.04320790  0.83020008  0.19115649  1
  O  O351  1  0.04346017  0.83022939  0.69912256  1
  O  O352  1  0.38012455  0.32980834  0.19407151  1
  O  O353  1  0.37709070  0.33117153  0.69760615  1
  O  O354  1  0.37854283  0.83591680  0.19748837  1
  O  O355  1  0.36381321  0.83584021  0.69286682  1
  O  O356  1  0.71221497  0.33691465  0.19462511  1
  O  O357  1  0.70709539  0.33442272  0.69900015  1
  O  O358  1  0.70707016  0.83078937  0.19077263  1
  O  O359  1  0.71301522  0.82785581  0.69487912  1
  O  O360  1  0.20556902  0.41426789  0.19586221  1
  O  O361  1  0.21217707  0.41013105  0.69962165  1
  O  O362  1  0.20912069  0.92436258  0.19328744  1
  O  O363  1  0.20888147  0.91971801  0.69716883  1
  O  O364  1  0.54540454  0.41493329  0.19413012  1
  O  O365  1  0.54496694  0.41532706  0.69858242  1
  O  O366  1  0.54162424  0.92007716  0.18992690  1
  O  O367  1  0.55067719  0.92210667  0.69024822  1
  O  O368  1  0.87666855  0.41971059  0.19575656  1
  O  O369  1  0.87263069  0.41492638  0.70130219  1
  O  O370  1  0.88366973  0.90736319  0.19633137  1
  O  O371  1  0.88065900  0.90847186  0.68927737  1
  O  O372  1  0.04136261  0.17253551  0.19479917  1
  O  O373  1  0.04260943  0.17578720  0.69307825  1
  O  O374  1  0.04318447  0.66362758  0.19482940  1
  O  O375  1  0.04282000  0.66256815  0.70367780  1
  O  O376  1  0.37704311  0.16887778  0.19324409  1
  O  O377  1  0.38180232  0.17160477  0.69247816  1
  O  O378  1  0.37928155  0.66547645  0.19821511  1
  O  O379  1  0.38168723  0.66501235  0.70382615  1
  O  O380  1  0.71024537  0.17131154  0.19302444  1
  O  O381  1  0.71458567  0.17611077  0.69319990  1
  O  O382  1  0.71024897  0.66514276  0.19458795  1
  O  O383  1  0.71415254  0.66324386  0.69813744  1
  O  O384  1  0.12198473  0.08741795  0.29850306  1
  O  O385  1  0.12369001  0.08601182  0.80999113  1
  O  O386  1  0.12257631  0.58025493  0.30641113  1
  O  O387  1  0.12358587  0.58108250  0.81068411  1
  O  O388  1  0.45832000  0.08864159  0.30207538  1
  O  O389  1  0.46502543  0.08203369  0.80730090  1
  O  O390  1  0.46497429  0.58029317  0.30544143  1
  O  O391  1  0.46122892  0.58057979  0.80953745  1
  O  O392  1  0.78250894  0.09090074  0.30193790  1
  O  O393  1  0.79724880  0.08662113  0.80869838  1
  O  O394  1  0.78748668  0.58357306  0.30343231  1
  O  O395  1  0.78893970  0.58119929  0.80853689  1
  O  O396  1  0.29160123  0.33519347  0.30484319  1
  O  O397  1  0.29239574  0.33063478  0.81181970  1
  O  O398  1  0.28808562  0.83370213  0.29721364  1
  O  O399  1  0.28854746  0.83656382  0.80483387  1
  O  O400  1  0.62726795  0.33370253  0.30364392  1
  O  O401  1  0.62356138  0.33102598  0.81083300  1
  O  O402  1  0.61865712  0.83506945  0.30098634  1
  O  O403  1  0.63404447  0.83072200  0.80475477  1
  O  O404  1  0.95542982  0.33690304  0.30553801  1
  O  O405  1  0.95297812  0.33492203  0.81258394  1
  O  O406  1  0.95254004  0.82918822  0.30466602  1
  O  O407  1  0.95407363  0.82718446  0.80737583  1
  O  O408  1  0.12346395  0.41493649  0.30617042  1
  O  O409  1  0.12153765  0.41637053  0.80377683  1
  O  O410  1  0.11940536  0.91460132  0.29791169  1
  O  O411  1  0.12085904  0.91619789  0.79980357  1
  O  O412  1  0.46644827  0.41475907  0.30396664  1
  O  O413  1  0.45672698  0.41473886  0.80249314  1
  O  O414  1  0.45879579  0.92293256  0.30302287  1
  O  O415  1  0.45419667  0.92232984  0.80503004  1
  O  O416  1  0.79004390  0.41878392  0.30446018  1
  O  O417  1  0.78663001  0.41617741  0.80929567  1
  O  O418  1  0.77751465  0.90985248  0.30080022  1
  O  O419  1  0.78869853  0.91157055  0.80459543  1
  O  O420  1  0.29568751  0.17248496  0.30524212  1
  O  O421  1  0.28968162  0.16681897  0.80680905  1
  O  O422  1  0.28828768  0.66366324  0.29797170  1
  O  O423  1  0.28382812  0.65922163  0.80482192  1
  O  O424  1  0.62400410  0.16906041  0.30202128  1
  O  O425  1  0.62082593  0.16906956  0.80841429  1
  O  O426  1  0.62322380  0.66700078  0.30247743  1
  O  O427  1  0.62935596  0.66409810  0.80766542  1
  O  O428  1  0.95345347  0.17067992  0.30622532  1
  O  O429  1  0.95239453  0.17351533  0.81031238  1
  O  O430  1  0.95404298  0.66480618  0.30344040  1
  O  O431  1  0.95256278  0.66131715  0.80843225  1
  F  F432  1  0.04299068  0.00322601  0.19823810  1
  F  F433  1  0.04510132  0.00044288  0.70075451  1
  F  F434  1  0.04424669  0.49913290  0.20396276  1
  F  F435  1  0.04184635  0.49849277  0.70621905  1
  F  F436  1  0.37916117  0.00629958  0.20021760  1
  F  F437  1  0.38042772  -0.00065074  0.70172651  1
  F  F438  1  0.38124753  0.50068332  0.20048979  1
  F  F439  1  0.37797764  0.49754784  0.70447515  1
  F  F440  1  0.69671455  0.00307260  0.19294707  1
  F  F441  1  0.71751003  -0.01382560  0.69418215  1
  F  F442  1  0.71361843  0.49999407  0.20061154  1
  F  F443  1  0.71065523  0.49730539  0.70671763  1
  F  F444  1  0.21199048  0.25208662  0.20320538  1
  F  F445  1  0.21204822  0.25262291  0.70732586  1
  F  F446  1  0.20702963  0.74875574  0.19825049  1
  F  F447  1  0.20436534  0.74692836  0.70151839  1
  F  F448  1  0.54742177  0.25234967  0.20002705  1
  F  F449  1  0.54621607  0.25147468  0.70519234  1
  F  F450  1  0.54614534  0.74964354  0.19944097  1
  F  F451  1  0.55473302  0.73546522  0.69879568  1
  F  F452  1  0.87825837  0.25519107  0.20250985  1
  F  F453  1  0.87687655  0.25422386  0.70660342  1
  F  F454  1  0.87707855  0.74600155  0.20026283  1
  F  F455  1  0.87884675  0.74594030  0.70405122  1
  F  F456  1  0.28966787  0.00486675  0.29525139  1
  F  F457  1  0.28657409  -0.00264270  0.80272078  1
  F  F458  1  0.28806033  0.50117671  0.29754074  1
  F  F459  1  0.28862091  0.49818515  0.79988545  1
  F  F460  1  0.61916648  0.00273200  0.29382572  1
  F  F461  1  0.61808864  -0.01123492  0.80206805  1
  F  F462  1  0.62383398  0.49986891  0.29561196  1
  F  F463  1  0.62264772  0.49880737  0.80252824  1
  F  F464  1  0.96321396  0.00319915  0.29967500  1
  F  F465  1  0.95556323  -0.01072551  0.80202658  1
  F  F466  1  0.95316193  0.50040744  0.29888876  1
  F  F467  1  0.95170801  0.49946629  0.80269779  1
  F  F468  1  0.12096464  0.25413206  0.29868460  1
  F  F469  1  0.11866796  0.24988280  0.80157913  1
  F  F470  1  0.11761825  0.74651463  0.29463184  1
  F  F471  1  0.12252138  0.74668239  0.80319513  1
  F  F472  1  0.45828395  0.25104107  0.29688204  1
  F  F473  1  0.45490731  0.24718270  0.80052751  1
  F  F474  1  0.46162917  0.75071261  0.29703258  1
  F  F475  1  0.47410653  0.73922197  0.81620488  1
  F  F476  1  0.78773757  0.25397411  0.29701750  1
  F  F477  1  0.78559637  0.25175033  0.80291296  1
  F  F478  1  0.78475447  0.74855578  0.29544428  1
  F  F479  1  0.78973462  0.74673914  0.79949565  1
