# generated using pymatgen
data_K24Na3Li5Mg64Fe17Si79(O5F)48
_symmetry_space_group_name_H-M   'P 1'
_cell_length_a   16.08498385
_cell_length_b   18.58607376
_cell_length_c   20.54958978
_cell_angle_alpha   90.01937061
_cell_angle_beta   100.00608893
_cell_angle_gamma   89.97283661
_symmetry_Int_Tables_number   1
_chemical_formula_structural   K24Na3Li5Mg64Fe17Si79(O5F)48
_chemical_formula_sum   'K24 Na3 Li5 Mg64 Fe17 Si79 O240 F48'
_cell_volume   6049.99056141
_cell_formula_units_Z   1
loop_
 _symmetry_equiv_pos_site_id
 _symmetry_equiv_pos_as_xyz
  1  'x, y, z'
loop_
 _atom_site_type_symbol
 _atom_site_label
 _atom_site_symmetry_multiplicity
 _atom_site_fract_x
 _atom_site_fract_y
 _atom_site_fract_z
 _atom_site_occupancy
  K  K0  1  -0.00224964  0.00226393  0.00447535  1
  K  K1  1  -0.00205989  0.00064312  0.49241732  1
  K  K2  1  0.00380672  0.49899263  0.00548263  1
  K  K3  1  -0.00949748  0.49917665  0.48945152  1
  K  K4  1  0.32442792  0.00320426  0.00492907  1
  K  K5  1  0.32868084  0.00489663  0.49273901  1
  K  K6  1  0.34000023  0.50450931  0.00690460  1
  K  K7  1  0.32506989  0.50378004  0.49584875  1
  K  K8  1  0.68023322  -0.00700493  0.01289356  1
  K  K9  1  0.66738375  -0.00841568  0.50384174  1
  K  K10  1  0.66912607  0.49768235  0.01461103  1
  K  K11  1  0.67489266  0.50102659  0.48739197  1
  K  K12  1  0.16005201  0.24951172  -0.00372799  1
  K  K13  1  0.15388830  0.24061039  0.49993388  1
  K  K14  1  0.17575454  0.74763443  0.01413045  1
  K  K15  1  0.17409935  0.75379708  0.48775952  1
  K  K16  1  0.50341963  0.25023566  0.00651526  1
  K  K17  1  0.51036055  0.24813921  0.50055154  1
  K  K18  1  0.49585720  0.75265504  0.00999096  1
  K  K19  1  0.50130143  0.75521057  0.49339286  1
  K  K20  1  0.83851636  0.25248199  0.00163424  1
  K  K21  1  0.82942423  0.25297429  0.49758406  1
  K  K22  1  0.83816435  0.75109308  0.00997633  1
  K  K23  1  0.82069748  0.74477644  0.49160698  1
  Na  Na24  1  0.83632849  0.00044054  0.25269310  1
  Na  Na25  1  0.16844980  0.83110656  0.24334113  1
  Na  Na26  1  0.66640814  0.41881267  0.75128532  1
  Li  Li27  1  0.81706589  0.49887867  0.24847334  1
  Li  Li28  1  0.33176577  0.75085472  0.75115519  1
  Li  Li29  1  0.67486145  0.42603991  0.25446805  1
  Li  Li30  1  0.16674638  0.16674821  0.75266469  1
  Li  Li31  1  0.67354489  0.57040179  0.24701980  1
  Mg  Mg32  1  0.16666312  0.50072522  0.24754705  1
  Mg  Mg33  1  0.66791364  0.24997989  0.74736338  1
  Mg  Mg34  1  0.33317636  0.25007682  0.24709727  1
  Mg  Mg35  1  0.16670656  0.00239576  0.24944881  1
  Mg  Mg36  1  0.66930534  0.74539952  0.25124819  1
  Mg  Mg37  1  0.49875058  0.00054151  0.74593819  1
  Mg  Mg38  1  -0.00038914  0.75186841  0.75255655  1
  Mg  Mg39  1  0.49874573  0.50022554  0.74995331  1
  Mg  Mg40  1  0.50216744  0.00184211  0.25036942  1
  Mg  Mg41  1  -0.00288906  0.24977346  0.25335447  1
  Mg  Mg42  1  0.83289377  -0.00014778  0.74835322  1
  Mg  Mg43  1  0.66412279  0.75064754  0.74625707  1
  Mg  Mg44  1  0.83324223  0.49910443  0.75252339  1
  Mg  Mg45  1  0.16669861  0.49965175  0.74948597  1
  Mg  Mg46  1  0.16753484  0.00118589  0.75530837  1
  Mg  Mg47  1  0.50802562  0.50088642  0.25042576  1
  Mg  Mg48  1  0.00339652  0.74727705  0.24627186  1
  Mg  Mg49  1  0.33482552  0.74771588  0.24639082  1
  Mg  Mg50  1  0.00295573  0.24972915  0.75558441  1
  Mg  Mg51  1  0.66796753  0.25059538  0.25378233  1
  Mg  Mg52  1  0.33009726  0.25007663  0.74678370  1
  Mg  Mg53  1  0.49923703  0.33346813  0.74806194  1
  Mg  Mg54  1  0.50075099  0.83356225  0.24788049  1
  Mg  Mg55  1  0.33668734  0.41648946  0.24883407  1
  Mg  Mg56  1  0.00366862  0.08491802  0.75492263  1
  Mg  Mg57  1  0.83001480  0.33801893  0.25486297  1
  Mg  Mg58  1  0.33039523  0.08462155  0.24716780  1
  Mg  Mg59  1  0.16388738  0.16591786  0.24775496  1
  Mg  Mg60  1  0.16566361  0.33356219  0.75008631  1
  Mg  Mg61  1  0.49539457  0.66740831  0.74876120  1
  Mg  Mg62  1  0.83011988  0.83393029  0.74853207  1
  Mg  Mg63  1  0.67022626  0.08420846  0.25221992  1
  Mg  Mg64  1  0.00248583  0.91645494  0.75423912  1
  Mg  Mg65  1  0.83077906  0.66528553  0.74860036  1
  Mg  Mg66  1  0.16959303  0.83457036  0.75417633  1
  Mg  Mg67  1  0.83220642  0.16589981  0.75041504  1
  Mg  Mg68  1  0.33525564  0.58494335  0.24695597  1
  Mg  Mg69  1  0.16847674  0.66905688  0.74931288  1
  Mg  Mg70  1  0.66389841  0.08438568  0.74566293  1
  Mg  Mg71  1  0.33312478  0.91705034  0.24779688  1
  Mg  Mg72  1  0.00316445  0.91557570  0.24796072  1
  Mg  Mg73  1  0.50396791  0.66369329  0.24991271  1
  Mg  Mg74  1  0.83276716  0.66127663  0.24862878  1
  Mg  Mg75  1  0.83532515  0.16580467  0.25344969  1
  Mg  Mg76  1  0.00105950  0.58480470  0.75088140  1
  Mg  Mg77  1  0.32985016  0.41635905  0.74706507  1
  Mg  Mg78  1  0.33226141  0.91420375  0.75227344  1
  Mg  Mg79  1  0.49441136  0.83267527  0.74726821  1
  Mg  Mg80  1  0.83785410  0.83149677  0.24961291  1
  Mg  Mg81  1  0.83453984  0.33402133  0.75327361  1
  Mg  Mg82  1  0.33174472  0.08545293  0.75055204  1
  Mg  Mg83  1  0.67248921  0.91578267  0.25053967  1
  Mg  Mg84  1  0.50189617  0.16712296  0.24943647  1
  Mg  Mg85  1  -0.00265781  0.58288921  0.25023474  1
  Mg  Mg86  1  -0.00454799  0.41877176  0.25318144  1
  Mg  Mg87  1  0.66402296  0.58378322  0.74848269  1
  Mg  Mg88  1  0.50681796  0.33506514  0.25142709  1
  Mg  Mg89  1  -0.00078973  0.08418096  0.24988382  1
  Mg  Mg90  1  0.66243432  0.91462327  0.74399191  1
  Mg  Mg91  1  0.49916302  0.16530023  0.74656772  1
  Mg  Mg92  1  0.16567498  0.33456061  0.24955947  1
  Mg  Mg93  1  0.00061284  0.41418913  0.75271069  1
  Mg  Mg94  1  0.33053501  0.58575157  0.74811042  1
  Mg  Mg95  1  0.16772329  0.66519349  0.24586268  1
  Fe  Fe96  1  0.96828803  0.16786063  0.39517241  1
  Fe  Fe97  1  0.80313494  0.07449399  0.39502975  1
  Fe  Fe98  1  0.52044686  0.08157634  0.60614665  1
  Fe  Fe99  1  0.02108385  0.65892979  0.10737307  1
  Fe  Fe100  1  0.18655527  0.09156055  0.10525544  1
  Fe  Fe101  1  0.86359322  0.91851266  0.10917210  1
  Fe  Fe102  1  0.30987296  0.66594525  0.38863638  1
  Fe  Fe103  1  0.97542349  0.33549647  0.89476812  1
  Fe  Fe104  1  0.18996917  0.92021120  0.10841762  1
  Fe  Fe105  1  0.80525261  0.58773436  0.38781257  1
  Fe  Fe106  1  0.69024846  0.82994531  0.60689140  1
  Fe  Fe107  1  0.36290237  0.66660345  0.10824078  1
  Fe  Fe108  1  0.63722812  0.16276785  0.39034480  1
  Fe  Fe109  1  0.13815965  0.08284556  0.39038902  1
  Fe  Fe110  1  0.14405180  0.91430141  0.89445529  1
  Fe  Fe111  1  0.69654646  0.16842782  0.60784723  1
  Fe  Fe112  1  0.18563149  0.41778056  0.60853664  1
  Si  Si113  1  0.63389839  0.83441567  0.88304451  1
  Si  Si114  1  0.01789706  0.34015209  0.11724616  1
  Si  Si115  1  0.02786930  0.83742726  0.61708171  1
  Si  Si116  1  0.31696007  0.83404983  0.38487234  1
  Si  Si117  1  0.51906174  0.58058557  0.61335244  1
  Si  Si118  1  0.47676343  0.41598200  0.88538134  1
  Si  Si119  1  0.18501589  0.58793038  0.61177513  1
  Si  Si120  1  0.47281188  0.08491193  0.88614193  1
  Si  Si121  1  0.35543647  0.66490253  0.61483853  1
  Si  Si122  1  0.36366308  0.83949549  0.10929725  1
  Si  Si123  1  0.80339976  0.58527172  0.88588730  1
  Si  Si124  1  0.47176242  0.91886612  0.88517104  1
  Si  Si125  1  0.97774115  0.33794300  0.38982964  1
  Si  Si126  1  0.14144637  0.58161511  0.38564456  1
  Si  Si127  1  0.02391915  0.82914496  0.10720281  1
  Si  Si128  1  0.02996708  0.16204284  0.62192729  1
  Si  Si129  1  0.69409259  0.16965983  0.11433181  1
  Si  Si130  1  0.31177214  0.82907934  0.88836721  1
  Si  Si131  1  0.01982419  0.17776855  0.11076249  1
  Si  Si132  1  0.69052705  0.33171524  0.11767262  1
  Si  Si133  1  0.64082317  0.16529489  0.88641965  1
  Si  Si134  1  0.14581683  0.91525354  0.38542616  1
  Si  Si135  1  0.86767538  0.08329784  0.61686069  1
  Si  Si136  1  0.53187217  0.08299358  0.11438779  1
  Si  Si137  1  0.97433577  0.16175976  0.89054834  1
  Si  Si138  1  0.19516966  0.08220766  0.61846846  1
  Si  Si139  1  0.97254787  0.66445942  0.88543127  1
  Si  Si140  1  0.85905245  0.09149881  0.11058325  1
  Si  Si141  1  0.52644089  0.41713927  0.11559156  1
  Si  Si142  1  0.35473224  0.17084843  0.61165985  1
  Si  Si143  1  0.86293107  0.91773673  0.61438816  1
  Si  Si144  1  0.30324881  0.17206560  0.38412901  1
  Si  Si145  1  0.52093915  0.41658309  0.61538432  1
  Si  Si146  1  0.80904806  0.41859282  0.38898394  1
  Si  Si147  1  0.86219385  0.58231263  0.61610404  1
  Si  Si148  1  0.30978253  0.17127387  0.88523496  1
  Si  Si149  1  0.36603163  0.16771709  0.10997815  1
  Si  Si150  1  0.53228600  0.91776197  0.11507532  1
  Si  Si151  1  0.31168776  0.33617188  0.88594556  1
  Si  Si152  1  0.80085332  0.91404238  0.88366568  1
  Si  Si153  1  0.14615114  0.08573934  0.88845549  1
  Si  Si154  1  0.31220419  0.33528542  0.38405387  1
  Si  Si155  1  0.47943826  0.41499009  0.38526058  1
  Si  Si156  1  0.80487313  0.41936460  0.89061601  1
  Si  Si157  1  0.64527929  0.33151872  0.38859512  1
  Si  Si158  1  0.69393814  0.82995919  0.11226789  1
  Si  Si159  1  0.02317593  0.67354700  0.61576902  1
  Si  Si160  1  0.02073667  0.32608076  0.61424867  1
  Si  Si161  1  0.86021870  0.41698097  0.61638131  1
  Si  Si162  1  0.19421092  0.57514633  0.10684370  1
  Si  Si163  1  0.14488528  0.41722548  0.38437991  1
  Si  Si164  1  0.14407115  0.58756791  0.88508801  1
  Si  Si165  1  0.97749038  0.66435889  0.38654752  1
  Si  Si166  1  0.35788863  0.33555364  0.61188850  1
  Si  Si167  1  0.63756292  0.66929262  0.88346196  1
  Si  Si168  1  0.63352396  0.67029312  0.38771153  1
  Si  Si169  1  0.68840387  0.65778487  0.61130071  1
  Si  Si170  1  0.14680449  0.42113505  0.88932494  1
  Si  Si171  1  0.81445179  0.90249045  0.38853453  1
  Si  Si172  1  0.69359309  0.66629335  0.11474117  1
  Si  Si173  1  0.36196114  0.33361754  0.11312306  1
  Si  Si174  1  0.53086735  0.58164501  0.11172640  1
  Si  Si175  1  0.80573316  0.07934740  0.88576279  1
  Si  Si176  1  0.47614014  0.92311285  0.38324792  1
  Si  Si177  1  0.47539010  0.57807880  0.38715348  1
  Si  Si178  1  0.63906587  0.32940810  0.88533984  1
  Si  Si179  1  0.85466637  0.58033002  0.11155141  1
  Si  Si180  1  0.51419249  0.91288686  0.60906472  1
  Si  Si181  1  0.31119922  0.66517656  0.88371558  1
  Si  Si182  1  0.19128302  0.40964433  0.11339527  1
  Si  Si183  1  0.19429555  0.91722897  0.61636393  1
  Si  Si184  1  0.96737407  0.83144480  0.88811296  1
  Si  Si185  1  0.98376837  0.82640198  0.38461131  1
  Si  Si186  1  0.35474597  0.82935907  0.61604977  1
  Si  Si187  1  0.46432389  0.08811327  0.38352451  1
  Si  Si188  1  0.63935263  0.83473464  0.38485711  1
  Si  Si189  1  0.47510876  0.58131794  0.88439713  1
  Si  Si190  1  0.85219850  0.41770466  0.11872350  1
  Si  Si191  1  0.69123424  0.33944458  0.61408907  1
  O  O192  1  0.28326037  0.12804060  0.07192405  1
  O  O193  1  0.27277743  0.11743648  0.58657437  1
  O  O194  1  0.27338580  0.60436069  0.07496994  1
  O  O195  1  0.27065972  0.61774176  0.58546498  1
  O  O196  1  0.61116443  0.11897733  0.08434950  1
  O  O197  1  0.61551112  0.10262315  0.57157417  1
  O  O198  1  0.61454109  0.61335012  0.08427302  1
  O  O199  1  0.60395901  0.60694515  0.58566131  1
  O  O200  1  0.93630389  0.12954817  0.07875853  1
  O  O201  1  0.95857539  0.10174235  0.59385629  1
  O  O202  1  0.92819257  0.60032898  0.07002333  1
  O  O203  1  0.93760520  0.62626922  0.58767564  1
  O  O204  1  0.10169446  0.36717643  0.08683776  1
  O  O205  1  0.09438822  0.35625858  0.57721284  1
  O  O206  1  0.11439612  0.84457811  0.08385412  1
  O  O207  1  0.11057896  0.86766589  0.58837647  1
  O  O208  1  0.43466578  0.37875109  0.08227132  1
  O  O209  1  0.44642918  0.35873801  0.58508879  1
  O  O210  1  0.44992626  0.87088618  0.08317481  1
  O  O211  1  0.43712967  0.85351143  0.58504183  1
  O  O212  1  0.77053988  0.36602770  0.08658768  1
  O  O213  1  0.76807304  0.38318171  0.58581245  1
  O  O214  1  0.76720749  0.86018409  0.07497694  1
  O  O215  1  0.78766405  0.86634492  0.57879024  1
  O  O216  1  0.26770854  0.36758803  0.08359227  1
  O  O217  1  0.28666724  0.39213159  0.57885127  1
  O  O218  1  0.29084386  0.89532269  0.07846710  1
  O  O219  1  0.27242089  0.88012375  0.58580710  1
  O  O220  1  0.60253741  0.37522733  0.08561930  1
  O  O221  1  0.60872436  0.39382082  0.59118110  1
  O  O222  1  0.60995849  0.88100665  0.08458136  1
  O  O223  1  0.59387021  0.88545224  0.57641512  1
  O  O224  1  0.93698215  0.39232577  0.08794268  1
  O  O225  1  0.93192076  0.37056430  0.58721216  1
  O  O226  1  0.95472948  0.88810033  0.07078755  1
  O  O227  1  0.95059589  0.89206109  0.58861043  1
  O  O228  1  0.09839094  0.15821901  0.07494681  1
  O  O229  1  0.11386080  0.13438332  0.59306576  1
  O  O230  1  0.11021395  0.61718057  0.07155689  1
  O  O231  1  0.10625775  0.64517419  0.58702410  1
  O  O232  1  0.44876788  0.13126883  0.08316251  1
  O  O233  1  0.43178200  0.14778755  0.57594560  1
  O  O234  1  0.45170644  0.62553601  0.07053628  1
  O  O235  1  0.43681357  0.63186413  0.58435242  1
  O  O236  1  0.77384578  0.14166724  0.08145068  1
  O  O237  1  0.80002854  0.14151835  0.58355655  1
  O  O238  1  0.77281241  0.63341028  0.08265455  1
  O  O239  1  0.76999783  0.61776989  0.58664987  1
  O  O240  1  0.05610637  0.11102096  0.43700843  1
  O  O241  1  0.06323774  0.11810679  0.91694110  1
  O  O242  1  0.05473848  0.60637523  0.41228199  1
  O  O243  1  0.06198078  0.62198504  0.91257547  1
  O  O244  1  0.37634803  0.11118639  0.40923030  1
  O  O245  1  0.39655840  0.12524826  0.91701061  1
  O  O246  1  0.39658007  0.60031815  0.42214792  1
  O  O247  1  0.39313916  0.61306084  0.91310192  1
  O  O248  1  0.70440181  0.08887432  0.42745942  1
  O  O249  1  0.72855598  0.12069978  0.91518601  1
  O  O250  1  0.71873904  0.63264516  0.42593486  1
  O  O251  1  0.72924098  0.63216170  0.91324866  1
  O  O252  1  0.22961087  0.36761367  0.41259743  1
  O  O253  1  0.23675209  0.37757978  0.91593273  1
  O  O254  1  0.23029089  0.86330412  0.40961497  1
  O  O255  1  0.23570290  0.85225577  0.92544998  1
  O  O256  1  0.56082867  0.36542793  0.41628957  1
  O  O257  1  0.56070305  0.36807844  0.91553712  1
  O  O258  1  0.56578362  0.88195289  0.41301076  1
  O  O259  1  0.55982659  0.87567473  0.91457554  1
  O  O260  1  0.89728609  0.37305794  0.41906749  1
  O  O261  1  0.88901609  0.38255185  0.93146593  1
  O  O262  1  0.89831728  0.84972116  0.41433989  1
  O  O263  1  0.88169517  0.86340255  0.91279862  1
  O  O264  1  0.06255366  0.38983225  0.41420296  1
  O  O265  1  0.07662642  0.38677974  0.92727238  1
  O  O266  1  0.06580211  0.87671951  0.41550677  1
  O  O267  1  0.04606388  0.87856155  0.92267274  1
  O  O268  1  0.39456590  0.38608056  0.41344809  1
  O  O269  1  0.39885710  0.38046864  0.91658444  1
  O  O270  1  0.39782422  0.88852411  0.41461825  1
  O  O271  1  0.39700371  0.87880927  0.91595077  1
  O  O272  1  0.72730418  0.38286531  0.41743429  1
  O  O273  1  0.72272211  0.37780846  0.91352072  1
  O  O274  1  0.73284445  0.86601372  0.41793209  1
  O  O275  1  0.72092076  0.87797147  0.91210486  1
  O  O276  1  0.22404673  0.15281161  0.41880225  1
  O  O277  1  0.22754575  0.14097948  0.91358906  1
  O  O278  1  0.21586525  0.63262432  0.42370430  1
  O  O279  1  0.22833944  0.63600538  0.91409713  1
  O  O280  1  0.53273855  0.14538452  0.41726238  1
  O  O281  1  0.56210292  0.12703890  0.91620585  1
  O  O282  1  0.55479207  0.63122141  0.41667618  1
  O  O283  1  0.56139900  0.62751364  0.91295953  1
  O  O284  1  0.87938799  0.14194726  0.43601401  1
  O  O285  1  0.89603964  0.11708719  0.91647891  1
  O  O286  1  0.90152284  0.64345066  0.42508208  1
  O  O287  1  0.89617113  0.62173996  0.91364794  1
  O  O288  1  0.15316843  0.00531985  0.06554081  1
  O  O289  1  0.17902803  -0.00031127  0.58736333  1
  O  O290  1  0.18187784  0.48929130  0.08041699  1
  O  O291  1  0.15728542  0.51219270  0.57676349  1
  O  O292  1  0.52089354  0.00055767  0.08446372  1
  O  O293  1  0.47761714  -0.01075490  0.57963062  1
  O  O294  1  0.52209963  0.49748327  0.08232926  1
  O  O295  1  0.49545440  0.49842717  0.58589012  1
  O  O296  1  0.83883793  0.01370547  0.07623159  1
  O  O297  1  0.84376820  0.00092985  0.58953737  1
  O  O298  1  0.82460767  0.49711199  0.08772005  1
  O  O299  1  0.86327394  0.49993024  0.58795744  1
  O  O300  1  -0.00919347  0.26107198  0.08645210  1
  O  O301  1  0.00234153  0.24167657  0.59049954  1
  O  O302  1  -0.00813793  0.75072408  0.07482257  1
  O  O303  1  0.00499909  0.75590652  0.58758749  1
  O  O304  1  0.36540740  0.25234519  0.08281978  1
  O  O305  1  0.32816995  0.25386550  0.58664109  1
  O  O306  1  0.34717062  0.76073473  0.07455877  1
  O  O307  1  0.33399206  0.74704409  0.58758271  1
  O  O308  1  0.67246682  0.25098082  0.08333722  1
  O  O309  1  0.67075817  0.26399895  0.57646219  1
  O  O310  1  0.67032415  0.74741472  0.08283777  1
  O  O311  1  0.67281261  0.73437966  0.57475353  1
  O  O312  1  0.16865670  -0.01010814  0.42529351  1
  O  O313  1  0.17293488  0.00898332  0.92219856  1
  O  O314  1  0.16498366  0.49850735  0.41381547  1
  O  O315  1  0.16322384  0.50602200  0.91447912  1
  O  O316  1  0.48699200  0.00560263  0.41146907  1
  O  O317  1  0.48126327  0.00176281  0.91462928  1
  O  O318  1  0.50215384  0.49571805  0.41485820  1
  O  O319  1  0.49134445  0.49884800  0.91393338  1
  O  O320  1  0.83767051  -0.02108237  0.42360338  1
  O  O321  1  0.81016032  -0.00386740  0.91440041  1
  O  O322  1  0.82235155  0.49563236  0.42688379  1
  O  O323  1  0.79948677  0.50428674  0.91635028  1
  O  O324  1  0.33590414  0.25389297  0.41178968  1
  O  O325  1  0.32514766  0.25391057  0.91578330  1
  O  O326  1  0.33951151  0.75834644  0.42361702  1
  O  O327  1  0.33889466  0.74533660  0.91203591  1
  O  O328  1  0.66657447  0.25515835  0.42492575  1
  O  O329  1  0.65116897  0.24753180  0.91822583  1
  O  O330  1  0.63296002  0.75436752  0.41625836  1
  O  O331  1  0.64101937  0.75184154  0.91266922  1
  O  O332  1  1.00063583  0.26222705  0.42578849  1
  O  O333  1  0.98114451  0.23956183  0.92638542  1
  O  O334  1  1.01127625  0.74546870  0.41360806  1
  O  O335  1  0.97627038  0.74655636  0.91397918  1
  O  O336  1  0.21278182  0.08864974  0.19718306  1
  O  O337  1  0.21407985  0.07855496  0.69814400  1
  O  O338  1  0.21052459  0.57606074  0.18814858  1
  O  O339  1  0.20577440  0.58528685  0.69309518  1
  O  O340  1  0.54411647  0.08310061  0.19410094  1
  O  O341  1  0.54245765  0.08306295  0.69983572  1
  O  O342  1  0.53971396  0.58248838  0.19118863  1
  O  O343  1  0.53908826  0.58358943  0.69404232  1
  O  O344  1  0.88011360  0.09349684  0.19000696  1
  O  O345  1  0.87971893  0.08255686  0.69840078  1
  O  O346  1  0.88013555  0.58593241  0.19070889  1
  O  O347  1  0.87882081  0.58416283  0.69676163  1
  O  O348  1  0.04093239  0.33780332  0.19729032  1
  O  O349  1  0.04267650  0.33324657  0.69512157  1
  O  O350  1  0.03253460  0.83007562  0.18779174  1
  O  O351  1  0.04349182  0.83329387  0.69750527  1
  O  O352  1  0.37777470  0.33426008  0.19324325  1
  O  O353  1  0.37548983  0.33510308  0.69343703  1
  O  O354  1  0.38119102  0.83540844  0.19072411  1
  O  O355  1  0.37414653  0.83435254  0.69585849  1
  O  O356  1  0.70998764  0.32888220  0.19648576  1
  O  O357  1  0.71588210  0.33010197  0.69389406  1
  O  O358  1  0.71083949  0.83113400  0.19293352  1
  O  O359  1  0.70982264  0.83139349  0.69927798  1
  O  O360  1  0.21175972  0.41326316  0.19363451  1
  O  O361  1  0.20891330  0.41769826  0.70098416  1
  O  O362  1  0.21791226  0.92806736  0.19820352  1
  O  O363  1  0.21206450  0.91675078  0.69664185  1
  O  O364  1  0.53750834  0.41579530  0.19434431  1
  O  O365  1  0.53128229  0.41838244  0.69498471  1
  O  O366  1  0.54661720  0.91740275  0.19519741  1
  O  O367  1  0.53774832  0.91362961  0.69136850  1
  O  O368  1  0.87581723  0.41378871  0.19767303  1
  O  O369  1  0.87711688  0.41867932  0.69693402  1
  O  O370  1  0.88237295  0.90930173  0.19859153  1
  O  O371  1  0.87820324  0.91493805  0.69591282  1
  O  O372  1  0.04120947  0.17369935  0.19115561  1
  O  O373  1  0.04346476  0.16669213  0.70173019  1
  O  O374  1  0.04551258  0.66080308  0.19891012  1
  O  O375  1  0.04146221  0.66938091  0.69648473  1
  O  O376  1  0.37882033  0.16811685  0.19079730  1
  O  O377  1  0.37510312  0.16772912  0.69313055  1
  O  O378  1  0.38479780  0.66481369  0.19930110  1
  O  O379  1  0.37696854  0.66257638  0.69452371  1
  O  O380  1  0.71100022  0.16874550  0.19384620  1
  O  O381  1  0.71212185  0.16657381  0.70134049  1
  O  O382  1  0.71226734  0.67010645  0.19366249  1
  O  O383  1  0.70712876  0.66447719  0.69257833  1
  O  O384  1  0.12138393  0.08656261  0.29843249  1
  O  O385  1  0.12430902  0.08228151  0.80839946  1
  O  O386  1  0.12794373  0.58006492  0.30511006  1
  O  O387  1  0.12432904  0.58608560  0.80433410  1
  O  O388  1  0.45335195  0.08616211  0.30240835  1
  O  O389  1  0.45517505  0.08486812  0.80600266  1
  O  O390  1  0.45811223  0.57960178  0.30646727  1
  O  O391  1  0.45554875  0.58312292  0.80422218  1
  O  O392  1  0.78488313  0.09042614  0.30469114  1
  O  O393  1  0.78816988  0.08019770  0.80556678  1
  O  O394  1  0.78923557  0.58425147  0.29967817  1
  O  O395  1  0.78773400  0.58533181  0.80535948  1
  O  O396  1  0.29229888  0.33557077  0.30336359  1
  O  O397  1  0.29394544  0.33494066  0.80590620  1
  O  O398  1  0.30661689  0.83118361  0.30526263  1
  O  O399  1  0.29021183  0.83523290  0.80826093  1
  O  O400  1  0.62230156  0.32879074  0.30863261  1
  O  O401  1  0.61732716  0.32516596  0.80620308  1
  O  O402  1  0.62354887  0.83408146  0.30442004  1
  O  O403  1  0.61720340  0.83329126  0.80282544  1
  O  O404  1  0.95843351  0.33568530  0.30889741  1
  O  O405  1  0.95649100  0.33473200  0.80304781  1
  O  O406  1  0.96314993  0.82889053  0.30472588  1
  O  O407  1  0.95277021  0.83191365  0.80656988  1
  O  O408  1  0.12684625  0.41631459  0.30396954  1
  O  O409  1  0.12409717  0.41917072  0.80853225  1
  O  O410  1  0.12251843  0.92211749  0.30620087  1
  O  O411  1  0.12313327  0.91547829  0.80209918  1
  O  O412  1  0.45817934  0.41477150  0.30488415  1
  O  O413  1  0.45606545  0.41625193  0.80523754  1
  O  O414  1  0.45952275  0.91888893  0.30285185  1
  O  O415  1  0.45628646  0.91774029  0.80476155  1
  O  O416  1  0.79278632  0.41608912  0.30985547  1
  O  O417  1  0.79990450  0.41875127  0.81110162  1
  O  O418  1  0.78848734  0.90359940  0.30881666  1
  O  O419  1  0.78644150  0.91642538  0.80342550  1
  O  O420  1  0.28920064  0.17278479  0.30310436  1
  O  O421  1  0.29716394  0.16939018  0.80577975  1
  O  O422  1  0.28891133  0.66374521  0.29757061  1
  O  O423  1  0.28842347  0.66274236  0.80408504  1
  O  O424  1  0.61976359  0.16655342  0.29783280  1
  O  O425  1  0.62172312  0.16628490  0.80661584  1
  O  O426  1  0.61931884  0.67175017  0.30801331  1
  O  O427  1  0.62080502  0.66821103  0.80296479  1
  O  O428  1  0.95638583  0.16732082  0.30219085  1
  O  O429  1  0.95540183  0.16484263  0.80963636  1
  O  O430  1  0.95569523  0.66458147  0.30612058  1
  O  O431  1  0.95482153  0.66555972  0.80471245  1
  F  F432  1  0.04448397  0.00093479  0.19805848  1
  F  F433  1  0.04548575  0.00073714  0.70526626  1
  F  F434  1  0.04598792  0.49692576  0.20096483  1
  F  F435  1  0.04404301  0.50075412  0.70409128  1
  F  F436  1  0.38330372  0.00260049  0.20068339  1
  F  F437  1  0.37623841  -0.00039351  0.70430500  1
  F  F438  1  0.38155579  0.49787090  0.20123639  1
  F  F439  1  0.37660266  0.50135236  0.70273606  1
  F  F440  1  0.69939583  -0.00044588  0.19793467  1
  F  F441  1  0.71168090  -0.00157335  0.70082996  1
  F  F442  1  0.70648560  0.49372222  0.19377398  1
  F  F443  1  0.71771969  0.50958492  0.70045325  1
  F  F444  1  0.21214155  0.25416307  0.19969965  1
  F  F445  1  0.21213652  0.25397529  0.70260915  1
  F  F446  1  0.21947114  0.73839587  0.19233917  1
  F  F447  1  0.20618202  0.75199424  0.70259670  1
  F  F448  1  0.54397826  0.25233786  0.19854632  1
  F  F449  1  0.54448754  0.25029090  0.70076379  1
  F  F450  1  0.54828986  0.75034964  0.20076971  1
  F  F451  1  0.54256051  0.74843013  0.69925770  1
  F  F452  1  0.87679777  0.25528198  0.20474290  1
  F  F453  1  0.88047397  0.24912800  0.70635747  1
  F  F454  1  0.87857043  0.74601013  0.20254959  1
  F  F455  1  0.87815308  0.74876769  0.70273748  1
  F  F456  1  0.29531287  0.00259488  0.30031613  1
  F  F457  1  0.29159120  0.00012825  0.80166506  1
  F  F458  1  0.28887339  0.49822075  0.29472685  1
  F  F459  1  0.28913871  0.50251481  0.79884367  1
  F  F460  1  0.62130109  -0.00192919  0.29861374  1
  F  F461  1  0.62083969  -0.00368533  0.79654557  1
  F  F462  1  0.61921944  0.49970583  0.30230399  1
  F  F463  1  0.61491545  0.51114026  0.80203811  1
  F  F464  1  0.96947201  -0.00000552  0.30107095  1
  F  F465  1  0.95271749  -0.00121471  0.80024593  1
  F  F466  1  0.96559346  0.50106360  0.30229447  1
  F  F467  1  0.95606494  0.50257342  0.79977366  1
  F  F468  1  0.12197265  0.25294802  0.29597735  1
  F  F469  1  0.12183838  0.25793308  0.80398852  1
  F  F470  1  0.12092061  0.74111022  0.29869296  1
  F  F471  1  0.11993423  0.74863372  0.80068730  1
  F  F472  1  0.45313225  0.25170989  0.29427481  1
  F  F473  1  0.45312131  0.25009761  0.79581635  1
  F  F474  1  0.45897107  0.75169970  0.29675084  1
  F  F475  1  0.45941411  0.74957769  0.79878708  1
  F  F476  1  0.78884777  0.25165511  0.30040061  1
  F  F477  1  0.78808929  0.25119653  0.80225331  1
  F  F478  1  0.78947720  0.74824399  0.29799398  1
  F  F479  1  0.78598349  0.74682818  0.79806530  1
