# generated using pymatgen
data_K24Na3Li5Mg64Fe17Si79(O5F)48
_symmetry_space_group_name_H-M   'P 1'
_cell_length_a   16.08802486
_cell_length_b   18.57444857
_cell_length_c   20.54741946
_cell_angle_alpha   90.01662047
_cell_angle_beta   100.01214534
_cell_angle_gamma   89.97311656
_symmetry_Int_Tables_number   1
_chemical_formula_structural   K24Na3Li5Mg64Fe17Si79(O5F)48
_chemical_formula_sum   'K24 Na3 Li5 Mg64 Fe17 Si79 O240 F48'
_cell_volume   6046.59810615
_cell_formula_units_Z   1
loop_
 _symmetry_equiv_pos_site_id
 _symmetry_equiv_pos_as_xyz
  1  'x, y, z'
loop_
 _atom_site_type_symbol
 _atom_site_label
 _atom_site_symmetry_multiplicity
 _atom_site_fract_x
 _atom_site_fract_y
 _atom_site_fract_z
 _atom_site_occupancy
  K  K0  1  0.00966617  -0.00153041  0.00898288  1
  K  K1  1  0.00153428  -0.00643372  0.49874416  1
  K  K2  1  0.00066647  0.50701897  0.00560472  1
  K  K3  1  0.00451556  0.50678179  0.49336418  1
  K  K4  1  0.33600696  -0.00418476  0.00152140  1
  K  K5  1  0.32988105  -0.00165960  0.49755476  1
  K  K6  1  0.34169500  0.50228030  0.00949407  1
  K  K7  1  0.33536925  0.50797645  0.49724587  1
  K  K8  1  0.65954682  -0.00783709  -0.01266008  1
  K  K9  1  0.66350795  -0.00266844  0.50182924  1
  K  K10  1  0.66743893  0.50316132  -0.00240804  1
  K  K11  1  0.66706024  0.50175857  0.50069031  1
  K  K12  1  0.16630577  0.24814566  0.01186095  1
  K  K13  1  0.16900380  0.24495837  0.49312640  1
  K  K14  1  0.15617173  0.75725573  0.00588061  1
  K  K15  1  0.16767845  0.74703082  0.49715937  1
  K  K16  1  0.50467586  0.24185253  0.00199212  1
  K  K17  1  0.50699397  0.25217017  0.49858201  1
  K  K18  1  0.50906123  0.75143501  -0.00713759  1
  K  K19  1  0.51418777  0.75120837  0.50992561  1
  K  K20  1  0.83356111  0.24315923  0.00459803  1
  K  K21  1  0.81520016  0.24771043  0.49708329  1
  K  K22  1  0.82922494  0.75011184  -0.01160346  1
  K  K23  1  0.82890546  0.74538071  0.50792172  1
  Na  Na24  1  0.50385991  0.50004206  0.25346520  1
  Na  Na25  1  0.66792125  0.42092925  0.25775777  1
  Na  Na26  1  0.66715669  0.42747438  0.75257339  1
  Li  Li27  1  0.17064191  -0.00049060  0.24250582  1
  Li  Li28  1  0.67964867  0.74691135  0.75973720  1
  Li  Li29  1  0.67546148  0.59384726  0.75140999  1
  Li  Li30  1  0.82275093  0.67538755  0.75657001  1
  Li  Li31  1  0.82460717  0.81865166  0.75148284  1
  Mg  Mg32  1  0.83284694  0.00093155  0.24807987  1
  Mg  Mg33  1  0.83259072  -0.00538845  0.74982953  1
  Mg  Mg34  1  0.83153751  0.50133578  0.25108972  1
  Mg  Mg35  1  0.33659524  0.74923353  0.74722378  1
  Mg  Mg36  1  -0.00119253  0.24993767  0.75161627  1
  Mg  Mg37  1  0.00033205  0.74934476  0.24598863  1
  Mg  Mg38  1  0.16828263  -0.00147400  0.74855068  1
  Mg  Mg39  1  0.33268624  0.75169779  0.24652232  1
  Mg  Mg40  1  -0.00690496  0.74973570  0.74904687  1
  Mg  Mg41  1  0.66790926  0.25081928  0.75048575  1
  Mg  Mg42  1  0.50135446  -0.00119942  0.75336234  1
  Mg  Mg43  1  0.16401427  0.49866964  0.25078701  1
  Mg  Mg44  1  0.00009087  0.24830276  0.24769591  1
  Mg  Mg45  1  0.66849035  0.74932775  0.25176847  1
  Mg  Mg46  1  0.66314559  0.25311578  0.25418064  1
  Mg  Mg47  1  0.82922589  0.50527232  0.74987437  1
  Mg  Mg48  1  0.49794699  0.00005219  0.25213545  1
  Mg  Mg49  1  0.16523939  0.50114798  0.75134529  1
  Mg  Mg50  1  0.33426224  0.25117738  0.75307543  1
  Mg  Mg51  1  0.50471237  0.50431627  0.75250999  1
  Mg  Mg52  1  0.32933925  0.25092193  0.24980813  1
  Mg  Mg53  1  0.00203733  0.91800172  0.24306704  1
  Mg  Mg54  1  0.83636126  0.66523253  0.24985616  1
  Mg  Mg55  1  -0.00338733  0.41772491  0.75176601  1
  Mg  Mg56  1  0.50258523  0.66585432  0.24984957  1
  Mg  Mg57  1  0.66703365  0.91580072  0.25082534  1
  Mg  Mg58  1  0.66535008  0.08532048  0.25169011  1
  Mg  Mg59  1  0.32996523  0.08427822  0.24699667  1
  Mg  Mg60  1  0.49945953  0.33626639  0.25428459  1
  Mg  Mg61  1  0.66538164  0.08363563  0.74988070  1
  Mg  Mg62  1  0.16524710  0.66598147  0.75003023  1
  Mg  Mg63  1  0.67130498  0.58385739  0.25325602  1
  Mg  Mg64  1  0.49983022  0.83465731  0.24848844  1
  Mg  Mg65  1  0.50557829  0.66696286  0.75080180  1
  Mg  Mg66  1  0.33295068  0.41678103  0.25152022  1
  Mg  Mg67  1  -0.00436939  0.58614194  0.75237470  1
  Mg  Mg68  1  0.16653415  0.83327830  0.74717919  1
  Mg  Mg69  1  0.50483554  0.83169545  0.74971206  1
  Mg  Mg70  1  -0.00093114  0.41472234  0.25136937  1
  Mg  Mg71  1  0.83585572  0.83394984  0.24946359  1
  Mg  Mg72  1  0.33422637  0.91460440  0.75004981  1
  Mg  Mg73  1  0.16631056  0.16349045  0.24440084  1
  Mg  Mg74  1  -0.00214570  0.91292879  0.74808983  1
  Mg  Mg75  1  0.50260461  0.33629982  0.75171032  1
  Mg  Mg76  1  0.33390719  0.58462572  0.75062663  1
  Mg  Mg77  1  0.16748199  0.16578927  0.75186016  1
  Mg  Mg78  1  0.33565884  0.08449570  0.75212312  1
  Mg  Mg79  1  0.00292266  0.08297833  0.24396271  1
  Mg  Mg80  1  0.49972985  0.16706310  0.25304749  1
  Mg  Mg81  1  0.16479707  0.66620820  0.24743793  1
  Mg  Mg82  1  0.50107046  0.16526671  0.75149391  1
  Mg  Mg83  1  0.33337513  0.58352029  0.24718276  1
  Mg  Mg84  1  0.16601719  0.83726730  0.24299315  1
  Mg  Mg85  1  -0.00087953  0.08204987  0.74888752  1
  Mg  Mg86  1  0.83070443  0.16464770  0.74816979  1
  Mg  Mg87  1  0.00032131  0.58631308  0.24960643  1
  Mg  Mg88  1  0.16671062  0.33419922  0.24938633  1
  Mg  Mg89  1  0.83267365  0.33341844  0.25230883  1
  Mg  Mg90  1  0.33188682  0.91818070  0.24656585  1
  Mg  Mg91  1  0.83209768  0.16508601  0.24844053  1
  Mg  Mg92  1  0.83008016  0.33558368  0.74980883  1
  Mg  Mg93  1  0.16481974  0.33463339  0.75269614  1
  Mg  Mg94  1  0.33353109  0.41694651  0.75203947  1
  Mg  Mg95  1  0.66914275  0.90995743  0.75155132  1
  Fe  Fe96  1  0.47567568  0.91419558  0.38740660  1
  Fe  Fe97  1  0.97726863  0.67275571  0.39025407  1
  Fe  Fe98  1  0.31356569  0.33272355  0.39233385  1
  Fe  Fe99  1  0.19636009  0.91637481  0.10369699  1
  Fe  Fe100  1  0.13819697  0.41202718  0.39062650  1
  Fe  Fe101  1  0.69197721  0.16422905  0.61039521  1
  Fe  Fe102  1  0.64638712  0.82664607  0.89187097  1
  Fe  Fe103  1  0.02127669  0.16853268  0.10436325  1
  Fe  Fe104  1  0.52565627  0.91376107  0.61241169  1
  Fe  Fe105  1  0.63783244  0.17027622  0.39073308  1
  Fe  Fe106  1  0.35622637  0.66430086  0.61121844  1
  Fe  Fe107  1  0.81346270  0.41270079  0.39281028  1
  Fe  Fe108  1  0.30903017  0.16200268  0.38760786  1
  Fe  Fe109  1  0.47431980  0.08523697  0.89291897  1
  Fe  Fe110  1  0.81043918  0.58392007  0.39391139  1
  Fe  Fe111  1  0.19277777  0.92076833  0.60947336  1
  Fe  Fe112  1  0.02038012  0.66446534  0.10560337  1
  Si  Si113  1  0.35724518  0.33850199  0.61655396  1
  Si  Si114  1  0.85187754  0.57976791  0.11058395  1
  Si  Si115  1  0.14046956  0.91429356  0.88435258  1
  Si  Si116  1  0.19739043  0.08839390  0.10356972  1
  Si  Si117  1  0.81210807  0.92003107  0.88905640  1
  Si  Si118  1  0.69897968  0.83409560  0.61424530  1
  Si  Si119  1  0.36587985  0.82757487  0.10729704  1
  Si  Si120  1  0.02262761  0.66382168  0.61607307  1
  Si  Si121  1  0.02095599  0.34060537  0.10883111  1
  Si  Si122  1  0.47315213  0.08025843  0.38639478  1
  Si  Si123  1  0.36628445  0.66266055  0.11188637  1
  Si  Si124  1  0.47500022  0.41309252  0.88838230  1
  Si  Si125  1  0.97956227  0.83984524  0.38273228  1
  Si  Si126  1  0.97591319  0.16573385  0.88474033  1
  Si  Si127  1  0.47196751  0.59151304  0.38299084  1
  Si  Si128  1  0.97700157  0.33164928  0.88757731  1
  Si  Si129  1  0.13841983  0.58498057  0.88799520  1
  Si  Si130  1  0.13955222  0.08055879  0.88466935  1
  Si  Si131  1  0.19693131  0.58325558  0.10989132  1
  Si  Si132  1  0.30216375  0.83489708  0.38309678  1
  Si  Si133  1  0.64474547  0.33483972  0.88667866  1
  Si  Si134  1  0.97469077  0.15845041  0.38201304  1
  Si  Si135  1  0.81030570  0.91551668  0.38364820  1
  Si  Si136  1  0.64240556  0.65695901  0.89056381  1
  Si  Si137  1  0.52955902  0.91636174  0.11348952  1
  Si  Si138  1  0.30677106  0.66238253  0.88754098  1
  Si  Si139  1  0.85068616  0.08088660  0.10920791  1
  Si  Si140  1  0.02640695  0.82922432  0.61182866  1
  Si  Si141  1  0.81451506  0.41668038  0.88788626  1
  Si  Si142  1  0.86626176  0.08025563  0.61237138  1
  Si  Si143  1  0.63493970  0.33942396  0.39239304  1
  Si  Si144  1  0.64655775  0.16985646  0.89009294  1
  Si  Si145  1  0.19223929  0.09153271  0.61420294  1
  Si  Si146  1  0.85312861  0.91712253  0.11263255  1
  Si  Si147  1  0.47397105  0.57850825  0.88871761  1
  Si  Si148  1  0.68898138  0.16521147  0.11336506  1
  Si  Si149  1  0.69257997  0.83210033  0.11450968  1
  Si  Si150  1  0.30449186  0.82783197  0.88550813  1
  Si  Si151  1  0.30156306  0.17093635  0.89004632  1
  Si  Si152  1  0.51831221  0.08283859  0.61261025  1
  Si  Si153  1  0.86371833  0.91519629  0.61421783  1
  Si  Si154  1  0.02734808  0.16913097  0.61715961  1
  Si  Si155  1  0.85308756  0.41600593  0.11373476  1
  Si  Si156  1  0.69018702  0.33494726  0.61504693  1
  Si  Si157  1  0.97555924  0.83434936  0.88475876  1
  Si  Si158  1  0.85879806  0.58239435  0.61774857  1
  Si  Si159  1  0.80772370  0.08106553  0.38614886  1
  Si  Si160  1  0.52490264  0.08150048  0.11467171  1
  Si  Si161  1  0.13901668  0.91919651  0.37729239  1
  Si  Si162  1  0.01754206  0.83629147  0.10550520  1
  Si  Si163  1  0.97353936  0.66875641  0.88686665  1
  Si  Si164  1  0.81179231  0.08461528  0.88624378  1
  Si  Si165  1  0.53211730  0.58124048  0.11485015  1
  Si  Si166  1  0.47047866  0.91214883  0.89182440  1
  Si  Si167  1  0.52758693  0.41405619  0.11484461  1
  Si  Si168  1  0.36167424  0.33589448  0.11290729  1
  Si  Si169  1  0.02061704  0.33280616  0.61702683  1
  Si  Si170  1  0.81153284  0.58021566  0.88775844  1
  Si  Si171  1  0.18661045  0.41371797  0.61772215  1
  Si  Si172  1  0.64000917  0.66590591  0.38670343  1
  Si  Si173  1  0.36420659  0.17069523  0.11245349  1
  Si  Si174  1  0.35894208  0.17319823  0.61660621  1
  Si  Si175  1  0.69079200  0.66745434  0.11397267  1
  Si  Si176  1  0.47048121  0.42480926  0.38890562  1
  Si  Si177  1  0.64630927  0.82977158  0.38655688  1
  Si  Si178  1  0.52296116  0.42066262  0.61678326  1
  Si  Si179  1  0.97102015  0.32200030  0.38780127  1
  Si  Si180  1  0.52970629  0.58614622  0.61408113  1
  Si  Si181  1  0.30679660  0.66987884  0.38199951  1
  Si  Si182  1  0.13960467  0.41941943  0.88792250  1
  Si  Si183  1  0.13881393  0.08145801  0.38125454  1
  Si  Si184  1  0.85682118  0.41877728  0.61587743  1
  Si  Si185  1  0.69734511  0.66851581  0.62137798  1
  Si  Si186  1  0.14646107  0.58250414  0.38762614  1
  Si  Si187  1  0.69084853  0.32871308  0.11470686  1
  Si  Si188  1  0.35786614  0.83206568  0.61222453  1
  Si  Si189  1  0.30524565  0.33627110  0.88843817  1
  Si  Si190  1  0.18651314  0.57814339  0.61450875  1
  Si  Si191  1  0.19387056  0.41732752  0.11250458  1
  O  O192  1  0.27562119  0.13444254  0.07746853  1
  O  O193  1  0.27439598  0.12601200  0.58710068  1
  O  O194  1  0.27812082  0.62066324  0.08199251  1
  O  O195  1  0.26428511  0.60080156  0.57988477  1
  O  O196  1  0.60217047  0.12007144  0.08459011  1
  O  O197  1  0.59812198  0.10720338  0.57880653  1
  O  O198  1  0.60455142  0.62311923  0.08117720  1
  O  O199  1  0.61334274  0.62018503  0.58833797  1
  O  O200  1  0.92409069  0.11140161  0.07226333  1
  O  O201  1  0.95408013  0.11095201  0.58830640  1
  O  O202  1  0.92663991  0.60507280  0.07243248  1
  O  O203  1  0.93896710  0.61626638  0.58697793  1
  O  O204  1  0.10126960  0.38167710  0.08154582  1
  O  O205  1  0.10569430  0.36086796  0.59024941  1
  O  O206  1  0.09195037  0.87104212  0.07127954  1
  O  O207  1  0.10223814  0.85819178  0.57659981  1
  O  O208  1  0.43372406  0.38045392  0.07985440  1
  O  O209  1  0.43496532  0.37542014  0.58642188  1
  O  O210  1  0.44781049  0.86741135  0.08229303  1
  O  O211  1  0.44523191  0.84261514  0.58388996  1
  O  O212  1  0.77080484  0.36409373  0.08415695  1
  O  O213  1  0.77017890  0.37483602  0.58718637  1
  O  O214  1  0.77305928  0.86380948  0.08461485  1
  O  O215  1  0.78125714  0.86737017  0.58340645  1
  O  O216  1  0.26814726  0.37185909  0.08224361  1
  O  O217  1  0.27009825  0.38467528  0.58996644  1
  O  O218  1  0.28109818  0.86419430  0.06817952  1
  O  O219  1  0.29259822  0.89650912  0.58175619  1
  O  O220  1  0.60319151  0.37272335  0.08299150  1
  O  O221  1  0.60380519  0.38337134  0.59086198  1
  O  O222  1  0.61060636  0.88256940  0.08437880  1
  O  O223  1  0.61971238  0.88160807  0.57691348  1
  O  O224  1  0.93559454  0.39058539  0.08140621  1
  O  O225  1  0.93826673  0.38206678  0.58806021  1
  O  O226  1  0.93386033  0.88981685  0.08157867  1
  O  O227  1  0.94211471  0.87812707  0.58384129  1
  O  O228  1  0.11170652  0.13064488  0.06880879  1
  O  O229  1  0.11469916  0.15028763  0.59046171  1
  O  O230  1  0.11347371  0.62373225  0.07200571  1
  O  O231  1  0.10241311  0.62781220  0.58727166  1
  O  O232  1  0.44000391  0.12735267  0.08335409  1
  O  O233  1  0.44082617  0.14294400  0.58909089  1
  O  O234  1  0.43973185  0.61670019  0.08276058  1
  O  O235  1  0.44940928  0.63151235  0.57545791  1
  O  O236  1  0.76456477  0.12835095  0.08073560  1
  O  O237  1  0.78888314  0.12974456  0.57852068  1
  O  O238  1  0.76738830  0.63010609  0.08289682  1
  O  O239  1  0.77533129  0.63015906  0.58919738  1
  O  O240  1  0.04899116  0.09960405  0.40892141  1
  O  O241  1  0.05944845  0.11682678  0.91284782  1
  O  O242  1  0.06862135  0.61085395  0.42135962  1
  O  O243  1  0.06461408  0.62778486  0.91830310  1
  O  O244  1  0.38453947  0.08588634  0.41384937  1
  O  O245  1  0.38938713  0.13804768  0.92680314  1
  O  O246  1  0.38892822  0.62007888  0.41318550  1
  O  O247  1  0.39631475  0.62106022  0.91792420  1
  O  O248  1  0.73097452  0.10807146  0.42066817  1
  O  O249  1  0.73660466  0.12663368  0.91599805  1
  O  O250  1  0.70767111  0.60930426  0.42302672  1
  O  O251  1  0.73060292  0.61006202  0.91931838  1
  O  O252  1  0.21950166  0.34926234  0.43063696  1
  O  O253  1  0.23345945  0.38535463  0.91689166  1
  O  O254  1  0.21312761  0.86070696  0.40707783  1
  O  O255  1  0.22680008  0.86917032  0.91325538  1
  O  O256  1  0.55063900  0.37257570  0.41937851  1
  O  O257  1  0.56584445  0.37324648  0.91756872  1
  O  O258  1  0.56757831  0.85331922  0.42016088  1
  O  O259  1  0.55491037  0.86946417  0.92553841  1
  O  O260  1  0.88493110  0.33181655  0.41786517  1
  O  O261  1  0.89928436  0.36724591  0.91921831  1
  O  O262  1  0.89424458  0.86746973  0.41117878  1
  O  O263  1  0.90359740  0.87862805  0.91558442  1
  O  O264  1  0.04064489  0.37989277  0.42232568  1
  O  O265  1  0.06605218  0.37440519  0.91729006  1
  O  O266  1  0.05230906  0.90158956  0.40713611  1
  O  O267  1  0.06554391  0.87550499  0.91632270  1
  O  O268  1  0.39206667  0.40662406  0.42558561  1
  O  O269  1  0.39942613  0.36896022  0.91829213  1
  O  O270  1  0.37658774  0.88706991  0.41860733  1
  O  O271  1  0.39088518  0.86870985  0.91815417  1
  O  O272  1  0.70927519  0.39621121  0.41989519  1
  O  O273  1  0.73159392  0.38147240  0.91448793  1
  O  O274  1  0.73006129  0.88168097  0.41284078  1
  O  O275  1  0.74311143  0.88349659  0.92725269  1
  O  O276  1  0.20840127  0.13632817  0.41925337  1
  O  O277  1  0.22242654  0.12845532  0.91528545  1
  O  O278  1  0.22629404  0.63933556  0.41178335  1
  O  O279  1  0.23137371  0.62000759  0.91810742  1
  O  O280  1  0.53641498  0.14531465  0.41656571  1
  O  O281  1  0.57631835  0.13415692  0.92749347  1
  O  O282  1  0.54875558  0.64806701  0.41103430  1
  O  O283  1  0.56447026  0.61386461  0.92169659  1
  O  O284  1  0.89219143  0.13068216  0.41300509  1
  O  O285  1  0.89713984  0.13255084  0.91514037  1
  O  O286  1  0.88586636  0.65495533  0.43034926  1
  O  O287  1  0.89838366  0.62747554  0.91796620  1
  O  O288  1  0.19717857  0.00987385  0.06824723  1
  O  O289  1  0.16385928  0.01622669  0.57881800  1
  O  O290  1  0.19532255  0.49895833  0.08132031  1
  O  O291  1  0.15957524  0.49432964  0.59073052  1
  O  O292  1  0.51460051  -0.00099309  0.08438357  1
  O  O293  1  0.48363357  0.00560859  0.58319822  1
  O  O294  1  0.52748785  0.49784455  0.08640472  1
  O  O295  1  0.51631327  0.50170632  0.58509974  1
  O  O296  1  0.82589088  -0.00234764  0.08370998  1
  O  O297  1  0.85446532  -0.00231661  0.58246932  1
  O  O298  1  0.82521755  0.49654695  0.08464206  1
  O  O299  1  0.84547406  0.50025996  0.58626406  1
  O  O300  1  0.00567197  0.26430735  0.07029225  1
  O  O301  1  -0.00055109  0.25046104  0.58989953  1
  O  O302  1  -0.00720020  0.75771718  0.07256729  1
  O  O303  1  0.00592551  0.74535215  0.58667942  1
  O  O304  1  0.36280227  0.25367733  0.08221500  1
  O  O305  1  0.34107927  0.25605786  0.58870039  1
  O  O306  1  0.36793573  0.74330268  0.07984894  1
  O  O307  1  0.31466439  0.75552591  0.58473406  1
  O  O308  1  0.67617386  0.24697937  0.08167350  1
  O  O309  1  0.67459537  0.25853364  0.57774043  1
  O  O310  1  0.67509141  0.75038049  0.08494602  1
  O  O311  1  0.68770410  0.74958050  0.58601828  1
  O  O312  1  0.16693923  -0.00101641  0.40750313  1
  O  O313  1  0.15198185  -0.00218493  0.91275169  1
  O  O314  1  0.17655241  0.50494403  0.41947433  1
  O  O315  1  0.13979724  0.50166880  0.91688802  1
  O  O316  1  0.51962319  0.00462117  0.41275756  1
  O  O317  1  0.47268920  -0.00830349  0.92632976  1
  O  O318  1  0.49778002  0.51005253  0.41016289  1
  O  O319  1  0.47447667  0.49511128  0.91912954  1
  O  O320  1  0.83077767  -0.00267609  0.41212192  1
  O  O321  1  0.82682657  0.00445859  0.91888764  1
  O  O322  1  0.85322279  0.49836802  0.43218163  1
  O  O323  1  0.83012271  0.49752006  0.92062638  1
  O  O324  1  0.35525964  0.24545216  0.42713620  1
  O  O325  1  0.29572319  0.25519606  0.91694641  1
  O  O326  1  0.32242215  0.75190962  0.41087874  1
  O  O327  1  0.31020117  0.74513198  0.91623238  1
  O  O328  1  0.65912695  0.26171439  0.42803145  1
  O  O329  1  0.66185521  0.25379461  0.91934060  1
  O  O330  1  0.67213500  0.74763073  0.41267212  1
  O  O331  1  0.65486234  0.73292914  0.93027376  1
  O  O332  1  1.00472884  0.23820529  0.41091168  1
  O  O333  1  0.99223545  0.24819002  0.91397258  1
  O  O334  1  1.01404105  0.76657106  0.41867037  1
  O  O335  1  0.98199665  0.75179814  0.91626543  1
  O  O336  1  0.21206447  0.08767707  0.18374339  1
  O  O337  1  0.21080127  0.08748174  0.69572534  1
  O  O338  1  0.21002609  0.58440278  0.19046788  1
  O  O339  1  0.20681758  0.58093438  0.69608006  1
  O  O340  1  0.54257725  0.08109539  0.19448126  1
  O  O341  1  0.54197290  0.08549163  0.69452263  1
  O  O342  1  0.55045199  0.59081507  0.19331901  1
  O  O343  1  0.53745473  0.58327461  0.69390954  1
  O  O344  1  0.87116467  0.08307545  0.19003816  1
  O  O345  1  0.87977783  0.08247652  0.69369946  1
  O  O346  1  0.87598109  0.58313638  0.19058894  1
  O  O347  1  0.88335605  0.57770111  0.69665048  1
  O  O348  1  0.03866440  0.33470860  0.18912639  1
  O  O349  1  0.04158731  0.33369094  0.69810211  1
  O  O350  1  0.03889036  0.83428404  0.18692838  1
  O  O351  1  0.04490268  0.83210425  0.69294437  1
  O  O352  1  0.37689670  0.33535985  0.19243225  1
  O  O353  1  0.37450284  0.33569595  0.69748778  1
  O  O354  1  0.37838742  0.82950022  0.18779417  1
  O  O355  1  0.37511818  0.83377203  0.69494657  1
  O  O356  1  0.71132968  0.32487449  0.19362322  1
  O  O357  1  0.71338775  0.32858141  0.69496119  1
  O  O358  1  0.70992847  0.83395091  0.19481799  1
  O  O359  1  0.71509773  0.83946685  0.69317139  1
  O  O360  1  0.20945650  0.41790632  0.19203159  1
  O  O361  1  0.20710650  0.41470076  0.69873226  1
  O  O362  1  0.21555350  0.91303755  0.19371752  1
  O  O363  1  0.21188569  0.91701706  0.70182704  1
  O  O364  1  0.53938186  0.40802306  0.19254272  1
  O  O365  1  0.53139544  0.41905971  0.69616100  1
  O  O366  1  0.54733320  0.91596195  0.19354558  1
  O  O367  1  0.54530258  0.91887719  0.70431624  1
  O  O368  1  0.87649751  0.41404407  0.19338799  1
  O  O369  1  0.87808676  0.41587973  0.69651507  1
  O  O370  1  0.87260055  0.91691266  0.19306248  1
  O  O371  1  0.88265149  0.92173130  0.69353176  1
  O  O372  1  0.04189414  0.16727447  0.19547578  1
  O  O373  1  0.04433107  0.16828653  0.69811610  1
  O  O374  1  0.04597611  0.66602442  0.19666507  1
  O  O375  1  0.04367845  0.66436410  0.69672590  1
  O  O376  1  0.38006157  0.16899988  0.19215300  1
  O  O377  1  0.37374485  0.17147280  0.69745213  1
  O  O378  1  0.37947806  0.66619144  0.19177649  1
  O  O379  1  0.37789307  0.66380018  0.70325402  1
  O  O380  1  0.70957261  0.16425995  0.19318356  1
  O  O381  1  0.71124266  0.16632419  0.70274588  1
  O  O382  1  0.70973879  0.67019162  0.19386898  1
  O  O383  1  0.71231801  0.67084761  0.69940350  1
  O  O384  1  0.12108153  0.08447092  0.30106051  1
  O  O385  1  0.12284572  0.08289952  0.80412948  1
  O  O386  1  0.12641803  0.58334069  0.30568115  1
  O  O387  1  0.12301965  0.58327983  0.80763532  1
  O  O388  1  0.45601595  0.08321967  0.30365332  1
  O  O389  1  0.45490189  0.08597638  0.80125218  1
  O  O390  1  0.44979988  0.59396380  0.30346407  1
  O  O391  1  0.45292814  0.57985383  0.80909149  1
  O  O392  1  0.78967232  0.08174100  0.30467268  1
  O  O393  1  0.79491929  0.08324999  0.80607266  1
  O  O394  1  0.79302619  0.58667222  0.30063844  1
  O  O395  1  0.79521299  0.57893767  0.80946058  1
  O  O396  1  0.28707649  0.33409064  0.29849207  1
  O  O397  1  0.28805549  0.33580962  0.80790099  1
  O  O398  1  0.29002568  0.83289042  0.30209074  1
  O  O399  1  0.28847645  0.82830782  0.80537877  1
  O  O400  1  0.61547255  0.32793700  0.31214181  1
  O  O401  1  0.62121920  0.32880062  0.80775284  1
  O  O402  1  0.62630602  0.83339110  0.30507385  1
  O  O403  1  0.62336773  0.83130144  0.80246863  1
  O  O404  1  0.95771358  0.32692173  0.30572003  1
  O  O405  1  0.95953992  0.33324351  0.80723355  1
  O  O406  1  0.95764912  0.83657646  0.30144921  1
  O  O407  1  0.96425019  0.83369291  0.80569837  1
  O  O408  1  0.11955483  0.41504093  0.29745632  1
  O  O409  1  0.12222629  0.41678829  0.80755504  1
  O  O410  1  0.11933851  0.91523450  0.29762711  1
  O  O411  1  0.12180919  0.91584387  0.80427857  1
  O  O412  1  0.44922591  0.41339250  0.30923356  1
  O  O413  1  0.45304634  0.41304703  0.80858523  1
  O  O414  1  0.45384962  0.91459762  0.29498932  1
  O  O415  1  0.45239799  0.91567509  0.81066412  1
  O  O416  1  0.80335754  0.41677763  0.30212735  1
  O  O417  1  0.80387913  0.41661172  0.80887666  1
  O  O418  1  0.79044594  0.91652795  0.30279926  1
  O  O419  1  0.78967031  0.92272886  0.80950337  1
  O  O420  1  0.28586702  0.16667440  0.29467534  1
  O  O421  1  0.28779393  0.16998487  0.80888357  1
  O  O422  1  0.28929197  0.66843402  0.30099737  1
  O  O423  1  0.28631407  0.66226359  0.80753908  1
  O  O424  1  0.62165726  0.16634521  0.29859214  1
  O  O425  1  0.62396540  0.16851192  0.80944473  1
  O  O426  1  0.62388312  0.66959947  0.30541758  1
  O  O427  1  0.61826295  0.66119805  0.81196738  1
  O  O428  1  0.95307408  0.16147835  0.30141648  1
  O  O429  1  0.95759478  0.16609278  0.80429099  1
  O  O430  1  0.95565856  0.66967432  0.29757661  1
  O  O431  1  0.96361994  0.66689331  0.80805167  1
  F  F432  1  0.03459913  0.00043203  0.19150458  1
  F  F433  1  0.04669437  0.00043774  0.70210804  1
  F  F434  1  0.04404803  0.50180004  0.19894778  1
  F  F435  1  0.04603885  0.49882797  0.70504184  1
  F  F436  1  0.38076605  0.00265273  0.19580006  1
  F  F437  1  0.37646661  0.00031706  0.70529952  1
  F  F438  1  0.36698502  0.50000622  0.19643593  1
  F  F439  1  0.37598237  0.49852282  0.70591178  1
  F  F440  1  0.71043288  0.00009172  0.20134471  1
  F  F441  1  0.71299189  0.00168013  0.70403857  1
  F  F442  1  0.71451533  0.50997577  0.19528259  1
  F  F443  1  0.71966975  0.50644102  0.69509064  1
  F  F444  1  0.20833360  0.25300285  0.19398223  1
  F  F445  1  0.21110888  0.25214938  0.70590559  1
  F  F446  1  0.21281919  0.74892226  0.19705345  1
  F  F447  1  0.21135004  0.74682795  0.70307814  1
  F  F448  1  0.54291207  0.25069425  0.20107087  1
  F  F449  1  0.54368305  0.25096258  0.70451153  1
  F  F450  1  0.54775056  0.75155834  0.20110673  1
  F  F451  1  0.53451372  0.74778351  0.69980578  1
  F  F452  1  0.87679444  0.24874593  0.20051977  1
  F  F453  1  0.88048660  0.25063339  0.70370598  1
  F  F454  1  0.87551567  0.75292828  0.19804175  1
  F  F455  1  0.88194288  0.74901563  0.69944856  1
  F  F456  1  0.29082968  0.00100882  0.29246196  1
  F  F457  1  0.28659015  0.00391426  0.80138550  1
  F  F458  1  0.28578490  0.50301950  0.29569765  1
  F  F459  1  0.28520542  0.49883464  0.80100687  1
  F  F460  1  0.62259165  -0.00123066  0.29666704  1
  F  F461  1  0.62303642  0.00559413  0.80277046  1
  F  F462  1  0.63025730  0.51503642  0.30924724  1
  F  F463  1  0.60715853  0.49807449  0.81605156  1
  F  F464  1  0.95303964  0.00017129  0.29213820  1
  F  F465  1  0.95738789  0.00038637  0.79869462  1
  F  F466  1  0.95639016  0.50137447  0.29409151  1
  F  F467  1  0.95915860  0.49919160  0.80218078  1
  F  F468  1  0.12073221  0.25012574  0.29297876  1
  F  F469  1  0.12086149  0.25063668  0.80107742  1
  F  F470  1  0.12290509  0.75387949  0.29217847  1
  F  F471  1  0.12108127  0.74965034  0.79737469  1
  F  F472  1  0.45098218  0.25059468  0.29540794  1
  F  F473  1  0.45371101  0.25256440  0.80063204  1
  F  F474  1  0.45395663  0.75137209  0.29377031  1
  F  F475  1  0.45317634  0.75056281  0.80208502  1
  F  F476  1  0.78678151  0.24628589  0.29668245  1
  F  F477  1  0.79286923  0.25118843  0.80133647  1
  F  F478  1  0.78938736  0.75274435  0.29623298  1
  F  F479  1  0.79507604  0.75108121  0.81236207  1
