# generated using pymatgen
data_K24Na3Li5Mg64Fe17Si79(O5F)48
_symmetry_space_group_name_H-M   'P 1'
_cell_length_a   16.07280798
_cell_length_b   18.55099610
_cell_length_c   20.52945873
_cell_angle_alpha   90.00352780
_cell_angle_beta   100.00283512
_cell_angle_gamma   90.00099007
_symmetry_Int_Tables_number   1
_chemical_formula_structural   K24Na3Li5Mg64Fe17Si79(O5F)48
_chemical_formula_sum   'K24 Na3 Li5 Mg64 Fe17 Si79 O240 F48'
_cell_volume   6028.15149123
_cell_formula_units_Z   1
loop_
 _symmetry_equiv_pos_site_id
 _symmetry_equiv_pos_as_xyz
  1  'x, y, z'
loop_
 _atom_site_type_symbol
 _atom_site_label
 _atom_site_symmetry_multiplicity
 _atom_site_fract_x
 _atom_site_fract_y
 _atom_site_fract_z
 _atom_site_occupancy
  K  K0  1  0.00594612  -0.00062626  0.00460638  1
  K  K1  1  -0.00164923  -0.00009573  0.49938865  1
  K  K2  1  -0.00320578  0.50725060  0.01013055  1
  K  K3  1  0.00173150  0.49446918  0.49590872  1
  K  K4  1  0.33406129  0.00290002  0.00155782  1
  K  K5  1  0.33574088  0.00158287  0.49846716  1
  K  K6  1  0.32886230  0.50203817  0.00460936  1
  K  K7  1  0.32097454  0.50062250  0.49584890  1
  K  K8  1  0.66697703  0.00705255  0.00053697  1
  K  K9  1  0.66546369  0.00957337  0.49672057  1
  K  K10  1  0.66549331  0.50225898  0.00181731  1
  K  K11  1  0.67528599  0.49753275  0.49837289  1
  K  K12  1  0.16922431  0.25367180  0.00363335  1
  K  K13  1  0.16460146  0.25108052  0.49843363  1
  K  K14  1  0.17010588  0.74727431  0.01185192  1
  K  K15  1  0.17561509  0.74246380  0.49736088  1
  K  K16  1  0.49849345  0.25437867  -0.00703390  1
  K  K17  1  0.49476118  0.25073064  0.50110062  1
  K  K18  1  0.49933719  0.73775066  0.00241987  1
  K  K19  1  0.49451208  0.74820504  0.49452080  1
  K  K20  1  0.83579679  0.24820726  0.00268797  1
  K  K21  1  0.83346825  0.25419391  0.49696738  1
  K  K22  1  0.83630743  0.73960964  0.00597112  1
  K  K23  1  0.83828140  0.75561861  0.49720279  1
  Na  Na24  1  0.33861174  0.24765337  0.75171438  1
  Na  Na25  1  0.49729462  0.17229812  0.75351080  1
  Na  Na26  1  0.33237106  0.58419978  0.25282964  1
  Li  Li27  1  0.16936800  0.49900068  0.74426027  1
  Li  Li28  1  0.32945655  0.74751850  0.25605475  1
  Li  Li29  1  0.67047382  0.41796945  0.25087507  1
  Li  Li30  1  0.33677742  0.08941694  0.75004718  1
  Li  Li31  1  0.66593393  0.41411398  0.74631149  1
  Mg  Mg32  1  0.66764796  0.25351528  0.24933885  1
  Mg  Mg33  1  0.83243597  -0.00021234  0.24749040  1
  Mg  Mg34  1  0.66412698  0.74873786  0.25134930  1
  Mg  Mg35  1  0.49701730  0.00452583  0.75158359  1
  Mg  Mg36  1  0.00191372  0.24928498  0.74842351  1
  Mg  Mg37  1  0.50269603  0.49885390  0.25091787  1
  Mg  Mg38  1  0.49788321  0.00018384  0.25362165  1
  Mg  Mg39  1  0.66779922  0.74807676  0.75726183  1
  Mg  Mg40  1  0.83200778  0.49640690  0.75101610  1
  Mg  Mg41  1  0.83123871  0.49838323  0.24790351  1
  Mg  Mg42  1  -0.00342258  0.75037076  0.24907017  1
  Mg  Mg43  1  0.16612506  -0.00034266  0.24989696  1
  Mg  Mg44  1  -0.00037398  0.24861037  0.24474357  1
  Mg  Mg45  1  0.17100016  0.00214403  0.74863139  1
  Mg  Mg46  1  0.00150551  0.74968620  0.74629971  1
  Mg  Mg47  1  0.33398818  0.25054796  0.24740023  1
  Mg  Mg48  1  0.50241621  0.49960396  0.75256642  1
  Mg  Mg49  1  0.66558524  0.25418611  0.74784291  1
  Mg  Mg50  1  0.33397476  0.74930354  0.75105393  1
  Mg  Mg51  1  0.83374026  0.00192725  0.74804319  1
  Mg  Mg52  1  0.16737734  0.49968924  0.24831755  1
  Mg  Mg53  1  0.66709114  0.91685356  0.75430468  1
  Mg  Mg54  1  0.83074563  0.33602518  0.24750204  1
  Mg  Mg55  1  0.00294051  0.58153133  0.74783746  1
  Mg  Mg56  1  0.49559177  0.66594226  0.25461528  1
  Mg  Mg57  1  0.33364655  0.91343206  0.25246928  1
  Mg  Mg58  1  0.50154924  0.83540262  0.75634523  1
  Mg  Mg59  1  0.16411142  0.16501763  0.24650164  1
  Mg  Mg60  1  0.66749408  0.58126689  0.25219096  1
  Mg  Mg61  1  0.49508289  0.83134031  0.25406225  1
  Mg  Mg62  1  0.83101207  0.16645942  0.74587164  1
  Mg  Mg63  1  0.33054118  0.58159384  0.75118589  1
  Mg  Mg64  1  0.50257907  0.33612113  0.74992263  1
  Mg  Mg65  1  0.50088821  0.16630128  0.25164775  1
  Mg  Mg66  1  0.66595750  0.08531314  0.24965730  1
  Mg  Mg67  1  0.66480136  0.91583124  0.25220856  1
  Mg  Mg68  1  0.66412746  0.08663764  0.74876971  1
  Mg  Mg69  1  0.83108542  0.33403303  0.74872434  1
  Mg  Mg70  1  -0.00085695  0.08391084  0.74753601  1
  Mg  Mg71  1  0.16519351  0.33445393  0.24086231  1
  Mg  Mg72  1  -0.00359246  0.41468455  0.24454605  1
  Mg  Mg73  1  0.66745069  0.58141668  0.75691041  1
  Mg  Mg74  1  0.33300969  0.41803786  0.24627398  1
  Mg  Mg75  1  -0.00051453  0.91559648  0.74653776  1
  Mg  Mg76  1  0.83447650  0.66436227  0.25155161  1
  Mg  Mg77  1  0.50227034  0.66559955  0.75619002  1
  Mg  Mg78  1  0.83381468  0.83393063  0.75088511  1
  Mg  Mg79  1  0.00300972  0.41670533  0.74899585  1
  Mg  Mg80  1  0.50388535  0.33555511  0.24849930  1
  Mg  Mg81  1  0.16519376  0.83433347  0.74699701  1
  Mg  Mg82  1  0.16540760  0.66269166  0.74620110  1
  Mg  Mg83  1  0.16893528  0.33475721  0.74848724  1
  Mg  Mg84  1  0.17132040  0.16632542  0.74796811  1
  Mg  Mg85  1  0.33220543  0.41606947  0.74876175  1
  Mg  Mg86  1  0.33356880  0.91928974  0.75164575  1
  Mg  Mg87  1  -0.00071530  0.08369163  0.24617895  1
  Mg  Mg88  1  0.83482393  0.66342766  0.75412405  1
  Mg  Mg89  1  0.83362025  0.16467172  0.24646950  1
  Mg  Mg90  1  0.17022711  0.83115605  0.25250933  1
  Mg  Mg91  1  0.33430995  0.08460221  0.25025051  1
  Mg  Mg92  1  0.16678415  0.66718138  0.24937622  1
  Mg  Mg93  1  0.83377895  0.83352419  0.25160818  1
  Mg  Mg94  1  -0.00268801  0.58415961  0.24997924  1
  Mg  Mg95  1  0.00160793  0.91510460  0.25258422  1
  Fe  Fe96  1  0.19533384  0.41899352  0.10474321  1
  Fe  Fe97  1  0.64392874  0.66635432  0.89705375  1
  Fe  Fe98  1  0.02441673  0.16307684  0.10339966  1
  Fe  Fe99  1  0.19394360  0.58013472  0.60904678  1
  Fe  Fe100  1  0.97816258  0.66957926  0.39125113  1
  Fe  Fe101  1  0.85280086  0.41486211  0.10427773  1
  Fe  Fe102  1  0.85144398  0.58788243  0.10773479  1
  Fe  Fe103  1  0.14317741  0.08566857  0.38747790  1
  Fe  Fe104  1  0.81050876  0.42072660  0.38930608  1
  Fe  Fe105  1  0.30824852  0.82881880  0.39158516  1
  Fe  Fe106  1  0.30847611  0.65942265  0.39404224  1
  Fe  Fe107  1  0.68413535  0.33777296  0.60970292  1
  Fe  Fe108  1  0.97913050  0.83986524  0.39129547  1
  Fe  Fe109  1  0.85168274  0.07883631  0.10476772  1
  Fe  Fe110  1  0.85195336  0.08580991  0.60829620  1
  Fe  Fe111  1  0.47476958  0.08551462  0.39064238  1
  Fe  Fe112  1  0.02387924  0.83583086  0.60760579  1
  Si  Si113  1  0.20095367  0.08285007  0.10920418  1
  Si  Si114  1  0.81210449  0.41247138  0.88620520  1
  Si  Si115  1  0.14128721  0.41807227  0.88422453  1
  Si  Si116  1  0.01937136  0.66511006  0.61055044  1
  Si  Si117  1  0.68523834  0.83228602  0.11686211  1
  Si  Si118  1  0.36127845  0.66997382  0.11654627  1
  Si  Si119  1  0.81474537  0.57832350  0.89068984  1
  Si  Si120  1  0.30488416  0.33377893  0.88578118  1
  Si  Si121  1  0.19835745  0.92001939  0.61252710  1
  Si  Si122  1  0.69264044  0.82704747  0.61937911  1
  Si  Si123  1  0.51847595  0.42584575  0.61245922  1
  Si  Si124  1  0.85842052  0.57928317  0.61721887  1
  Si  Si125  1  0.36319792  0.16315701  0.61388994  1
  Si  Si126  1  0.63756807  0.83126963  0.38610966  1
  Si  Si127  1  0.30895066  0.83359657  0.88676364  1
  Si  Si128  1  0.46950602  0.58006771  0.89074429  1
  Si  Si129  1  0.47281404  0.41380250  0.88614074  1
  Si  Si130  1  0.30501137  0.16597652  0.88712516  1
  Si  Si131  1  0.84981613  0.90940077  0.11099401  1
  Si  Si132  1  0.47834406  0.41381535  0.38395828  1
  Si  Si133  1  0.14503396  0.92054484  0.38762743  1
  Si  Si134  1  0.97735446  0.32739858  0.38514505  1
  Si  Si135  1  0.68543142  0.16861997  0.11107195  1
  Si  Si136  1  0.64164907  0.33442159  0.88552954  1
  Si  Si137  1  0.52099814  0.58165920  0.11572340  1
  Si  Si138  1  0.53030994  0.41672205  0.11513941  1
  Si  Si139  1  0.52679623  0.08206783  0.11484990  1
  Si  Si140  1  0.14219410  0.91607824  0.88540078  1
  Si  Si141  1  0.36088987  0.83332725  0.11449953  1
  Si  Si142  1  0.36449934  0.67035374  0.61734959  1
  Si  Si143  1  0.52951704  0.91285769  0.61878270  1
  Si  Si144  1  0.02674534  0.67242631  0.11072134  1
  Si  Si145  1  0.36391631  0.33120345  0.61331981  1
  Si  Si146  1  0.97470986  0.83386132  0.88601567  1
  Si  Si147  1  0.80689987  0.59045934  0.39052847  1
  Si  Si148  1  0.52578640  0.07675187  0.61465813  1
  Si  Si149  1  0.68174833  0.67014027  0.11513235  1
  Si  Si150  1  0.64111368  0.33424034  0.38504343  1
  Si  Si151  1  0.80868481  0.08738637  0.88534596  1
  Si  Si152  1  0.31327189  0.33523479  0.38042593  1
  Si  Si153  1  0.86148367  0.41329659  0.61351369  1
  Si  Si154  1  0.13980281  0.58512475  0.88484474  1
  Si  Si155  1  0.02540730  0.83827094  0.11411276  1
  Si  Si156  1  0.80136841  0.91741314  0.38750876  1
  Si  Si157  1  0.63854983  0.66567069  0.38705964  1
  Si  Si158  1  0.02743390  0.33155176  0.61487755  1
  Si  Si159  1  0.80224926  0.08400559  0.38389414  1
  Si  Si160  1  0.97772088  0.33251369  0.88517685  1
  Si  Si161  1  0.97682564  0.66713464  0.88627264  1
  Si  Si162  1  0.64422188  0.84018790  0.89354946  1
  Si  Si163  1  0.02410457  0.33353273  0.10492504  1
  Si  Si164  1  0.18962504  0.58929775  0.11070832  1
  Si  Si165  1  0.30571308  0.17286984  0.38568741  1
  Si  Si166  1  0.97730308  0.16722156  0.88437047  1
  Si  Si167  1  0.48117501  0.57633030  0.38919562  1
  Si  Si168  1  0.68196794  0.16942227  0.60976848  1
  Si  Si169  1  0.19708409  0.08697540  0.61364963  1
  Si  Si170  1  0.36485040  0.16713300  0.11270549  1
  Si  Si171  1  0.36302849  0.83565418  0.61975134  1
  Si  Si172  1  0.36691751  0.33271019  0.10962623  1
  Si  Si173  1  0.69393886  0.66210488  0.61960211  1
  Si  Si174  1  0.47433119  0.92114861  0.89024716  1
  Si  Si175  1  0.47736333  0.91672954  0.39068683  1
  Si  Si176  1  0.85000196  0.91711001  0.61272820  1
  Si  Si177  1  0.14201767  0.08200329  0.88601640  1
  Si  Si178  1  0.97019067  0.16201276  0.38568299  1
  Si  Si179  1  0.68804561  0.32902041  0.11112404  1
  Si  Si180  1  0.19493289  0.40834412  0.61069917  1
  Si  Si181  1  0.52341073  0.91801349  0.11585804  1
  Si  Si182  1  0.47294433  0.08529361  0.88816726  1
  Si  Si183  1  0.52522010  0.58791055  0.61886415  1
  Si  Si184  1  0.19431554  0.91677396  0.11348365  1
  Si  Si185  1  0.14276241  0.40787125  0.38002870  1
  Si  Si186  1  0.64214919  0.17197438  0.38632618  1
  Si  Si187  1  0.02842032  0.16499078  0.61208264  1
  Si  Si188  1  0.30544272  0.66711755  0.88688322  1
  Si  Si189  1  0.13554181  0.57351489  0.38651896  1
  Si  Si190  1  0.64283449  0.16832364  0.88627459  1
  Si  Si191  1  0.81130116  0.92118054  0.88733612  1
  O  O192  1  0.28594179  0.11439578  0.08198579  1
  O  O193  1  0.27360022  0.12256192  0.57990939  1
  O  O194  1  0.27144346  0.63044609  0.08600258  1
  O  O195  1  0.29213419  0.61775030  0.58086757  1
  O  O196  1  0.60682174  0.11139081  0.08348062  1
  O  O197  1  0.60679633  0.10798391  0.58489605  1
  O  O198  1  0.59860155  0.61937363  0.08551482  1
  O  O199  1  0.61167079  0.61194582  0.59080646  1
  O  O200  1  0.94097579  0.10042563  0.06309150  1
  O  O201  1  0.95127470  0.11453820  0.57758060  1
  O  O202  1  0.94348640  0.63105488  0.07344513  1
  O  O203  1  0.93903203  0.60860088  0.58715731  1
  O  O204  1  0.11062697  0.35208512  0.07585768  1
  O  O205  1  0.10925089  0.35893816  0.58447656  1
  O  O206  1  0.10186813  0.87967582  0.08267796  1
  O  O207  1  0.12178002  0.86970948  0.57787584  1
  O  O208  1  0.45280146  0.36184585  0.08323401  1
  O  O209  1  0.43590825  0.37502737  0.58033324  1
  O  O210  1  0.43787819  0.87297875  0.08241887  1
  O  O211  1  0.44773058  0.86180371  0.59134869  1
  O  O212  1  0.76618502  0.34596752  0.07378809  1
  O  O213  1  0.78535855  0.36305550  0.57812483  1
  O  O214  1  0.77057444  0.85128445  0.08627015  1
  O  O215  1  0.77517550  0.85456458  0.59027115  1
  O  O216  1  0.28999852  0.38087578  0.07214102  1
  O  O217  1  0.27106052  0.36548661  0.58105130  1
  O  O218  1  0.26945380  0.87275280  0.08321121  1
  O  O219  1  0.28710980  0.89124060  0.59010542  1
  O  O220  1  0.61166923  0.38809668  0.08406299  1
  O  O221  1  0.59774264  0.40484338  0.57734625  1
  O  O222  1  0.60690266  0.88814502  0.08711967  1
  O  O223  1  0.60999629  0.87694733  0.59033373  1
  O  O224  1  0.95437717  0.39410076  0.07503409  1
  O  O225  1  0.94827311  0.38571147  0.58687657  1
  O  O226  1  0.93497595  0.87823576  0.08359158  1
  O  O227  1  0.93186216  0.89795934  0.58029840  1
  O  O228  1  0.12294713  0.12916881  0.07142765  1
  O  O229  1  0.11381454  0.13708936  0.58457597  1
  O  O230  1  0.10864206  0.64167851  0.08009812  1
  O  O231  1  0.09886040  0.63817517  0.57849308  1
  O  O232  1  0.44573308  0.13253317  0.08388739  1
  O  O233  1  0.44014188  0.12193242  0.58296394  1
  O  O234  1  0.43449251  0.62636515  0.08331139  1
  O  O235  1  0.45517708  0.65063074  0.59300568  1
  O  O236  1  0.76171217  0.14485828  0.07424429  1
  O  O237  1  0.76347163  0.14901606  0.57600881  1
  O  O238  1  0.75848489  0.65092640  0.07788378  1
  O  O239  1  0.77414425  0.62915451  0.58930530  1
  O  O240  1  0.04345232  0.10812452  0.42041578  1
  O  O241  1  0.06168547  0.11881771  0.91413630  1
  O  O242  1  0.05032806  0.59086623  0.41597701  1
  O  O243  1  0.06560542  0.62644069  0.91762851  1
  O  O244  1  0.37693764  0.11618428  0.42087396  1
  O  O245  1  0.39765226  0.12843830  0.91915012  1
  O  O246  1  0.40114101  0.59527781  0.42321620  1
  O  O247  1  0.38869162  0.61953049  0.91810969  1
  O  O248  1  0.72173853  0.11702297  0.41328504  1
  O  O249  1  0.73080989  0.12321266  0.91752360  1
  O  O250  1  0.71801111  0.61449721  0.41736640  1
  O  O251  1  0.74270575  0.61300531  0.92653788  1
  O  O252  1  0.22928522  0.36161191  0.40925975  1
  O  O253  1  0.22986879  0.37622874  0.91721220  1
  O  O254  1  0.20642914  0.85478593  0.41871973  1
  O  O255  1  0.23084771  0.87323112  0.91625869  1
  O  O256  1  0.55105378  0.35377511  0.41168225  1
  O  O257  1  0.56449465  0.37504548  0.91644880  1
  O  O258  1  0.55436450  0.85669981  0.41552226  1
  O  O259  1  0.56601565  0.88405869  0.92022082  1
  O  O260  1  0.90594636  0.36212175  0.42214447  1
  O  O261  1  0.89675997  0.36361623  0.91571548  1
  O  O262  1  0.87854183  0.86890864  0.42266738  1
  O  O263  1  0.89880924  0.87573718  0.91622105  1
  O  O264  1  0.06833173  0.36884705  0.41304620  1
  O  O265  1  0.06308646  0.37957195  0.91471991  1
  O  O266  1  0.05483412  0.91632108  0.41386727  1
  O  O267  1  0.06473852  0.87550570  0.91506304  1
  O  O268  1  0.39140823  0.38996190  0.41117167  1
  O  O269  1  0.39792613  0.36991242  0.91625676  1
  O  O270  1  0.39734218  0.89490098  0.42413793  1
  O  O271  1  0.39711164  0.87696501  0.91772009  1
  O  O272  1  0.71200716  0.38959277  0.42048330  1
  O  O273  1  0.73113112  0.37710489  0.91502277  1
  O  O274  1  0.71532756  0.88685375  0.41402705  1
  O  O275  1  0.73144009  0.88851737  0.91810492  1
  O  O276  1  0.21886309  0.16208979  0.41445640  1
  O  O277  1  0.23022924  0.12314522  0.92005611  1
  O  O278  1  0.21356058  0.62097082  0.42485381  1
  O  O279  1  0.22657422  0.63026371  0.91625321  1
  O  O280  1  0.56334494  0.15023049  0.42131536  1
  O  O281  1  0.56439911  0.12723488  0.91561747  1
  O  O282  1  0.55913021  0.63365841  0.41907425  1
  O  O283  1  0.55261457  0.62157639  0.92834266  1
  O  O284  1  0.88284955  0.13555688  0.41240279  1
  O  O285  1  0.89557180  0.13328483  0.91237844  1
  O  O286  1  0.87391727  0.65273387  0.41910095  1
  O  O287  1  0.90284628  0.62486867  0.91641261  1
  O  O288  1  0.19325823  -0.00196560  0.08102852  1
  O  O289  1  0.18415075  0.00372624  0.58482214  1
  O  O290  1  0.17686905  0.51369266  0.07024689  1
  O  O291  1  0.17953848  0.48549364  0.57416409  1
  O  O292  1  0.50605014  0.00006367  0.08552528  1
  O  O293  1  0.51186950  -0.00707272  0.58604592  1
  O  O294  1  0.50862608  0.49916056  0.08523548  1
  O  O295  1  0.49156167  0.51015099  0.58772900  1
  O  O296  1  0.81940179  -0.01630059  0.07361192  1
  O  O297  1  0.80982044  -0.00699652  0.58375239  1
  O  O298  1  0.82058625  0.50246940  0.06454735  1
  O  O299  1  0.84046778  0.49745382  0.58833766  1
  O  O300  1  -0.00899954  0.25555174  0.07338149  1
  O  O301  1  0.00784448  0.24922237  0.58630819  1
  O  O302  1  0.01945791  0.75719058  0.08216493  1
  O  O303  1  -0.01481716  0.74331687  0.58270083  1
  O  O304  1  0.35205698  0.24829005  0.08108996  1
  O  O305  1  0.36192929  0.24728629  0.58511794  1
  O  O306  1  0.35458769  0.75178875  0.08194344  1
  O  O307  1  0.34139708  0.75404756  0.59259461  1
  O  O308  1  0.64811991  0.24853798  0.08516308  1
  O  O309  1  0.64413256  0.24584772  0.58049152  1
  O  O310  1  0.64957409  0.75297444  0.09083213  1
  O  O311  1  0.67336571  0.74454248  0.59097085  1
  O  O312  1  0.19078365  -0.00343959  0.41503222  1
  O  O313  1  0.15028154  -0.00151430  0.91596294  1
  O  O314  1  0.15977374  0.48851685  0.41017685  1
  O  O315  1  0.15036616  0.50177788  0.91273538  1
  O  O316  1  0.51455190  -0.00604230  0.42009753  1
  O  O317  1  0.47774184  0.00293977  0.92272824  1
  O  O318  1  0.51113168  0.49283306  0.41427211  1
  O  O319  1  0.47300849  0.49574709  0.91783365  1
  O  O320  1  0.81478911  0.00191630  0.41419425  1
  O  O321  1  0.82516053  0.00445750  0.91460509  1
  O  O322  1  0.83454364  0.51351078  0.42545074  1
  O  O323  1  0.83200889  0.49432379  0.91600450  1
  O  O324  1  0.34125090  0.25517500  0.40973248  1
  O  O325  1  0.30866140  0.25011957  0.91543569  1
  O  O326  1  0.33924896  0.74514710  0.43841582  1
  O  O327  1  0.31786416  0.75066392  0.91684931  1
  O  O328  1  0.67222132  0.25296145  0.41284468  1
  O  O329  1  0.64976283  0.25107900  0.91723906  1
  O  O330  1  0.65933961  0.74906768  0.41510129  1
  O  O331  1  0.65546202  0.76299196  0.92967897  1
  O  O332  1  0.99207958  0.24413777  0.41431267  1
  O  O333  1  0.99436882  0.24932764  0.91360966  1
  O  O334  1  1.02055988  0.75501339  0.43055593  1
  O  O335  1  0.98238574  0.75096132  0.91537322  1
  O  O336  1  0.21502290  0.08335915  0.18976730  1
  O  O337  1  0.20833454  0.08361913  0.69355618  1
  O  O338  1  0.19861210  0.58317723  0.18985922  1
  O  O339  1  0.21387557  0.58454783  0.70012412  1
  O  O340  1  0.54421871  0.08263793  0.19490679  1
  O  O341  1  0.54665342  0.07544216  0.69432718  1
  O  O342  1  0.54058946  0.58400867  0.19561524  1
  O  O343  1  0.54420315  0.58548983  0.69945462  1
  O  O344  1  0.87471022  0.08158178  0.19726531  1
  O  O345  1  0.87795790  0.08365440  0.70081924  1
  O  O346  1  0.87489762  0.58303997  0.19942214  1
  O  O347  1  0.87626055  0.58213096  0.69806522  1
  O  O348  1  0.04152222  0.33242008  0.18736137  1
  O  O349  1  0.04383826  0.33259843  0.69551525  1
  O  O350  1  0.04397529  0.83692611  0.19383007  1
  O  O351  1  0.04484964  0.83403519  0.70063258  1
  O  O352  1  0.37984808  0.33182788  0.19033213  1
  O  O353  1  0.38223641  0.33990429  0.69258509  1
  O  O354  1  0.38080439  0.83858252  0.19337890  1
  O  O355  1  0.37997285  0.83462799  0.70079883  1
  O  O356  1  0.70983299  0.32806589  0.19107749  1
  O  O357  1  0.71400009  0.33340577  0.69990708  1
  O  O358  1  0.70549353  0.83496703  0.19718153  1
  O  O359  1  0.70947774  0.83054612  0.70042512  1
  O  O360  1  0.21274217  0.41738360  0.19605882  1
  O  O361  1  0.21358331  0.41138716  0.69103073  1
  O  O362  1  0.21060988  0.91764646  0.19306356  1
  O  O363  1  0.21170414  0.91761904  0.69417145  1
  O  O364  1  0.54330015  0.41655489  0.19446173  1
  O  O365  1  0.53743635  0.42200377  0.69284503  1
  O  O366  1  0.54109953  0.91691953  0.19610013  1
  O  O367  1  0.54648853  0.91467406  0.69959087  1
  O  O368  1  0.87676236  0.41501943  0.19634433  1
  O  O369  1  0.87915934  0.41480526  0.69473298  1
  O  O370  1  0.86947670  0.91485773  0.19154953  1
  O  O371  1  0.87289589  0.91568307  0.69505613  1
  O  O372  1  0.04274147  0.16581668  0.19558795  1
  O  O373  1  0.04419302  0.16471151  0.69350499  1
  O  O374  1  0.04146184  0.66896211  0.19101038  1
  O  O375  1  0.04059416  0.66551836  0.69295234  1
  O  O376  1  0.37877954  0.16787208  0.19274902  1
  O  O377  1  0.37406187  0.15844343  0.69124406  1
  O  O378  1  0.38402342  0.67379494  0.19463598  1
  O  O379  1  0.38023148  0.66809583  0.69897811  1
  O  O380  1  0.70630108  0.16540913  0.19217498  1
  O  O381  1  0.70660029  0.16625580  0.69176428  1
  O  O382  1  0.70394057  0.66753618  0.19579970  1
  O  O383  1  0.71314808  0.66556713  0.70009610  1
  O  O384  1  0.12200729  0.08262531  0.29545825  1
  O  O385  1  0.12372963  0.08207295  0.80580287  1
  O  O386  1  0.12174884  0.58012404  0.30499477  1
  O  O387  1  0.11943214  0.58881008  0.80569802  1
  O  O388  1  0.45497397  0.08475135  0.29837330  1
  O  O389  1  0.45482697  0.07673661  0.81024884  1
  O  O390  1  0.46816127  0.57993422  0.30938627  1
  O  O391  1  0.45537749  0.58409031  0.81002334  1
  O  O392  1  0.78580959  0.08265250  0.30331614  1
  O  O393  1  0.78881573  0.08440881  0.80516287  1
  O  O394  1  0.78725412  0.58631827  0.30904098  1
  O  O395  1  0.79411082  0.58212575  0.80973462  1
  O  O396  1  0.29378128  0.33277339  0.30010147  1
  O  O397  1  0.28518334  0.33937004  0.80681279  1
  O  O398  1  0.28911720  0.83543109  0.30039615  1
  O  O399  1  0.29063187  0.83345205  0.80656467  1
  O  O400  1  0.62183061  0.33084115  0.30475746  1
  O  O401  1  0.62405846  0.33383743  0.80638176  1
  O  O402  1  0.62123636  0.83282728  0.30540961  1
  O  O403  1  0.62562606  0.83629805  0.81232373  1
  O  O404  1  0.95835669  0.32911308  0.30420763  1
  O  O405  1  0.95913499  0.33266492  0.80469461  1
  O  O406  1  0.95309073  0.83421661  0.29832940  1
  O  O407  1  0.95576541  0.83402032  0.80585571  1
  O  O408  1  0.12066442  0.41035730  0.29988607  1
  O  O409  1  0.12222626  0.41401589  0.80466473  1
  O  O410  1  0.12596662  0.91736316  0.30487351  1
  O  O411  1  0.12461777  0.91648048  0.80554754  1
  O  O412  1  0.45803765  0.41468599  0.30344547  1
  O  O413  1  0.45653322  0.41848213  0.80630030  1
  O  O414  1  0.45850825  0.91659784  0.30854797  1
  O  O415  1  0.45768092  0.91773667  0.81007612  1
  O  O416  1  0.78996751  0.41667289  0.29921299  1
  O  O417  1  0.79836807  0.41508937  0.80679241  1
  O  O418  1  0.78616066  0.91732748  0.30612735  1
  O  O419  1  0.79214962  0.91728572  0.80682348  1
  O  O420  1  0.29094090  0.16847579  0.30365020  1
  O  O421  1  0.28318279  0.16046275  0.80903905  1
  O  O422  1  0.28013269  0.67348356  0.30599553  1
  O  O423  1  0.29019587  0.66906473  0.80697690  1
  O  O424  1  0.62357944  0.16776432  0.30494264  1
  O  O425  1  0.63355544  0.16798569  0.80722838  1
  O  O426  1  0.62157351  0.66704229  0.30648139  1
  O  O427  1  0.62353611  0.66732751  0.80518925  1
  O  O428  1  0.95429444  0.16443026  0.30485904  1
  O  O429  1  0.95962983  0.16687260  0.80419509  1
  O  O430  1  0.95554360  0.66898269  0.29868196  1
  O  O431  1  0.95876967  0.66751600  0.80580802  1
  F  F432  1  0.04374341  -0.00429829  0.19839966  1
  F  F433  1  0.04755233  -0.00016669  0.70307065  1
  F  F434  1  0.04444960  0.49996257  0.20080086  1
  F  F435  1  0.04161299  0.49904528  0.70021402  1
  F  F436  1  0.37897721  -0.00213612  0.20018785  1
  F  F437  1  0.38207221  -0.00773795  0.70142090  1
  F  F438  1  0.38552543  0.49281198  0.19761168  1
  F  F439  1  0.38098212  0.50214706  0.70422376  1
  F  F440  1  0.70766028  -0.00113267  0.20161676  1
  F  F441  1  0.71100491  -0.00183441  0.70544227  1
  F  F442  1  0.71155127  0.50782282  0.19823961  1
  F  F443  1  0.71450648  0.50596584  0.70462257  1
  F  F444  1  0.21453825  0.24801001  0.19755602  1
  F  F445  1  0.20032200  0.25047424  0.69829896  1
  F  F446  1  0.20033051  0.75132713  0.19469156  1
  F  F447  1  0.21402341  0.75102564  0.70312589  1
  F  F448  1  0.54494118  0.24834422  0.20117564  1
  F  F449  1  0.54870015  0.26017801  0.69872590  1
  F  F450  1  0.54377068  0.75106681  0.20350108  1
  F  F451  1  0.54644879  0.75343643  0.70814830  1
  F  F452  1  0.87731319  0.24874011  0.20089135  1
  F  F453  1  0.88116237  0.24974252  0.70194545  1
  F  F454  1  0.87193594  0.75092229  0.19814215  1
  F  F455  1  0.87652506  0.74847273  0.70515328  1
  F  F456  1  0.28904228  0.00129475  0.29447981  1
  F  F457  1  0.28433598  -0.00778304  0.80381912  1
  F  F458  1  0.28409302  0.49007699  0.30156738  1
  F  F459  1  0.29460571  0.49827963  0.80170608  1
  F  F460  1  0.62096929  0.00083178  0.29801011  1
  F  F461  1  0.62211938  0.00075362  0.80168199  1
  F  F462  1  0.62097123  0.50210802  0.29860275  1
  F  F463  1  0.61895231  0.50399436  0.80451023  1
  F  F464  1  0.95230261  -0.00140866  0.29516391  1
  F  F465  1  0.95677459  -0.00270502  0.79913400  1
  F  F466  1  0.95639047  0.49698890  0.29723750  1
  F  F467  1  0.95616761  0.49961429  0.79843038  1
  F  F468  1  0.12252591  0.25246099  0.29201128  1
  F  F469  1  0.12100415  0.24854026  0.79884034  1
  F  F470  1  0.11691598  0.75014498  0.29517100  1
  F  F471  1  0.12318909  0.74882124  0.79829418  1
  F  F472  1  0.45478995  0.25130542  0.29533715  1
  F  F473  1  0.46637504  0.26600014  0.81307849  1
  F  F474  1  0.46249459  0.75004245  0.30480999  1
  F  F475  1  0.45498936  0.75146814  0.80396806  1
  F  F476  1  0.78799161  0.24729951  0.29555401  1
  F  F477  1  0.79175481  0.24717586  0.79839103  1
  F  F478  1  0.78442309  0.75108002  0.29689039  1
  F  F479  1  0.79142168  0.75036535  0.80302821  1
