# generated using pymatgen
data_K24Na3Li5Mg64Fe17Si79(O5F)48
_symmetry_space_group_name_H-M   'P 1'
_cell_length_a   16.09335604
_cell_length_b   18.57872964
_cell_length_c   20.54364069
_cell_angle_alpha   90.01230475
_cell_angle_beta   100.01046344
_cell_angle_gamma   89.98855331
_symmetry_Int_Tables_number   1
_chemical_formula_structural   K24Na3Li5Mg64Fe17Si79(O5F)48
_chemical_formula_sum   'K24 Na3 Li5 Mg64 Fe17 Si79 O240 F48'
_cell_volume   6048.91519394
_cell_formula_units_Z   1
loop_
 _symmetry_equiv_pos_site_id
 _symmetry_equiv_pos_as_xyz
  1  'x, y, z'
loop_
 _atom_site_type_symbol
 _atom_site_label
 _atom_site_symmetry_multiplicity
 _atom_site_fract_x
 _atom_site_fract_y
 _atom_site_fract_z
 _atom_site_occupancy
  K  K0  1  -0.01341675  0.00222409  -0.00072618  1
  K  K1  1  0.00310406  0.00245869  0.49764473  1
  K  K2  1  -0.00148872  0.50493891  -0.01337399  1
  K  K3  1  0.00348071  0.49183312  0.51185862  1
  K  K4  1  0.33853191  0.00034175  0.00171861  1
  K  K5  1  0.33432482  0.00543315  0.49132977  1
  K  K6  1  0.32297059  0.50150707  -0.00421156  1
  K  K7  1  0.33306451  0.49548947  0.50495253  1
  K  K8  1  0.67434303  0.00576747  0.00917735  1
  K  K9  1  0.66381716  0.01061799  0.48910582  1
  K  K10  1  0.67895286  0.49278503  -0.00582482  1
  K  K11  1  0.66501978  0.50011718  0.50451695  1
  K  K12  1  0.16204628  0.25363699  -0.00438504  1
  K  K13  1  0.15630581  0.24602719  0.50018181  1
  K  K14  1  0.16708668  0.75264563  -0.00735151  1
  K  K15  1  0.16767007  0.75272657  0.50730616  1
  K  K16  1  0.50267629  0.24537369  -0.00004345  1
  K  K17  1  0.51033766  0.24730355  0.50409480  1
  K  K18  1  0.49655749  0.75556583  0.00056501  1
  K  K19  1  0.49065293  0.75120793  0.49472978  1
  K  K20  1  0.82867125  0.24415722  -0.00217635  1
  K  K21  1  0.82918800  0.24353749  0.50610056  1
  K  K22  1  0.83795763  0.75124530  -0.00477621  1
  K  K23  1  0.83157634  0.75669217  0.50114320  1
  Na  Na24  1  0.50528261  0.00106286  0.26041114  1
  Na  Na25  1  0.17063815  0.82875820  0.75196074  1
  Na  Na26  1  0.66958447  0.08081626  0.25273845  1
  Li  Li27  1  -0.00222969  0.24710534  0.24876040  1
  Li  Li28  1  0.32657945  0.74934025  0.74864079  1
  Li  Li29  1  0.83092172  0.17069522  0.75053478  1
  Li  Li30  1  0.00081401  0.58251825  0.75227696  1
  Li  Li31  1  0.67070059  0.41557928  0.75173609  1
  Mg  Mg32  1  0.00219980  0.74863061  0.75294080  1
  Mg  Mg33  1  0.33526397  0.75126211  0.25210023  1
  Mg  Mg34  1  0.49862444  -0.00086236  0.74933340  1
  Mg  Mg35  1  0.33499452  0.24857697  0.25299713  1
  Mg  Mg36  1  0.83139053  0.00366358  0.74801052  1
  Mg  Mg37  1  0.66661757  0.74703040  0.75074088  1
  Mg  Mg38  1  0.50109339  0.49935701  0.74885550  1
  Mg  Mg39  1  0.83445891  0.49938089  0.24708903  1
  Mg  Mg40  1  0.16211081  0.49988875  0.74772173  1
  Mg  Mg41  1  0.49994492  0.50140724  0.25054064  1
  Mg  Mg42  1  0.00078060  0.75036608  0.24763668  1
  Mg  Mg43  1  0.83181328  0.50115895  0.75111876  1
  Mg  Mg44  1  0.33048550  0.25071774  0.74975152  1
  Mg  Mg45  1  0.16499745  0.00275279  0.25368860  1
  Mg  Mg46  1  0.66651948  0.75048696  0.25281302  1
  Mg  Mg47  1  0.66841858  0.25243271  0.74861816  1
  Mg  Mg48  1  0.16837667  0.49835305  0.24812573  1
  Mg  Mg49  1  0.66882287  0.24986323  0.24497477  1
  Mg  Mg50  1  0.83415979  -0.00107532  0.24805004  1
  Mg  Mg51  1  0.16604578  -0.00046048  0.75324318  1
  Mg  Mg52  1  -0.00660660  0.25009869  0.75058426  1
  Mg  Mg53  1  -0.00118978  0.91621617  0.24869312  1
  Mg  Mg54  1  0.00110573  0.58320608  0.24797907  1
  Mg  Mg55  1  0.50460434  0.33437747  0.25216587  1
  Mg  Mg56  1  0.83058695  0.33473564  0.75102486  1
  Mg  Mg57  1  0.66745998  0.08589931  0.74779953  1
  Mg  Mg58  1  0.49902779  0.16550655  0.74785991  1
  Mg  Mg59  1  0.33612547  0.58506782  0.25023323  1
  Mg  Mg60  1  0.66814512  0.41620552  0.24826245  1
  Mg  Mg61  1  0.66980199  0.58013505  0.75205932  1
  Mg  Mg62  1  0.33505433  0.08431626  0.25616721  1
  Mg  Mg63  1  0.83317415  0.83488452  0.24716408  1
  Mg  Mg64  1  0.83715583  0.66357659  0.75336293  1
  Mg  Mg65  1  0.33669544  0.41520113  0.25192750  1
  Mg  Mg66  1  0.16663386  0.66640028  0.74857375  1
  Mg  Mg67  1  0.33001378  0.41631288  0.74768954  1
  Mg  Mg68  1  0.00016154  0.41370490  0.24764816  1
  Mg  Mg69  1  0.33138018  0.91330808  0.75123720  1
  Mg  Mg70  1  0.67006111  0.91619520  0.25268731  1
  Mg  Mg71  1  0.49806305  0.66626737  0.75045546  1
  Mg  Mg72  1  -0.00180608  0.08720241  0.24990942  1
  Mg  Mg73  1  0.49741835  0.66559121  0.25167855  1
  Mg  Mg74  1  0.83511904  0.16564563  0.24746585  1
  Mg  Mg75  1  0.00299209  0.91660994  0.75156534  1
  Mg  Mg76  1  0.83463353  0.33214382  0.24601011  1
  Mg  Mg77  1  0.50174108  0.83571870  0.25454849  1
  Mg  Mg78  1  0.16250999  0.16759909  0.25348808  1
  Mg  Mg79  1  0.16574563  0.16692886  0.75272178  1
  Mg  Mg80  1  0.16906105  0.66483667  0.24912949  1
  Mg  Mg81  1  0.66551907  0.91497731  0.74827545  1
  Mg  Mg82  1  0.16711527  0.83467412  0.25164576  1
  Mg  Mg83  1  0.16590158  0.33154230  0.25103774  1
  Mg  Mg84  1  0.83317359  0.66606282  0.24834938  1
  Mg  Mg85  1  -0.00127462  0.41907802  0.75133710  1
  Mg  Mg86  1  0.50064872  0.33440578  0.74739615  1
  Mg  Mg87  1  0.49569810  0.83075728  0.74972984  1
  Mg  Mg88  1  0.16355457  0.33659000  0.74926843  1
  Mg  Mg89  1  0.33420281  0.91813713  0.25358117  1
  Mg  Mg90  1  0.33080086  0.58543946  0.74633702  1
  Mg  Mg91  1  -0.00279815  0.08453775  0.75095757  1
  Mg  Mg92  1  0.83523011  0.83373187  0.75111341  1
  Mg  Mg93  1  0.50314375  0.16574020  0.25333537  1
  Mg  Mg94  1  0.66536407  0.58450219  0.25054501  1
  Mg  Mg95  1  0.33169558  0.08429557  0.75130734  1
  Fe  Fe96  1  0.15046583  0.91791133  0.89218260  1
  Fe  Fe97  1  0.69272798  0.16964235  0.60957557  1
  Fe  Fe98  1  0.97288676  0.16083108  0.88745723  1
  Fe  Fe99  1  0.85642309  0.90722552  0.10531325  1
  Fe  Fe100  1  0.81282482  0.91761679  0.39042952  1
  Fe  Fe101  1  0.47625524  0.58426144  0.39283882  1
  Fe  Fe102  1  0.80533722  0.40853965  0.88946472  1
  Fe  Fe103  1  0.64623157  0.17106620  0.38956520  1
  Fe  Fe104  1  0.81265469  0.58239323  0.89393961  1
  Fe  Fe105  1  0.47263917  0.91408689  0.39478585  1
  Fe  Fe106  1  0.13714092  0.08349836  0.39240260  1
  Fe  Fe107  1  0.18839825  0.41404839  0.60628289  1
  Fe  Fe108  1  0.13884821  0.42075446  0.89009851  1
  Fe  Fe109  1  0.30794071  0.17047655  0.88996729  1
  Fe  Fe110  1  0.85729182  0.08380207  0.10617927  1
  Fe  Fe111  1  0.69087851  0.33876739  0.10697131  1
  Fe  Fe112  1  0.35583252  0.67318246  0.10897947  1
  Si  Si113  1  0.63718420  0.66554257  0.88709722  1
  Si  Si114  1  0.81655311  0.08456309  0.38778936  1
  Si  Si115  1  0.19408774  0.08869619  0.11848463  1
  Si  Si116  1  0.97629845  0.66378360  0.38347383  1
  Si  Si117  1  0.30112963  0.82933131  0.38914809  1
  Si  Si118  1  0.86108716  0.07801376  0.61087135  1
  Si  Si119  1  0.97868496  0.67386943  0.88825703  1
  Si  Si120  1  0.52379239  0.91194277  0.61396273  1
  Si  Si121  1  0.01665612  0.32875877  0.61116299  1
  Si  Si122  1  0.19145422  0.08381616  0.61415263  1
  Si  Si123  1  0.02466064  0.16276157  0.61451852  1
  Si  Si124  1  0.68693434  0.17013092  0.10761630  1
  Si  Si125  1  0.35637119  0.83417722  0.61409074  1
  Si  Si126  1  0.81083526  0.58542398  0.38471315  1
  Si  Si127  1  0.35825816  0.66851499  0.61397637  1
  Si  Si128  1  0.47174755  0.41833186  0.88223974  1
  Si  Si129  1  0.68847302  0.66006529  0.11509516  1
  Si  Si130  1  0.35946456  0.16310058  0.61353955  1
  Si  Si131  1  0.13780856  0.91148312  0.38788845  1
  Si  Si132  1  0.97501686  0.83934445  0.88798059  1
  Si  Si133  1  0.97031115  0.17314341  0.38751447  1
  Si  Si134  1  0.80388389  0.91542242  0.88347400  1
  Si  Si135  1  0.35588220  0.84162528  0.11414500  1
  Si  Si136  1  0.31261830  0.66531438  0.88246203  1
  Si  Si137  1  0.14647981  0.59103724  0.88571846  1
  Si  Si138  1  0.52270954  0.07817033  0.61180518  1
  Si  Si139  1  0.64861872  0.33796335  0.38697730  1
  Si  Si140  1  0.69219836  0.66425570  0.61446140  1
  Si  Si141  1  0.18978060  0.58642247  0.60972026  1
  Si  Si142  1  0.63079933  0.32874682  0.88473433  1
  Si  Si143  1  0.69127572  0.83004008  0.61420043  1
  Si  Si144  1  0.19111112  0.57702671  0.11219321  1
  Si  Si145  1  0.19667421  0.41128452  0.11587820  1
  Si  Si146  1  0.13766849  0.58071990  0.38409638  1
  Si  Si147  1  0.52388574  0.41956372  0.61440076  1
  Si  Si148  1  0.47765149  0.91453659  0.88538406  1
  Si  Si149  1  0.79891137  0.08086620  0.88530575  1
  Si  Si150  1  0.85728243  0.91395131  0.61339257  1
  Si  Si151  1  0.31812017  0.82833693  0.88757293  1
  Si  Si152  1  0.86084125  0.58563470  0.61501429  1
  Si  Si153  1  0.52548871  0.08233109  0.11661333  1
  Si  Si154  1  0.48008368  0.41454506  0.38888463  1
  Si  Si155  1  0.30594961  0.17147623  0.39081823  1
  Si  Si156  1  0.31189361  0.33711355  0.88834111  1
  Si  Si157  1  0.52385695  0.58432850  0.11342883  1
  Si  Si158  1  0.47207602  0.07843456  0.88642867  1
  Si  Si159  1  0.52836414  0.91486045  0.11705142  1
  Si  Si160  1  0.36223832  0.16379019  0.11694825  1
  Si  Si161  1  0.64452386  0.83189378  0.39115456  1
  Si  Si162  1  0.86016984  0.58803949  0.11380771  1
  Si  Si163  1  0.52316933  0.58555521  0.61415382  1
  Si  Si164  1  0.69013219  0.34050575  0.61197735  1
  Si  Si165  1  0.86651373  0.42079306  0.11030417  1
  Si  Si166  1  0.63328504  0.16341721  0.88377641  1
  Si  Si167  1  0.64745373  0.66833528  0.38873259  1
  Si  Si168  1  0.97572041  0.82596285  0.38641830  1
  Si  Si169  1  0.97472641  0.32908986  0.88898411  1
  Si  Si170  1  0.81085019  0.42242254  0.38483364  1
  Si  Si171  1  0.64019200  0.83097690  0.88354301  1
  Si  Si172  1  0.52069624  0.42181129  0.11317978  1
  Si  Si173  1  0.02330664  0.83431973  0.61476333  1
  Si  Si174  1  0.68507847  0.82368725  0.11134382  1
  Si  Si175  1  0.14233175  0.41671430  0.38453167  1
  Si  Si176  1  0.30100496  0.66328949  0.38879610  1
  Si  Si177  1  0.03010622  0.33527572  0.11521758  1
  Si  Si178  1  0.02988598  0.66416757  0.11418042  1
  Si  Si179  1  0.19196196  0.91940349  0.61438013  1
  Si  Si180  1  0.31026469  0.33586612  0.38636801  1
  Si  Si181  1  0.19415663  0.92423321  0.11893695  1
  Si  Si182  1  0.14339087  0.08361787  0.88969180  1
  Si  Si183  1  0.02513017  0.67032451  0.61432374  1
  Si  Si184  1  0.36218800  0.32976967  0.60999734  1
  Si  Si185  1  0.47237309  0.09170697  0.39343878  1
  Si  Si186  1  0.36270992  0.32999534  0.11669352  1
  Si  Si187  1  0.85782828  0.41995907  0.61447163  1
  Si  Si188  1  0.97336794  0.33824545  0.38405295  1
  Si  Si189  1  0.03571601  0.82989891  0.11184845  1
  Si  Si190  1  0.02944123  0.17019621  0.11345612  1
  Si  Si191  1  0.47366126  0.58160649  0.88288838  1
  O  O192  1  0.27653449  0.11761088  0.08820440  1
  O  O193  1  0.26787276  0.12500877  0.58479264  1
  O  O194  1  0.26136352  0.61424171  0.07657496  1
  O  O195  1  0.26915708  0.62823792  0.58237211  1
  O  O196  1  0.60252070  0.11683512  0.08421330  1
  O  O197  1  0.59253411  0.11674955  0.57713682  1
  O  O198  1  0.61453994  0.60123464  0.08785821  1
  O  O199  1  0.60363101  0.62112457  0.58480525  1
  O  O200  1  0.95308013  0.12212489  0.07574947  1
  O  O201  1  0.94606545  0.10975105  0.58412975  1
  O  O202  1  0.93498095  0.63266478  0.08620656  1
  O  O203  1  0.93508885  0.62889403  0.58350309  1
  O  O204  1  0.11361245  0.36392724  0.08581046  1
  O  O205  1  0.08710288  0.36399106  0.57290057  1
  O  O206  1  0.11737150  0.86958297  0.08790457  1
  O  O207  1  0.10224976  0.87593338  0.58748603  1
  O  O208  1  0.43959691  0.36773199  0.08649612  1
  O  O209  1  0.44154148  0.37020958  0.58231713  1
  O  O210  1  0.43837272  0.87497139  0.08646458  1
  O  O211  1  0.43589925  0.86933327  0.58347214  1
  O  O212  1  0.78638617  0.37556938  0.07484219  1
  O  O213  1  0.76486323  0.38714542  0.58357800  1
  O  O214  1  0.76185173  0.84593103  0.07473580  1
  O  O215  1  0.76967297  0.86814161  0.58543036  1
  O  O216  1  0.27624801  0.37523536  0.08733717  1
  O  O217  1  0.27697315  0.36770843  0.57208944  1
  O  O218  1  0.27899563  0.90033816  0.09044635  1
  O  O219  1  0.26748594  0.87685629  0.58322516  1
  O  O220  1  0.59877820  0.40154527  0.07741022  1
  O  O221  1  0.60426297  0.38938798  0.58375692  1
  O  O222  1  0.60089884  0.87361162  0.08244085  1
  O  O223  1  0.60184913  0.87156917  0.58570457  1
  O  O224  1  0.95273930  0.39052995  0.08600960  1
  O  O225  1  0.92728549  0.37241911  0.58235439  1
  O  O226  1  0.94969069  0.86380561  0.07320718  1
  O  O227  1  0.93401273  0.87476059  0.58229466  1
  O  O228  1  0.11751091  0.14319813  0.08786970  1
  O  O229  1  0.10608588  0.13000538  0.58439300  1
  O  O230  1  0.09680184  0.61209417  0.08541607  1
  O  O231  1  0.10195988  0.63285598  0.58213937  1
  O  O232  1  0.43692414  0.12573402  0.08350843  1
  O  O233  1  0.42930654  0.11483905  0.58380840  1
  O  O234  1  0.45539006  0.64254448  0.07935155  1
  O  O235  1  0.43748311  0.63172309  0.58292060  1
  O  O236  1  0.76092511  0.13851955  0.07093791  1
  O  O237  1  0.78168631  0.12498528  0.57552471  1
  O  O238  1  0.77302833  0.63270924  0.08663898  1
  O  O239  1  0.76907770  0.62515245  0.58350297  1
  O  O240  1  0.04746004  0.12471596  0.42697314  1
  O  O241  1  0.05497574  0.09033718  0.91770212  1
  O  O242  1  0.05181839  0.60596490  0.41131823  1
  O  O243  1  0.06864928  0.63168313  0.91433063  1
  O  O244  1  0.38808503  0.12293839  0.42224796  1
  O  O245  1  0.39338747  0.10180275  0.92048273  1
  O  O246  1  0.37686791  0.61252764  0.42439515  1
  O  O247  1  0.38960084  0.60789155  0.91190552  1
  O  O248  1  0.73177498  0.10402122  0.41735558  1
  O  O249  1  0.71323742  0.11094397  0.91179883  1
  O  O250  1  0.72990952  0.61468078  0.41508275  1
  O  O251  1  0.71542605  0.61984968  0.92486302  1
  O  O252  1  0.22839661  0.37125560  0.41387498  1
  O  O253  1  0.23239994  0.36102890  0.92234519  1
  O  O254  1  0.21212350  0.85162001  0.41368935  1
  O  O255  1  0.24026389  0.85223241  0.92306633  1
  O  O256  1  0.56157156  0.36179453  0.41500765  1
  O  O257  1  0.54426999  0.35921163  0.91091750  1
  O  O258  1  0.56046630  0.84717246  0.42325583  1
  O  O259  1  0.56224114  0.86684163  0.91376683  1
  O  O260  1  0.89494921  0.37473417  0.41589627  1
  O  O261  1  0.88786630  0.33931158  0.91882563  1
  O  O262  1  0.89657740  0.84596407  0.42082163  1
  O  O263  1  0.88703241  0.86724964  0.91268397  1
  O  O264  1  0.06071963  0.38492479  0.41340364  1
  O  O265  1  0.04216913  0.39120972  0.92147497  1
  O  O266  1  0.05527037  0.87899883  0.41597331  1
  O  O267  1  0.05045593  0.89023014  0.92369236  1
  O  O268  1  0.39479432  0.38319000  0.41526700  1
  O  O269  1  0.38615040  0.39977329  0.91140528  1
  O  O270  1  0.37586285  0.87888240  0.42776392  1
  O  O271  1  0.40216928  0.87920076  0.91906634  1
  O  O272  1  0.72511101  0.39852933  0.41244757  1
  O  O273  1  0.70691537  0.37770725  0.92106677  1
  O  O274  1  0.71865689  0.88585806  0.42557159  1
  O  O275  1  0.72537498  0.87689997  0.91220257  1
  O  O276  1  0.22844487  0.14481250  0.42519154  1
  O  O277  1  0.20595196  0.15091041  0.91782103  1
  O  O278  1  0.21330977  0.63598761  0.41460175  1
  O  O279  1  0.23037015  0.64210801  0.91472595  1
  O  O280  1  0.54987796  0.14412983  0.42460014  1
  O  O281  1  0.55365609  0.12997966  0.91455975  1
  O  O282  1  0.57067694  0.64320497  0.42490429  1
  O  O283  1  0.55016505  0.63721583  0.91239825  1
  O  O284  1  0.88491239  0.15000180  0.41622102  1
  O  O285  1  0.87574867  0.12992473  0.92071324  1
  O  O286  1  0.89221816  0.63768655  0.41271220  1
  O  O287  1  0.90729973  0.64134780  0.92673341  1
  O  O288  1  0.17124170  0.00620250  0.09108163  1
  O  O289  1  0.18179499  0.00161436  0.58214943  1
  O  O290  1  0.18224208  0.49276659  0.08661038  1
  O  O291  1  0.17843106  0.50960802  0.57172916  1
  O  O292  1  0.51730783  -0.00187224  0.08861449  1
  O  O293  1  0.51301966  -0.00631555  0.58515303  1
  O  O294  1  0.48937125  0.50373725  0.08814124  1
  O  O295  1  0.50770088  0.50301305  0.58512852  1
  O  O296  1  0.83602692  -0.00511706  0.06483387  1
  O  O297  1  0.84755039  -0.00568894  0.58116780  1
  O  O298  1  0.85544739  0.50616653  0.08520900  1
  O  O299  1  0.85859051  0.50317629  0.58390657  1
  O  O300  1  0.01259383  0.25420040  0.08590307  1
  O  O301  1  0.00331404  0.24408054  0.58403341  1
  O  O302  1  0.03999259  0.74502562  0.08609586  1
  O  O303  1  0.01717434  0.75267947  0.58196050  1
  O  O304  1  0.35077080  0.24726530  0.08814327  1
  O  O305  1  0.36195067  0.24492477  0.58384548  1
  O  O306  1  0.32993366  0.76666823  0.07573162  1
  O  O307  1  0.34746987  0.75145332  0.58439056  1
  O  O308  1  0.65701203  0.24801206  0.07399248  1
  O  O309  1  0.67839912  0.26404745  0.57373152  1
  O  O310  1  0.65807488  0.73953462  0.08589020  1
  O  O311  1  0.68286567  0.74724880  0.58439586  1
  O  O312  1  0.16205278  -0.01201530  0.42359585  1
  O  O313  1  0.19123734  0.00963108  0.91943203  1
  O  O314  1  0.15977971  0.49930472  0.41318107  1
  O  O315  1  0.16347419  0.51474701  0.92427113  1
  O  O316  1  0.48953720  0.01065726  0.42366649  1
  O  O317  1  0.49885896  -0.00393913  0.91353290  1
  O  O318  1  0.50261001  0.49076391  0.42545077  1
  O  O319  1  0.50017914  0.49996803  0.91042672  1
  O  O320  1  0.85391287  0.00836491  0.42119868  1
  O  O321  1  0.81267598  -0.00335998  0.91368848  1
  O  O322  1  0.83406584  0.50442235  0.41430509  1
  O  O323  1  0.83524538  0.49462374  0.93415145  1
  O  O324  1  0.32723310  0.25547123  0.41695995  1
  O  O325  1  0.35067997  0.26136574  0.91985913  1
  O  O326  1  0.31807453  0.74570369  0.41667769  1
  O  O327  1  0.34525406  0.74459606  0.91233144  1
  O  O328  1  0.68226450  0.26397978  0.42191571  1
  O  O329  1  0.64548505  0.24509125  0.91381379  1
  O  O330  1  0.67927247  0.74874304  0.41448350  1
  O  O331  1  0.65094631  0.74978143  0.91390796  1
  O  O332  1  0.98962105  0.25771523  0.41474461  1
  O  O333  1  1.01490133  0.25152895  0.91627884  1
  O  O334  1  1.00661275  0.74288732  0.41273826  1
  O  O335  1  0.99417931  0.75734089  0.91694727  1
  O  O336  1  0.21250434  0.08743903  0.19888468  1
  O  O337  1  0.20891897  0.08252551  0.69413514  1
  O  O338  1  0.20991604  0.58110845  0.19364228  1
  O  O339  1  0.20841779  0.58239434  0.69007706  1
  O  O340  1  0.53623329  0.08900255  0.19451003  1
  O  O341  1  0.54013375  0.08014222  0.69294034  1
  O  O342  1  0.54371839  0.58488742  0.19472990  1
  O  O343  1  0.54235849  0.58573969  0.69421092  1
  O  O344  1  0.87955478  0.08264485  0.19848664  1
  O  O345  1  0.87767136  0.07577989  0.69055058  1
  O  O346  1  0.87824692  0.58514248  0.19461861  1
  O  O347  1  0.87483389  0.58624481  0.69395617  1
  O  O348  1  0.04889449  0.33816971  0.19509727  1
  O  O349  1  0.03872102  0.33194094  0.69129695  1
  O  O350  1  0.04708596  0.83060758  0.19317427  1
  O  O351  1  0.03246947  0.83247202  0.69358911  1
  O  O352  1  0.37848429  0.33302845  0.19721801  1
  O  O353  1  0.37570686  0.33234271  0.69090183  1
  O  O354  1  0.37360409  0.83385985  0.19468171  1
  O  O355  1  0.37745367  0.83693412  0.69338952  1
  O  O356  1  0.71289019  0.33795857  0.19905108  1
  O  O357  1  0.70785063  0.33375665  0.69143542  1
  O  O358  1  0.70771505  0.82541627  0.19212009  1
  O  O359  1  0.70888785  0.83116054  0.69462581  1
  O  O360  1  0.21335474  0.41404877  0.19657236  1
  O  O361  1  0.21141713  0.41593216  0.69716871  1
  O  O362  1  0.20934846  0.91896594  0.19954080  1
  O  O363  1  0.21494071  0.92375037  0.69308830  1
  O  O364  1  0.54158374  0.41920482  0.19458579  1
  O  O365  1  0.53713309  0.41823988  0.69372407  1
  O  O366  1  0.55024139  0.90810361  0.19602040  1
  O  O367  1  0.54188329  0.91257422  0.69449822  1
  O  O368  1  0.87948187  0.41990771  0.19166908  1
  O  O369  1  0.87735264  0.41958454  0.69404751  1
  O  O370  1  0.88238321  0.91165220  0.19725575  1
  O  O371  1  0.87410752  0.91454034  0.69373382  1
  O  O372  1  0.04569217  0.16746472  0.19365607  1
  O  O373  1  0.04502714  0.16465276  0.69435182  1
  O  O374  1  0.04585758  0.66421926  0.19503209  1
  O  O375  1  0.04320498  0.67042428  0.69348781  1
  O  O376  1  0.37709989  0.16720907  0.19731881  1
  O  O377  1  0.37720670  0.16426621  0.69375926  1
  O  O378  1  0.37497506  0.66864446  0.20083914  1
  O  O379  1  0.37994386  0.66387797  0.69311889  1
  O  O380  1  0.71470072  0.17476093  0.18748709  1
  O  O381  1  0.70635984  0.16760123  0.69970384  1
  O  O382  1  0.70983812  0.66343816  0.19584505  1
  O  O383  1  0.70872776  0.66735778  0.69437886  1
  O  O384  1  0.12008356  0.08422658  0.30099154  1
  O  O385  1  0.12474671  0.08436518  0.80689347  1
  O  O386  1  0.12287505  0.58129863  0.30346580  1
  O  O387  1  0.13057593  0.58430335  0.80569180  1
  O  O388  1  0.45049237  0.09505368  0.31297195  1
  O  O389  1  0.45571564  0.08087645  0.80512088  1
  O  O390  1  0.45627473  0.58165318  0.30111523  1
  O  O391  1  0.45559267  0.58256645  0.80242662  1
  O  O392  1  0.80423950  0.08315389  0.30759365  1
  O  O393  1  0.78326838  0.07680202  0.80528505  1
  O  O394  1  0.79254113  0.58399810  0.30414560  1
  O  O395  1  0.78880446  0.58517150  0.80165707  1
  O  O396  1  0.29141146  0.33537870  0.30583700  1
  O  O397  1  0.29177239  0.33440455  0.80642697  1
  O  O398  1  0.28704580  0.83088123  0.30789038  1
  O  O399  1  0.30356243  0.83409611  0.80861939  1
  O  O400  1  0.62596267  0.33950036  0.30617004  1
  O  O401  1  0.61606770  0.32808750  0.80456232  1
  O  O402  1  0.62633778  0.83016343  0.30939084  1
  O  O403  1  0.62233484  0.83198434  0.80291417  1
  O  O404  1  0.95367404  0.34168822  0.30463281  1
  O  O405  1  0.95690252  0.33423320  0.80673190  1
  O  O406  1  0.95984747  0.82733397  0.30542062  1
  O  O407  1  0.95633813  0.83630731  0.80674029  1
  O  O408  1  0.12476847  0.41764566  0.30420776  1
  O  O409  1  0.11994016  0.41783169  0.79847390  1
  O  O410  1  0.12148058  0.91414911  0.30669043  1
  O  O411  1  0.11956699  0.92214022  0.80220976  1
  O  O412  1  0.45911685  0.41701368  0.30753628  1
  O  O413  1  0.45405304  0.41744651  0.80154737  1
  O  O414  1  0.44822587  0.90732668  0.30486142  1
  O  O415  1  0.45881954  0.91532960  0.80477409  1
  O  O416  1  0.79400651  0.42141608  0.30452775  1
  O  O417  1  0.78924361  0.41866244  0.79914252  1
  O  O418  1  0.79247096  0.91257740  0.29920412  1
  O  O419  1  0.78669921  0.91510153  0.80268761  1
  O  O420  1  0.28853408  0.17004880  0.30958621  1
  O  O421  1  0.28865394  0.16748665  0.79774256  1
  O  O422  1  0.28617374  0.66307853  0.30775185  1
  O  O423  1  0.29086793  0.66294298  0.80292167  1
  O  O424  1  0.61962642  0.17926902  0.29995840  1
  O  O425  1  0.61630516  0.16393993  0.80344226  1
  O  O426  1  0.62587921  0.66472929  0.30750344  1
  O  O427  1  0.62266774  0.66581359  0.80584495  1
  O  O428  1  0.95848121  0.16895177  0.30773173  1
  O  O429  1  0.95296166  0.16544613  0.79661068  1
  O  O430  1  0.95772164  0.66409362  0.30289931  1
  O  O431  1  0.95428560  0.67267283  0.80826545  1
  F  F432  1  0.04752552  -0.00284512  0.20083599  1
  F  F433  1  0.04438439  0.00162794  0.70058823  1
  F  F434  1  0.04693067  0.50007791  0.20075409  1
  F  F435  1  0.04364240  0.49913686  0.69660971  1
  F  F436  1  0.36565294  0.00263516  0.20345502  1
  F  F437  1  0.37873552  -0.00071133  0.70203163  1
  F  F438  1  0.37702598  0.49726186  0.20188914  1
  F  F439  1  0.37826241  0.50060383  0.69877888  1
  F  F440  1  0.71603441  -0.01086525  0.19556397  1
  F  F441  1  0.70861994  -0.00307119  0.69904907  1
  F  F442  1  0.71345501  0.50271489  0.20193626  1
  F  F443  1  0.71160719  0.50758245  0.69515975  1
  F  F444  1  0.21500376  0.25077477  0.20382367  1
  F  F445  1  0.20984238  0.25191806  0.69946626  1
  F  F446  1  0.21233855  0.74963379  0.20376790  1
  F  F447  1  0.21262696  0.73902658  0.69366467  1
  F  F448  1  0.54172709  0.25621850  0.19914031  1
  F  F449  1  0.54229712  0.24907722  0.69870907  1
  F  F450  1  0.54521779  0.74847722  0.20653253  1
  F  F451  1  0.54606007  0.74903889  0.69991400  1
  F  F452  1  0.87974075  0.25189242  0.20058162  1
  F  F453  1  0.87734961  0.25908526  0.69773241  1
  F  F454  1  0.88057412  0.74641234  0.20003643  1
  F  F455  1  0.87696070  0.75022874  0.70320541  1
  F  F456  1  0.28534670  0.00101160  0.30364714  1
  F  F457  1  0.29070782  -0.00014628  0.79777531  1
  F  F458  1  0.28775384  0.49939583  0.29784970  1
  F  F459  1  0.28886758  0.50207467  0.79475158  1
  F  F460  1  0.63539897  -0.01275066  0.31136545  1
  F  F461  1  0.61930351  -0.00237208  0.79509347  1
  F  F462  1  0.62298789  0.50075398  0.29702412  1
  F  F463  1  0.61698219  0.50431519  0.79840560  1
  F  F464  1  0.96077710  -0.00187579  0.29853420  1
  F  F465  1  0.95049009  -0.00175917  0.79592721  1
  F  F466  1  0.95648248  0.50114167  0.29600310  1
  F  F467  1  0.95290287  0.50060882  0.79781647  1
  F  F468  1  0.12741645  0.25333781  0.30183394  1
  F  F469  1  0.11917253  0.25196284  0.79407148  1
  F  F470  1  0.12091817  0.74697684  0.29678952  1
  F  F471  1  0.11789647  0.74013026  0.80239501  1
  F  F472  1  0.45397844  0.25443457  0.29909283  1
  F  F473  1  0.45292006  0.24974414  0.79360889  1
  F  F474  1  0.45497515  0.74888461  0.30139284  1
  F  F475  1  0.46299795  0.74886285  0.79912366  1
  F  F476  1  0.79058984  0.25132944  0.29640678  1
  F  F477  1  0.78340112  0.25607289  0.79973834  1
  F  F478  1  0.79039456  0.74693823  0.29604950  1
  F  F479  1  0.78626715  0.75128544  0.79827987  1
