# generated using pymatgen
data_K24Na3Li5Mg64Fe17Si79(O5F)48
_symmetry_space_group_name_H-M   'P 1'
_cell_length_a   16.10189374
_cell_length_b   18.59722230
_cell_length_c   20.56251041
_cell_angle_alpha   89.99193028
_cell_angle_beta   100.02024855
_cell_angle_gamma   90.02336043
_symmetry_Int_Tables_number   1
_chemical_formula_structural   K24Na3Li5Mg64Fe17Si79(O5F)48
_chemical_formula_sum   'K24 Na3 Li5 Mg64 Fe17 Si79 O240 F48'
_cell_volume   6063.52963543
_cell_formula_units_Z   1
loop_
 _symmetry_equiv_pos_site_id
 _symmetry_equiv_pos_as_xyz
  1  'x, y, z'
loop_
 _atom_site_type_symbol
 _atom_site_label
 _atom_site_symmetry_multiplicity
 _atom_site_fract_x
 _atom_site_fract_y
 _atom_site_fract_z
 _atom_site_occupancy
  K  K0  1  -0.00080038  -0.00425636  -0.00852882  1
  K  K1  1  -0.00387884  -0.00785317  0.51507870  1
  K  K2  1  -0.00339275  0.49449489  -0.00754036  1
  K  K3  1  -0.00371136  0.50091317  0.50140269  1
  K  K4  1  0.34155528  0.00530042  -0.00963491  1
  K  K5  1  0.33427926  -0.00429640  0.51060423  1
  K  K6  1  0.32326474  0.50169042  -0.00439014  1
  K  K7  1  0.34733833  0.49906339  0.51358860  1
  K  K8  1  0.65574850  0.00635458  -0.01219600  1
  K  K9  1  0.67622787  -0.00567669  0.51110882  1
  K  K10  1  0.67899785  0.50503983  -0.00632502  1
  K  K11  1  0.66107894  0.50580578  0.51255861  1
  K  K12  1  0.16409558  0.25892522  -0.01160166  1
  K  K13  1  0.16337254  0.26140683  0.51269716  1
  K  K14  1  0.16260217  0.74563915  -0.01248449  1
  K  K15  1  0.16618020  0.75510200  0.51052297  1
  K  K16  1  0.49373403  0.24189756  -0.01346272  1
  K  K17  1  0.50820334  0.24913365  0.51066135  1
  K  K18  1  0.50455970  0.74524937  -0.00741080  1
  K  K19  1  0.51472955  0.74524598  0.51266790  1
  K  K20  1  0.83255929  0.26126386  -0.00974964  1
  K  K21  1  0.84280699  0.24195157  0.51507313  1
  K  K22  1  0.83471843  0.73987588  -0.00863218  1
  K  K23  1  0.82536787  0.75873675  0.50546882  1
  Na  Na24  1  0.83880096  0.50155596  0.24681691  1
  Na  Na25  1  0.66600187  0.08135958  0.75556502  1
  Na  Na26  1  0.50215338  0.66819972  0.74701834  1
  Li  Li27  1  0.00133747  0.24745558  0.74926760  1
  Li  Li28  1  0.83005179  0.49824747  0.74791511  1
  Li  Li29  1  0.16707387  0.83489046  0.75111603  1
  Li  Li30  1  -0.00334484  0.57985131  0.24863850  1
  Li  Li31  1  0.49950068  0.16763332  0.25187050  1
  Mg  Mg32  1  0.00163034  0.75091223  0.75254756  1
  Mg  Mg33  1  0.16505293  0.50057554  0.74451308  1
  Mg  Mg34  1  0.49731734  0.00110257  0.75482275  1
  Mg  Mg35  1  0.33454343  0.24813377  0.25005989  1
  Mg  Mg36  1  0.00025528  0.25142066  0.24553384  1
  Mg  Mg37  1  0.66717854  0.24952243  0.75102207  1
  Mg  Mg38  1  0.16734340  -0.00141239  0.75262530  1
  Mg  Mg39  1  0.16481860  -0.00162966  0.25001263  1
  Mg  Mg40  1  0.83026375  -0.00016170  0.25627363  1
  Mg  Mg41  1  0.33211722  0.25044167  0.74702061  1
  Mg  Mg42  1  0.50032090  0.00342389  0.25431031  1
  Mg  Mg43  1  0.66689816  0.74963695  0.25407472  1
  Mg  Mg44  1  0.16448892  0.50200103  0.24273868  1
  Mg  Mg45  1  0.33333800  0.74888397  0.24807013  1
  Mg  Mg46  1  0.66504162  0.25087275  0.25136264  1
  Mg  Mg47  1  0.50013198  0.49858826  0.24870222  1
  Mg  Mg48  1  0.33104768  0.75084850  0.74677057  1
  Mg  Mg49  1  0.50428220  0.49967609  0.74770620  1
  Mg  Mg50  1  -0.00277230  0.74517179  0.24985217  1
  Mg  Mg51  1  0.66783574  0.74970586  0.75007026  1
  Mg  Mg52  1  0.83624731  0.00102670  0.75347994  1
  Mg  Mg53  1  0.66795552  0.91802738  0.75628719  1
  Mg  Mg54  1  0.16421840  0.33382311  0.74446471  1
  Mg  Mg55  1  0.49930512  0.33458282  0.74689288  1
  Mg  Mg56  1  0.83460246  0.33584021  0.24749136  1
  Mg  Mg57  1  0.83324759  0.66454587  0.24979754  1
  Mg  Mg58  1  0.33581103  0.58465638  0.74602978  1
  Mg  Mg59  1  0.33380053  0.91551982  0.25246195  1
  Mg  Mg60  1  -0.00337673  0.41487589  0.74670057  1
  Mg  Mg61  1  0.32910405  0.91462120  0.75254704  1
  Mg  Mg62  1  0.33115158  0.08503575  0.74931727  1
  Mg  Mg63  1  0.83280144  0.16691868  0.25248247  1
  Mg  Mg64  1  0.16326083  0.66379174  0.24520824  1
  Mg  Mg65  1  0.16540367  0.16700590  0.75010543  1
  Mg  Mg66  1  0.66785812  0.41659955  0.25084404  1
  Mg  Mg67  1  0.50191993  0.66466922  0.25017167  1
  Mg  Mg68  1  0.83630271  0.33275029  0.74638602  1
  Mg  Mg69  1  -0.00399065  0.58141354  0.74997603  1
  Mg  Mg70  1  -0.00402871  0.91388516  0.25334349  1
  Mg  Mg71  1  0.16507469  0.66881806  0.74747315  1
  Mg  Mg72  1  0.16496458  0.16474241  0.24725536  1
  Mg  Mg73  1  0.66937810  0.58361684  0.25022503  1
  Mg  Mg74  1  0.00088075  0.41794109  0.24371545  1
  Mg  Mg75  1  0.83375132  0.66321683  0.75219161  1
  Mg  Mg76  1  0.16444696  0.33420410  0.24321354  1
  Mg  Mg77  1  0.00697748  0.91387257  0.75481383  1
  Mg  Mg78  1  -0.00205879  0.08370083  0.24959340  1
  Mg  Mg79  1  0.66829560  0.41681944  0.74552242  1
  Mg  Mg80  1  0.66443420  0.08686519  0.25490954  1
  Mg  Mg81  1  0.49966294  0.33007235  0.25066348  1
  Mg  Mg82  1  0.49841120  0.16545973  0.75111918  1
  Mg  Mg83  1  0.33421693  0.41642130  0.74425399  1
  Mg  Mg84  1  0.00455949  0.08577480  0.75135358  1
  Mg  Mg85  1  0.16368237  0.83212504  0.24948924  1
  Mg  Mg86  1  0.50023434  0.83397922  0.75248593  1
  Mg  Mg87  1  0.33103908  0.58379588  0.24567934  1
  Mg  Mg88  1  0.33450587  0.08420332  0.25108587  1
  Mg  Mg89  1  0.33107944  0.41499661  0.24532466  1
  Mg  Mg90  1  0.67038960  0.58221241  0.74910928  1
  Mg  Mg91  1  0.50286108  0.83474556  0.25483905  1
  Mg  Mg92  1  0.82987995  0.83493257  0.25538757  1
  Mg  Mg93  1  0.66720443  0.91560468  0.25641809  1
  Mg  Mg94  1  0.83756327  0.83458032  0.75607296  1
  Mg  Mg95  1  0.83710165  0.16679292  0.75031976  1
  Fe  Fe96  1  0.64666616  0.66794629  0.88977660  1
  Fe  Fe97  1  0.97655578  0.83685204  0.89513066  1
  Fe  Fe98  1  0.02231764  0.32974514  0.10489339  1
  Fe  Fe99  1  0.14452504  0.08103688  0.89276741  1
  Fe  Fe100  1  0.18627490  0.91492949  0.61285986  1
  Fe  Fe101  1  0.85523356  0.57971501  0.61174572  1
  Fe  Fe102  1  0.52731734  0.58405922  0.60678394  1
  Fe  Fe103  1  0.35288236  0.32875011  0.60500406  1
  Fe  Fe104  1  0.19214247  0.58761608  0.10468336  1
  Fe  Fe105  1  0.63699141  0.83064152  0.39644938  1
  Fe  Fe106  1  0.30674966  0.17421474  0.89027958  1
  Fe  Fe107  1  0.69209398  0.66677068  0.11098936  1
  Fe  Fe108  1  0.02779455  0.17242242  0.60973415  1
  Fe  Fe109  1  0.81012176  0.92102122  0.39719461  1
  Fe  Fe110  1  0.47454602  0.08064804  0.89261472  1
  Fe  Fe111  1  0.81004426  0.41257845  0.88513153  1
  Fe  Fe112  1  0.53032662  0.41158238  0.60446194  1
  Si  Si113  1  0.81046628  0.09073812  0.88699486  1
  Si  Si114  1  0.30979284  0.34298367  0.88339635  1
  Si  Si115  1  0.68631074  0.83638929  0.11541172  1
  Si  Si116  1  0.30749038  0.66809915  0.38370077  1
  Si  Si117  1  0.97825044  0.17193217  0.38416710  1
  Si  Si118  1  0.19152536  0.91228873  0.11599544  1
  Si  Si119  1  0.13754021  0.91499255  0.38544877  1
  Si  Si120  1  0.02396063  0.34323511  0.60829592  1
  Si  Si121  1  0.14346536  0.41926456  0.38084172  1
  Si  Si122  1  0.85372797  0.91665275  0.11813116  1
  Si  Si123  1  0.86458445  0.58879347  0.11281411  1
  Si  Si124  1  0.36767161  0.66934882  0.11126193  1
  Si  Si125  1  0.35553615  0.16514553  0.11655720  1
  Si  Si126  1  0.52286276  0.08237105  0.61590185  1
  Si  Si127  1  0.69701836  0.67485385  0.61092465  1
  Si  Si128  1  0.35637411  0.16002795  0.60977575  1
  Si  Si129  1  0.19197047  0.07843929  0.11468225  1
  Si  Si130  1  0.02117912  0.15757517  0.11141539  1
  Si  Si131  1  0.64477259  0.83680035  0.88904490  1
  Si  Si132  1  0.47314454  0.08534212  0.38680879  1
  Si  Si133  1  0.13975735  0.08169501  0.38496632  1
  Si  Si134  1  0.64089506  0.17141600  0.88894944  1
  Si  Si135  1  0.81350037  0.58129182  0.88864444  1
  Si  Si136  1  0.52368631  0.41231265  0.11588050  1
  Si  Si137  1  0.52615749  0.91832066  0.61884899  1
  Si  Si138  1  0.80552547  0.92484179  0.89230549  1
  Si  Si139  1  0.69204037  0.33578861  0.11455930  1
  Si  Si140  1  0.97584010  0.82776936  0.39009725  1
  Si  Si141  1  0.80924009  0.58024561  0.38621588  1
  Si  Si142  1  0.30613875  0.65952560  0.88306320  1
  Si  Si143  1  0.97588341  0.66279898  0.38513203  1
  Si  Si144  1  0.52554228  0.08817739  0.11951154  1
  Si  Si145  1  0.85758644  0.41920667  0.11005981  1
  Si  Si146  1  0.85928057  0.08101280  0.61416213  1
  Si  Si147  1  0.02237517  0.66387040  0.61367780  1
  Si  Si148  1  0.13995549  0.41635450  0.87993236  1
  Si  Si149  1  0.97796096  0.33621203  0.38248667  1
  Si  Si150  1  0.52740226  0.57692831  0.11412562  1
  Si  Si151  1  0.36076825  0.32940057  0.11376456  1
  Si  Si152  1  0.69191692  0.16950298  0.11704526  1
  Si  Si153  1  0.18880692  0.42557067  0.60746097  1
  Si  Si154  1  0.85981962  0.91608215  0.61976020  1
  Si  Si155  1  0.81126402  0.09337174  0.39095683  1
  Si  Si156  1  0.85624978  0.41320211  0.61112785  1
  Si  Si157  1  0.52539593  0.92440526  0.11840079  1
  Si  Si158  1  0.80906270  0.41284830  0.38513413  1
  Si  Si159  1  0.02512891  0.67275811  0.11074160  1
  Si  Si160  1  0.47376167  0.42120495  0.88299181  1
  Si  Si161  1  0.35995317  0.83661032  0.61275407  1
  Si  Si162  1  0.69268631  0.16137374  0.61653283  1
  Si  Si163  1  0.19566642  0.41376443  0.10653801  1
  Si  Si164  1  0.46994138  0.58011980  0.38323995  1
  Si  Si165  1  0.19058067  0.59108183  0.61219133  1
  Si  Si166  1  0.97789669  0.66629109  0.88771846  1
  Si  Si167  1  0.64144328  0.65746911  0.39016134  1
  Si  Si168  1  0.64079665  0.33577265  0.38709833  1
  Si  Si169  1  0.30971153  0.82378408  0.88533662  1
  Si  Si170  1  0.36288727  0.83588962  0.11663201  1
  Si  Si171  1  0.01946063  0.83621722  0.11633585  1
  Si  Si172  1  0.69294811  0.83940850  0.62149859  1
  Si  Si173  1  0.64012139  0.17015848  0.38755899  1
  Si  Si174  1  0.47046019  0.41441851  0.38251684  1
  Si  Si175  1  0.30467190  0.33150326  0.38187560  1
  Si  Si176  1  0.46685250  0.91927238  0.39067844  1
  Si  Si177  1  0.47257388  0.58192570  0.88487423  1
  Si  Si178  1  0.14268201  0.58330539  0.38172585  1
  Si  Si179  1  0.15164778  0.91448101  0.89312274  1
  Si  Si180  1  0.97532932  0.16284968  0.88730470  1
  Si  Si181  1  0.63626774  0.33538234  0.88676325  1
  Si  Si182  1  0.30520949  0.16579799  0.38523274  1
  Si  Si183  1  0.19202088  0.08238621  0.61010533  1
  Si  Si184  1  0.47306000  0.90895392  0.88948114  1
  Si  Si185  1  0.85363345  0.08024568  0.11772625  1
  Si  Si186  1  0.69903264  0.32433449  0.60999810  1
  Si  Si187  1  0.35463122  0.67092475  0.61008631  1
  Si  Si188  1  0.30302836  0.83386275  0.38494761  1
  Si  Si189  1  0.97915445  0.32743919  0.88217783  1
  Si  Si190  1  0.01903529  0.82750055  0.61492516  1
  Si  Si191  1  0.13852072  0.58078394  0.88113136  1
  O  O192  1  0.27146284  0.11634402  0.08738363  1
  O  O193  1  0.28438721  0.09796870  0.58578086  1
  O  O194  1  0.28530566  0.62877581  0.07301676  1
  O  O195  1  0.26746997  0.62530763  0.57912339  1
  O  O196  1  0.60377952  0.12604588  0.08927511  1
  O  O197  1  0.60501642  0.11601253  0.58806443  1
  O  O198  1  0.60712061  0.59771724  0.08080231  1
  O  O199  1  0.61467098  0.63179837  0.57377235  1
  O  O200  1  0.93789242  0.10467000  0.08897672  1
  O  O201  1  0.92829211  0.11768349  0.57619921  1
  O  O202  1  0.94850335  0.61643592  0.08243497  1
  O  O203  1  0.95444083  0.60601729  0.57878165  1
  O  O204  1  0.12149526  0.35837434  0.07577137  1
  O  O205  1  0.10067053  0.38329526  0.57701383  1
  O  O206  1  0.10262768  0.86976954  0.08916219  1
  O  O207  1  0.09298379  0.85576900  0.57705521  1
  O  O208  1  0.44515633  0.35810157  0.08677117  1
  O  O209  1  0.44098593  0.35476979  0.56396828  1
  O  O210  1  0.43666045  0.88183189  0.08878514  1
  O  O211  1  0.44633319  0.86703511  0.58669861  1
  O  O212  1  0.76666465  0.37561441  0.08391268  1
  O  O213  1  0.78803866  0.34768333  0.58584562  1
  O  O214  1  0.77112458  0.86822011  0.08871195  1
  O  O215  1  0.77119266  0.87446061  0.59071564  1
  O  O216  1  0.28376109  0.38257492  0.08315371  1
  O  O217  1  0.26193896  0.39285887  0.57166273  1
  O  O218  1  0.26984929  0.87227152  0.08867256  1
  O  O219  1  0.28235481  0.88527839  0.57658714  1
  O  O220  1  0.60471479  0.38010600  0.08650038  1
  O  O221  1  0.62416577  0.37287450  0.57033076  1
  O  O222  1  0.60663013  0.89272940  0.08980539  1
  O  O223  1  0.60977524  0.88846321  0.59157185  1
  O  O224  1  0.92748716  0.38610976  0.07064523  1
  O  O225  1  0.94091800  0.39322173  0.57902622  1
  O  O226  1  0.93822611  0.88909449  0.08994852  1
  O  O227  1  0.93301284  0.87601549  0.58693167  1
  O  O228  1  0.10222191  0.11775029  0.08628218  1
  O  O229  1  0.12553303  0.14387263  0.57721458  1
  O  O230  1  0.10445770  0.65286447  0.07530730  1
  O  O231  1  0.11083364  0.64442785  0.58557441  1
  O  O232  1  0.43861480  0.13234395  0.09040858  1
  O  O233  1  0.44096736  0.12974889  0.58066513  1
  O  O234  1  0.44963463  0.63278039  0.08608602  1
  O  O235  1  0.42848734  0.63884270  0.57513585  1
  O  O236  1  0.77096616  0.13064627  0.08904388  1
  O  O237  1  0.76622078  0.11831273  0.58535743  1
  O  O238  1  0.78727896  0.63873624  0.07673312  1
  O  O239  1  0.77756666  0.65196400  0.57778995  1
  O  O240  1  0.06104590  0.12114687  0.41219848  1
  O  O241  1  0.04377212  0.10564613  0.92345668  1
  O  O242  1  0.06303493  0.61677822  0.41254286  1
  O  O243  1  0.06088730  0.61358938  0.91327717  1
  O  O244  1  0.39602054  0.12756935  0.41509401  1
  O  O245  1  0.39623436  0.12130775  0.93657902  1
  O  O246  1  0.39557121  0.62479094  0.41203983  1
  O  O247  1  0.38528206  0.60682968  0.91346704  1
  O  O248  1  0.73101126  0.13250030  0.41865599  1
  O  O249  1  0.73026867  0.12729731  0.91403256  1
  O  O250  1  0.72859558  0.61085954  0.41745581  1
  O  O251  1  0.73807836  0.60989269  0.92587408  1
  O  O252  1  0.22922589  0.37302278  0.41119747  1
  O  O253  1  0.22774323  0.37573620  0.91250773  1
  O  O254  1  0.22185756  0.86722796  0.41323238  1
  O  O255  1  0.23036445  0.85546947  0.91645651  1
  O  O256  1  0.56276768  0.37872392  0.41246229  1
  O  O257  1  0.54891242  0.36398238  0.91250942  1
  O  O258  1  0.54122318  0.86933581  0.42744287  1
  O  O259  1  0.55810643  0.86053023  0.91635672  1
  O  O260  1  0.89796618  0.36905998  0.41343705  1
  O  O261  1  0.90394895  0.35386263  0.91928632  1
  O  O262  1  0.90413540  0.86045940  0.42663336  1
  O  O263  1  0.88373865  0.87716276  0.92958242  1
  O  O264  1  0.06339667  0.38346289  0.41002594  1
  O  O265  1  0.06451026  0.37720700  0.91066372  1
  O  O266  1  0.06249378  0.87608529  0.41569328  1
  O  O267  1  0.07513906  0.88735879  0.93046251  1
  O  O268  1  0.39615365  0.36910955  0.40992653  1
  O  O269  1  0.38676731  0.40072386  0.91052999  1
  O  O270  1  0.37935291  0.88903739  0.41398783  1
  O  O271  1  0.39622554  0.86689756  0.91875976  1
  O  O272  1  0.73110347  0.37527272  0.41678395  1
  O  O273  1  0.71416701  0.38407794  0.92228727  1
  O  O274  1  0.72367659  0.88856767  0.43755690  1
  O  O275  1  0.71658651  0.89940690  0.91570165  1
  O  O276  1  0.22902133  0.12323121  0.41370492  1
  O  O277  1  0.21817380  0.15074442  0.93200101  1
  O  O278  1  0.22875404  0.63037625  0.41241901  1
  O  O279  1  0.22433351  0.62655119  0.91189014  1
  O  O280  1  0.56247553  0.12779468  0.41509547  1
  O  O281  1  0.57455317  0.13152165  0.92772649  1
  O  O282  1  0.56250079  0.61238066  0.41429010  1
  O  O283  1  0.54537316  0.63718541  0.91740935  1
  O  O284  1  0.89415249  0.14705784  0.41295363  1
  O  O285  1  0.88932115  0.14288381  0.91938610  1
  O  O286  1  0.89798210  0.62398452  0.41552123  1
  O  O287  1  0.89713464  0.63312193  0.91585455  1
  O  O288  1  0.18418435  -0.00506551  0.08761206  1
  O  O289  1  0.15890800  0.00622539  0.57565518  1
  O  O290  1  0.17889250  0.49252092  0.07289919  1
  O  O291  1  0.17086219  0.51005064  0.58150658  1
  O  O292  1  0.51231579  0.00654242  0.08878269  1
  O  O293  1  0.50891149  -0.00062657  0.58608555  1
  O  O294  1  0.49778968  0.49375922  0.08920478  1
  O  O295  1  0.51110428  0.49878777  0.56015943  1
  O  O296  1  0.83147889  -0.00134835  0.08992984  1
  O  O297  1  0.84831452  -0.00322385  0.58740674  1
  O  O298  1  0.84292380  0.50418966  0.08871626  1
  O  O299  1  0.81972271  0.48795371  0.57707747  1
  O  O300  1  0.00010333  0.23343846  0.07563489  1
  O  O301  1  0.00790419  0.26559681  0.57237428  1
  O  O302  1  -0.00429846  0.75662291  0.08569893  1
  O  O303  1  -0.00565459  0.74533432  0.58647549  1
  O  O304  1  0.34066330  0.24699111  0.08639123  1
  O  O305  1  0.32577029  0.23407109  0.57199000  1
  O  O306  1  0.36493881  0.75475900  0.08689018  1
  O  O307  1  0.34042892  0.75474186  0.58281274  1
  O  O308  1  0.68239394  0.25177134  0.08728862  1
  O  O309  1  0.68205426  0.24063386  0.58061805  1
  O  O310  1  0.65885919  0.76061267  0.08073326  1
  O  O311  1  0.67594992  0.76048481  0.58837715  1
  O  O312  1  0.14968148  -0.00155605  0.41264280  1
  O  O313  1  0.18594212  -0.00933520  0.92656360  1
  O  O314  1  0.15742378  0.50081767  0.41138628  1
  O  O315  1  0.15197893  0.49860194  0.91024982  1
  O  O316  1  0.47793189  0.00363582  0.41787588  1
  O  O317  1  0.48742415  -0.01461621  0.92705080  1
  O  O318  1  0.46675266  0.49691237  0.40948600  1
  O  O319  1  0.49931363  0.50067593  0.91578473  1
  O  O320  1  0.83383840  0.01768836  0.42681628  1
  O  O321  1  0.82123976  0.00899962  0.91976485  1
  O  O322  1  0.82368407  0.49589582  0.41232475  1
  O  O323  1  0.84207891  0.50302002  0.92015003  1
  O  O324  1  0.30836522  0.24904209  0.41123349  1
  O  O325  1  0.33729850  0.26889041  0.92098740  1
  O  O326  1  0.31863574  0.75124666  0.41301494  1
  O  O327  1  0.32341483  0.74045892  0.91490382  1
  O  O328  1  0.64199799  0.25317964  0.41662758  1
  O  O329  1  0.65343495  0.25390127  0.91943545  1
  O  O330  1  0.64978285  0.73415585  0.42688906  1
  O  O331  1  0.67543290  0.76171266  0.92410625  1
  O  O332  1  0.99931068  0.25407814  0.41144452  1
  O  O333  1  1.00445546  0.24552203  0.91097340  1
  O  O334  1  0.99513629  0.74419894  0.41658150  1
  O  O335  1  0.99919503  0.74214870  0.92560091  1
  O  O336  1  0.20912705  0.07998834  0.19566269  1
  O  O337  1  0.20965473  0.08164622  0.69114582  1
  O  O338  1  0.21314022  0.58497216  0.19680953  1
  O  O339  1  0.20946438  0.58599587  0.69233677  1
  O  O340  1  0.54503533  0.08426153  0.19918551  1
  O  O341  1  0.53418075  0.08193864  0.69474977  1
  O  O342  1  0.54248828  0.58070641  0.19547764  1
  O  O343  1  0.55058966  0.57525422  0.69605326  1
  O  O344  1  0.87304289  0.08262762  0.19859539  1
  O  O345  1  0.87781315  0.08230471  0.69450516  1
  O  O346  1  0.88120807  0.59484022  0.19192578  1
  O  O347  1  0.87852040  0.58396211  0.70194530  1
  O  O348  1  0.04503689  0.33075472  0.19724969  1
  O  O349  1  0.04622690  0.34166377  0.68805035  1
  O  O350  1  0.04046597  0.83533305  0.19711687  1
  O  O351  1  0.03935363  0.83108698  0.69469824  1
  O  O352  1  0.37693170  0.33064187  0.19451179  1
  O  O353  1  0.37697485  0.33336854  0.69716749  1
  O  O354  1  0.37835343  0.83545620  0.19749069  1
  O  O355  1  0.37655329  0.83576247  0.69326872  1
  O  O356  1  0.70934958  0.33348496  0.19511281  1
  O  O357  1  0.70841863  0.32754889  0.69017718  1
  O  O358  1  0.70706576  0.83549582  0.19626569  1
  O  O359  1  0.71334140  0.83736350  0.70147708  1
  O  O360  1  0.21228710  0.41486537  0.18857768  1
  O  O361  1  0.20897300  0.42079454  0.68820632  1
  O  O362  1  0.20960927  0.91471776  0.19683927  1
  O  O363  1  0.21091885  0.91732243  0.70295875  1
  O  O364  1  0.54236925  0.41257717  0.19656109  1
  O  O365  1  0.54553836  0.41383625  0.69705677  1
  O  O366  1  0.54074779  0.92130449  0.19893015  1
  O  O367  1  0.54234459  0.91957401  0.69883289  1
  O  O368  1  0.88068875  0.40760065  0.18945361  1
  O  O369  1  0.87964180  0.41239862  0.69080620  1
  O  O370  1  0.87510638  0.91763932  0.19873243  1
  O  O371  1  0.87865213  0.91700721  0.69949605  1
  O  O372  1  0.04185021  0.16190730  0.19298508  1
  O  O373  1  0.04560097  0.16645065  0.69927910  1
  O  O374  1  0.04671584  0.67455364  0.19103306  1
  O  O375  1  0.04174010  0.66467872  0.69443464  1
  O  O376  1  0.37059600  0.16552390  0.19639175  1
  O  O377  1  0.37685732  0.16664007  0.69007214  1
  O  O378  1  0.37870344  0.66761292  0.19261827  1
  O  O379  1  0.36626962  0.66832545  0.68974000  1
  O  O380  1  0.71012483  0.16814031  0.19754775  1
  O  O381  1  0.71363246  0.16899857  0.69523619  1
  O  O382  1  0.70954325  0.66826825  0.20309530  1
  O  O383  1  0.71370198  0.67005019  0.69172924  1
  O  O384  1  0.12233437  0.08209160  0.30414953  1
  O  O385  1  0.12566382  0.08226723  0.80086765  1
  O  O386  1  0.12806210  0.58382102  0.30232226  1
  O  O387  1  0.12375164  0.58273729  0.80119769  1
  O  O388  1  0.45331938  0.08232391  0.30706891  1
  O  O389  1  0.45269542  0.08447220  0.80085403  1
  O  O390  1  0.45335264  0.58229210  0.30249222  1
  O  O391  1  0.45078183  0.57626336  0.80540079  1
  O  O392  1  0.79004144  0.08833938  0.30963628  1
  O  O393  1  0.80107785  0.08445112  0.80808573  1
  O  O394  1  0.78768680  0.58683518  0.30725926  1
  O  O395  1  0.79021634  0.58544848  0.80851108  1
  O  O396  1  0.28765240  0.33184474  0.30123732  1
  O  O397  1  0.28887398  0.33907523  0.80279092  1
  O  O398  1  0.28749031  0.83320799  0.30426824  1
  O  O399  1  0.29458606  0.82830025  0.80612829  1
  O  O400  1  0.62348510  0.33368837  0.30653494  1
  O  O401  1  0.62233241  0.33275886  0.80616847  1
  O  O402  1  0.62077255  0.83349117  0.30333906  1
  O  O403  1  0.62544185  0.83446506  0.80823726  1
  O  O404  1  0.95659039  0.33273054  0.30252810  1
  O  O405  1  0.95816998  0.33294870  0.80250646  1
  O  O406  1  0.95720736  0.83202221  0.30888967  1
  O  O407  1  0.95776219  0.83421443  0.80387788  1
  O  O408  1  0.12871381  0.41665805  0.30083987  1
  O  O409  1  0.12475936  0.41734614  0.79994350  1
  O  O410  1  0.12133954  0.91583586  0.30471415  1
  O  O411  1  0.12468924  0.91806365  0.81304784  1
  O  O412  1  0.45453843  0.41429568  0.30197294  1
  O  O413  1  0.45632071  0.41910128  0.80290032  1
  O  O414  1  0.45397269  0.91846101  0.30926735  1
  O  O415  1  0.45410704  0.91428322  0.80882222  1
  O  O416  1  0.78652230  0.40810753  0.30581281  1
  O  O417  1  0.78671677  0.41040387  0.79523500  1
  O  O418  1  0.78797966  0.91855689  0.30403928  1
  O  O419  1  0.79286569  0.91998659  0.81168182  1
  O  O420  1  0.28743659  0.16403794  0.30470773  1
  O  O421  1  0.28894519  0.16905036  0.79752937  1
  O  O422  1  0.29103139  0.66865215  0.30327313  1
  O  O423  1  0.28929797  0.66333182  0.80311688  1
  O  O424  1  0.62674265  0.16968709  0.30787407  1
  O  O425  1  0.61738387  0.17438592  0.80940013  1
  O  O426  1  0.62087785  0.66265460  0.30906861  1
  O  O427  1  0.63491176  0.66769869  0.80033708  1
  O  O428  1  0.95886908  0.16786939  0.30343685  1
  O  O429  1  0.95497205  0.16029897  0.80752612  1
  O  O430  1  0.95497456  0.66793744  0.30579407  1
  O  O431  1  0.96019589  0.66781302  0.80723869  1
  F  F432  1  0.04305467  -0.00191606  0.20338419  1
  F  F433  1  0.04440834  -0.00376207  0.70281396  1
  F  F434  1  0.04925837  0.49473468  0.19402937  1
  F  F435  1  0.04545521  0.50128185  0.69862268  1
  F  F436  1  0.37758319  -0.00076926  0.20407878  1
  F  F437  1  0.37733233  -0.00378679  0.70370991  1
  F  F438  1  0.37958101  0.49863663  0.19981036  1
  F  F439  1  0.37816103  0.50105188  0.69708131  1
  F  F440  1  0.70945722  0.00467267  0.20638975  1
  F  F441  1  0.71783566  -0.00883451  0.70310347  1
  F  F442  1  0.69937091  0.49782441  0.20042554  1
  F  F443  1  0.70812895  0.50083225  0.69787219  1
  F  F444  1  0.21278572  0.24636491  0.20080913  1
  F  F445  1  0.21189006  0.25399878  0.69679414  1
  F  F446  1  0.21313436  0.75272928  0.20085622  1
  F  F447  1  0.21216063  0.74661146  0.69927279  1
  F  F448  1  0.54752184  0.25247104  0.20210160  1
  F  F449  1  0.54577365  0.24794532  0.70137726  1
  F  F450  1  0.54266241  0.74977130  0.20437375  1
  F  F451  1  0.55143904  0.76491288  0.69739869  1
  F  F452  1  0.87663180  0.24691699  0.20141065  1
  F  F453  1  0.87572356  0.24726620  0.70003715  1
  F  F454  1  0.87677158  0.75527926  0.20518961  1
  F  F455  1  0.87844536  0.75058722  0.70496459  1
  F  F456  1  0.28572277  -0.00055433  0.29893963  1
  F  F457  1  0.29076971  0.00169557  0.80073061  1
  F  F458  1  0.28910453  0.49737207  0.29476764  1
  F  F459  1  0.28586502  0.50053094  0.79174469  1
  F  F460  1  0.62024883  0.00311015  0.30306640  1
  F  F461  1  0.61490779  -0.00838307  0.80634719  1
  F  F462  1  0.61868343  0.49757385  0.30005131  1
  F  F463  1  0.62456120  0.49750681  0.79986974  1
  F  F464  1  0.95543041  0.00130464  0.30012949  1
  F  F465  1  0.95739044  -0.00087171  0.79908384  1
  F  F466  1  0.97060534  0.49318816  0.30121762  1
  F  F467  1  0.96875061  0.49668726  0.80146732  1
  F  F468  1  0.12260599  0.24650720  0.29640281  1
  F  F469  1  0.12871164  0.25482490  0.79669922  1
  F  F470  1  0.12213559  0.74976648  0.29756266  1
  F  F471  1  0.12088842  0.74375830  0.80021719  1
  F  F472  1  0.45174391  0.25259347  0.30079629  1
  F  F473  1  0.45370598  0.25046133  0.79665040  1
  F  F474  1  0.45229901  0.74894839  0.29847707  1
  F  F475  1  0.44859343  0.75738687  0.79850133  1
  F  F476  1  0.78841239  0.25118444  0.29788897  1
  F  F477  1  0.78836677  0.24908410  0.79812939  1
  F  F478  1  0.78860377  0.75180790  0.30236961  1
  F  F479  1  0.79040595  0.75110407  0.79975612  1
