# generated using pymatgen
data_K24Na3Li5Mg64Fe17Si79(O5F)48
_symmetry_space_group_name_H-M   'P 1'
_cell_length_a   16.10036901
_cell_length_b   18.61847723
_cell_length_c   20.57375791
_cell_angle_alpha   89.99465493
_cell_angle_beta   100.04273095
_cell_angle_gamma   89.96985875
_symmetry_Int_Tables_number   1
_chemical_formula_structural   K24Na3Li5Mg64Fe17Si79(O5F)48
_chemical_formula_sum   'K24 Na3 Li5 Mg64 Fe17 Si79 O240 F48'
_cell_volume   6072.78307909
_cell_formula_units_Z   1
loop_
 _symmetry_equiv_pos_site_id
 _symmetry_equiv_pos_as_xyz
  1  'x, y, z'
loop_
 _atom_site_type_symbol
 _atom_site_label
 _atom_site_symmetry_multiplicity
 _atom_site_fract_x
 _atom_site_fract_y
 _atom_site_fract_z
 _atom_site_occupancy
  K  K0  1  -0.00512879  0.00457257  0.01249626  1
  K  K1  1  -0.00200967  0.00009139  0.49460150  1
  K  K2  1  0.00209815  0.50258214  0.00733553  1
  K  K3  1  -0.00572676  0.49528641  0.48785091  1
  K  K4  1  0.33700179  -0.00268903  -0.00161943  1
  K  K5  1  0.34525709  -0.00249354  0.49779639  1
  K  K6  1  0.33884474  0.50796546  0.00922347  1
  K  K7  1  0.33550657  0.49859448  0.49423126  1
  K  K8  1  0.66778515  0.00079868  0.00184828  1
  K  K9  1  0.66144944  0.00632451  0.50046521  1
  K  K10  1  0.66658085  0.49185821  0.01135047  1
  K  K11  1  0.66818925  0.49656808  0.48510843  1
  K  K12  1  0.17080701  0.24957334  0.00571743  1
  K  K13  1  0.16692677  0.23701251  0.49026372  1
  K  K14  1  0.16982077  0.76867094  0.00334826  1
  K  K15  1  0.17429520  0.76185055  0.50057818  1
  K  K16  1  0.49990802  0.25658777  0.00429988  1
  K  K17  1  0.50209898  0.23708378  0.49257614  1
  K  K18  1  0.49226353  0.75326542  -0.00295974  1
  K  K19  1  0.49815176  0.74836587  0.49955444  1
  K  K20  1  0.82872910  0.23816173  0.01221724  1
  K  K21  1  0.83877005  0.24136725  0.47914782  1
  K  K22  1  0.83001805  0.75931163  0.00473573  1
  K  K23  1  0.85058606  0.75846509  0.49623815  1
  Na  Na24  1  0.32923778  0.75035771  0.74577652  1
  Na  Na25  1  0.00273905  0.07976158  0.24710843  1
  Na  Na26  1  0.50048982  0.33082004  0.75493088  1
  Li  Li27  1  0.16083078  -0.00135704  0.24702419  1
  Li  Li28  1  0.49494877  0.49679324  0.24029288  1
  Li  Li29  1  0.34105512  0.41739793  0.24736243  1
  Li  Li30  1  0.83786414  0.16323149  0.25148415  1
  Li  Li31  1  0.16950741  0.67230996  0.74769210  1
  Mg  Mg32  1  0.17142825  0.49831604  0.25066838  1
  Mg  Mg33  1  0.83341590  0.49685704  0.24907155  1
  Mg  Mg34  1  0.33618230  0.25206545  0.25228591  1
  Mg  Mg35  1  0.83157163  -0.00073543  0.74982265  1
  Mg  Mg36  1  -0.00085159  0.24944178  0.24805775  1
  Mg  Mg37  1  0.66637839  0.75063662  0.74815944  1
  Mg  Mg38  1  -0.00289306  0.25061987  0.75103617  1
  Mg  Mg39  1  0.16676186  -0.00039561  0.74677388  1
  Mg  Mg40  1  0.49847389  -0.00164905  0.75153863  1
  Mg  Mg41  1  0.83395311  0.50158012  0.74946833  1
  Mg  Mg42  1  0.33245738  0.24960996  0.75228617  1
  Mg  Mg43  1  0.33144314  0.74918920  0.24723133  1
  Mg  Mg44  1  0.16627590  0.50356731  0.74951643  1
  Mg  Mg45  1  0.83370211  0.00072120  0.25391788  1
  Mg  Mg46  1  0.66503034  0.74741871  0.24973064  1
  Mg  Mg47  1  0.66379033  0.24949836  0.75433938  1
  Mg  Mg48  1  0.49773922  0.50011435  0.74991710  1
  Mg  Mg49  1  0.49762851  0.00004125  0.25353995  1
  Mg  Mg50  1  -0.00038059  0.75069045  0.25083379  1
  Mg  Mg51  1  0.00574482  0.75028641  0.74611907  1
  Mg  Mg52  1  0.67114417  0.24924943  0.24999016  1
  Mg  Mg53  1  -0.00088580  0.91632207  0.74555148  1
  Mg  Mg54  1  0.16428703  0.16632696  0.75005473  1
  Mg  Mg55  1  0.66574717  0.58378849  0.74817288  1
  Mg  Mg56  1  0.49643261  0.66757227  0.74691508  1
  Mg  Mg57  1  0.50118921  0.16563998  0.25299053  1
  Mg  Mg58  1  0.16476643  0.83651414  0.24921357  1
  Mg  Mg59  1  0.66523167  0.41666712  0.75141335  1
  Mg  Mg60  1  0.50106327  0.33732709  0.24973274  1
  Mg  Mg61  1  0.83469781  0.83420261  0.25297295  1
  Mg  Mg62  1  0.66658616  0.41554595  0.24845998  1
  Mg  Mg63  1  0.33425297  0.91475758  0.75006035  1
  Mg  Mg64  1  0.83497126  0.66694030  0.74830310  1
  Mg  Mg65  1  0.16684158  0.16509705  0.25007578  1
  Mg  Mg66  1  0.66521735  0.91492524  0.25396665  1
  Mg  Mg67  1  0.16880235  0.83295572  0.74589005  1
  Mg  Mg68  1  0.83280069  0.33247643  0.24961227  1
  Mg  Mg69  1  0.33151143  0.08318342  0.25140891  1
  Mg  Mg70  1  0.16591619  0.33535489  0.75034885  1
  Mg  Mg71  1  0.32890140  0.58586169  0.74762953  1
  Mg  Mg72  1  0.17065003  0.33481858  0.24866612  1
  Mg  Mg73  1  0.83000877  0.16472058  0.75170708  1
  Mg  Mg74  1  0.50191961  0.16533337  0.75511495  1
  Mg  Mg75  1  0.66599721  0.91497993  0.75093174  1
  Mg  Mg76  1  0.33296994  0.41664052  0.75040721  1
  Mg  Mg77  1  0.00335407  0.58545380  0.74971698  1
  Mg  Mg78  1  0.83447037  0.83470626  0.74619771  1
  Mg  Mg79  1  0.16739816  0.66502154  0.24950026  1
  Mg  Mg80  1  0.49847362  0.66184571  0.24820159  1
  Mg  Mg81  1  -0.00045560  0.41476758  0.25009891  1
  Mg  Mg82  1  -0.00430981  0.08452967  0.74830773  1
  Mg  Mg83  1  -0.00036524  0.58306774  0.24994595  1
  Mg  Mg84  1  0.49767745  0.83646624  0.75057908  1
  Mg  Mg85  1  0.66946479  0.08409701  0.25201280  1
  Mg  Mg86  1  0.00069118  0.91582930  0.24982431  1
  Mg  Mg87  1  0.66351133  0.58000840  0.24992269  1
  Mg  Mg88  1  0.33480846  0.08451236  0.75177847  1
  Mg  Mg89  1  -0.00052790  0.41724437  0.75055576  1
  Mg  Mg90  1  0.32916532  0.91777578  0.25131448  1
  Mg  Mg91  1  0.66543875  0.08461639  0.75394148  1
  Mg  Mg92  1  0.83284498  0.66491915  0.25075678  1
  Mg  Mg93  1  0.49691170  0.83219626  0.25083987  1
  Mg  Mg94  1  0.83107033  0.33498879  0.75056294  1
  Mg  Mg95  1  0.33644273  0.57893186  0.24838228  1
  Fe  Fe96  1  0.53602938  0.91820011  0.60904084  1
  Fe  Fe97  1  0.47687000  0.91218758  0.89558197  1
  Fe  Fe98  1  0.80551705  0.07803784  0.89146654  1
  Fe  Fe99  1  0.86053265  0.08335501  0.11189947  1
  Fe  Fe100  1  0.18624639  0.92416195  0.11169254  1
  Fe  Fe101  1  0.19798040  0.92080161  0.60760005  1
  Fe  Fe102  1  0.98229636  0.15966605  0.38799922  1
  Fe  Fe103  1  0.36528087  0.83154025  0.60467387  1
  Fe  Fe104  1  0.63897316  0.17442535  0.89627162  1
  Fe  Fe105  1  0.81088418  0.41552935  0.39043485  1
  Fe  Fe106  1  0.86362180  0.91561553  0.60826890  1
  Fe  Fe107  1  0.46989223  0.08608261  0.89423136  1
  Fe  Fe108  1  0.52410577  0.58508009  0.10962997  1
  Fe  Fe109  1  0.97922192  0.84003452  0.39034912  1
  Fe  Fe110  1  0.85931889  0.41751155  0.10801166  1
  Fe  Fe111  1  0.68810552  0.32779107  0.10789923  1
  Fe  Fe112  1  0.47485642  0.08006144  0.39091591  1
  Si  Si113  1  0.18918441  0.57924666  0.61276276  1
  Si  Si114  1  0.69178935  0.17268909  0.61543066  1
  Si  Si115  1  0.14151094  0.41778124  0.88607972  1
  Si  Si116  1  0.30862697  0.33602028  0.38464583  1
  Si  Si117  1  0.98463171  0.33094054  0.39083984  1
  Si  Si118  1  0.30798479  0.33477766  0.88649029  1
  Si  Si119  1  0.14499128  0.41809665  0.38510172  1
  Si  Si120  1  0.02269558  0.82768304  0.11205373  1
  Si  Si121  1  0.97031557  0.16960485  0.88622926  1
  Si  Si122  1  0.47368686  0.58160505  0.38430489  1
  Si  Si123  1  0.79879402  0.91538009  0.38943164  1
  Si  Si124  1  0.13621204  0.91941518  0.88323276  1
  Si  Si125  1  0.64652839  0.82483440  0.88790937  1
  Si  Si126  1  0.85644610  0.58865247  0.11357909  1
  Si  Si127  1  0.15263353  0.07905111  0.38476959  1
  Si  Si128  1  0.35613879  0.83561640  0.11435726  1
  Si  Si129  1  0.35384771  0.67044026  0.11179443  1
  Si  Si130  1  0.63631337  0.82734937  0.38627683  1
  Si  Si131  1  0.97716053  0.83008285  0.88239955  1
  Si  Si132  1  0.64881654  0.34430998  0.88957146  1
  Si  Si133  1  0.35669888  0.17145056  0.61553156  1
  Si  Si134  1  0.02088123  0.33625622  0.61520127  1
  Si  Si135  1  0.64079765  0.66385328  0.38568906  1
  Si  Si136  1  0.52298863  0.07783604  0.11783426  1
  Si  Si137  1  0.68992105  0.33631013  0.61523625  1
  Si  Si138  1  0.19319401  0.58139143  0.11465522  1
  Si  Si139  1  0.81344635  0.58481272  0.88413459  1
  Si  Si140  1  0.85559116  0.41943927  0.61491464  1
  Si  Si141  1  0.30270936  0.66502335  0.88365478  1
  Si  Si142  1  0.68944834  0.66445526  0.61341771  1
  Si  Si143  1  0.29650080  0.16824352  0.88761788  1
  Si  Si144  1  0.47207238  0.90919338  0.38742730  1
  Si  Si145  1  0.03318924  0.34012620  0.11165906  1
  Si  Si146  1  0.80525214  0.08031699  0.38914589  1
  Si  Si147  1  0.64311754  0.16835003  0.38871314  1
  Si  Si148  1  0.14798637  0.91779907  0.38664034  1
  Si  Si149  1  0.70088289  0.82817446  0.61097892  1
  Si  Si150  1  0.81078775  0.58623441  0.38718387  1
  Si  Si151  1  0.35388608  0.33582865  0.61554212  1
  Si  Si152  1  0.29915882  0.83276785  0.88839539  1
  Si  Si153  1  0.68824935  0.83467727  0.11758144  1
  Si  Si154  1  0.47278593  0.42180361  0.88608593  1
  Si  Si155  1  0.30877969  0.66311040  0.38414564  1
  Si  Si156  1  0.02485870  0.66413434  0.61413436  1
  Si  Si157  1  0.02681908  0.66277231  0.11478321  1
  Si  Si158  1  0.03319212  0.82968429  0.61028710  1
  Si  Si159  1  0.02148930  0.17213530  0.61512257  1
  Si  Si160  1  0.97598446  0.33432813  0.88539375  1
  Si  Si161  1  0.14217234  0.58236390  0.38442498  1
  Si  Si162  1  0.13234143  0.08499786  0.88308132  1
  Si  Si163  1  0.30618188  0.82724997  0.38416709  1
  Si  Si164  1  0.19414233  0.09226574  0.11197125  1
  Si  Si165  1  0.35568103  0.65797390  0.60899153  1
  Si  Si166  1  0.81332643  0.42166822  0.88546819  1
  Si  Si167  1  0.81225939  0.90772889  0.88672544  1
  Si  Si168  1  0.30894727  0.17104809  0.38875560  1
  Si  Si169  1  0.03239683  0.17646992  0.11177586  1
  Si  Si170  1  0.69379211  0.66990793  0.11385483  1
  Si  Si171  1  0.97878734  0.66708516  0.88452138  1
  Si  Si172  1  0.52254792  0.91405449  0.11885090  1
  Si  Si173  1  0.52376698  0.41716710  0.61549168  1
  Si  Si174  1  0.85523324  0.08760776  0.61142727  1
  Si  Si175  1  0.47192839  0.58656580  0.88480803  1
  Si  Si176  1  0.85590611  0.91136029  0.11385685  1
  Si  Si177  1  0.52441303  0.08940415  0.61431818  1
  Si  Si178  1  0.64425740  0.66029042  0.88356946  1
  Si  Si179  1  0.52211077  0.41600158  0.11029355  1
  Si  Si180  1  0.18768666  0.09127778  0.61264223  1
  Si  Si181  1  0.36171254  0.16683100  0.11543010  1
  Si  Si182  1  0.97886669  0.66756143  0.38681560  1
  Si  Si183  1  0.20079497  0.41637768  0.11627768  1
  Si  Si184  1  0.18764098  0.41593990  0.61352613  1
  Si  Si185  1  0.36272568  0.33031164  0.11622658  1
  Si  Si186  1  0.47271843  0.41654056  0.38260943  1
  Si  Si187  1  0.68244132  0.16042284  0.11350253  1
  Si  Si188  1  0.63782002  0.33486622  0.38816870  1
  Si  Si189  1  0.85797624  0.58460559  0.61353697  1
  Si  Si190  1  0.52425404  0.57996131  0.61214337  1
  Si  Si191  1  0.14129953  0.58077299  0.88604505  1
  O  O192  1  0.27826575  0.12122488  0.08212982  1
  O  O193  1  0.26858114  0.12945153  0.58503318  1
  O  O194  1  0.26698720  0.62301616  0.08388019  1
  O  O195  1  0.27164940  0.60576523  0.58193734  1
  O  O196  1  0.60580022  0.09981425  0.08763831  1
  O  O197  1  0.60286966  0.13202706  0.58645306  1
  O  O198  1  0.62100253  0.61794588  0.07614719  1
  O  O199  1  0.60610407  0.61461043  0.58461726  1
  O  O200  1  0.95379879  0.12653162  0.07982254  1
  O  O201  1  0.93712695  0.12605887  0.58512743  1
  O  O202  1  0.94127385  0.61785399  0.08530632  1
  O  O203  1  0.93799186  0.61721774  0.58361489  1
  O  O204  1  0.11975238  0.36733862  0.08372193  1
  O  O205  1  0.10154815  0.36920981  0.58583303  1
  O  O206  1  0.09097973  0.86672507  0.07518294  1
  O  O207  1  0.11790047  0.84775898  0.58209166  1
  O  O208  1  0.44079727  0.36093367  0.08389835  1
  O  O209  1  0.43412404  0.37477864  0.58888742  1
  O  O210  1  0.44574747  0.85867856  0.08994895  1
  O  O211  1  0.45940222  0.85246782  0.56759755  1
  O  O212  1  0.77740898  0.35627274  0.06716815  1
  O  O213  1  0.76781316  0.37665340  0.58663862  1
  O  O214  1  0.76695251  0.86626647  0.08613732  1
  O  O215  1  0.78914914  0.83825597  0.58415082  1
  O  O216  1  0.28022589  0.38121494  0.08654638  1
  O  O217  1  0.26747226  0.38144153  0.58349206  1
  O  O218  1  0.28208410  0.88736928  0.07836322  1
  O  O219  1  0.28404065  0.89571581  0.56401820  1
  O  O220  1  0.59753392  0.38943682  0.07327494  1
  O  O221  1  0.60101750  0.37798377  0.58557209  1
  O  O222  1  0.60567204  0.88531708  0.08993260  1
  O  O223  1  0.63467811  0.88789400  0.57732421  1
  O  O224  1  0.96109490  0.39484039  0.07703475  1
  O  O225  1  0.93646572  0.38464318  0.58691388  1
  O  O226  1  0.92764059  0.86079266  0.08645292  1
  O  O227  1  0.95860817  0.88307726  0.57565057  1
  O  O228  1  0.11890414  0.15077696  0.08388386  1
  O  O229  1  0.10615331  0.14657292  0.58783996  1
  O  O230  1  0.10297493  0.62120739  0.08511354  1
  O  O231  1  0.10352377  0.62636366  0.58430549  1
  O  O232  1  0.44287818  0.13081095  0.08830928  1
  O  O233  1  0.43831651  0.13890503  0.58792845  1
  O  O234  1  0.42820416  0.64287457  0.07493434  1
  O  O235  1  0.43697442  0.62082064  0.57928343  1
  O  O236  1  0.76174786  0.13500326  0.08005653  1
  O  O237  1  0.77143677  0.13885342  0.58522481  1
  O  O238  1  0.78426786  0.65118442  0.08947836  1
  O  O239  1  0.77104611  0.62961294  0.58501427  1
  O  O240  1  0.07458834  0.09933124  0.42166693  1
  O  O241  1  0.05079429  0.11566383  0.91237828  1
  O  O242  1  0.06041426  0.61297629  0.41357628  1
  O  O243  1  0.06100703  0.61709050  0.91527186  1
  O  O244  1  0.39217043  0.13019926  0.42674869  1
  O  O245  1  0.36799010  0.11575814  0.92386976  1
  O  O246  1  0.39522195  0.61835322  0.41610947  1
  O  O247  1  0.39693771  0.62933970  0.91455084  1
  O  O248  1  0.73312291  0.12874057  0.41812868  1
  O  O249  1  0.71541248  0.10346700  0.92954961  1
  O  O250  1  0.72902988  0.62244597  0.41530071  1
  O  O251  1  0.72868744  0.61046852  0.91207745  1
  O  O252  1  0.23259940  0.37585698  0.41602668  1
  O  O253  1  0.22933601  0.37462334  0.91509110  1
  O  O254  1  0.22678515  0.86064259  0.41292238  1
  O  O255  1  0.21753793  0.87085383  0.91649068  1
  O  O256  1  0.55553419  0.36945646  0.41697054  1
  O  O257  1  0.56389788  0.38291041  0.91194982  1
  O  O258  1  0.55301258  0.85568550  0.41375326  1
  O  O259  1  0.57176176  0.85060661  0.92472432  1
  O  O260  1  0.91005446  0.36541330  0.42570471  1
  O  O261  1  0.89540109  0.36993910  0.91336923  1
  O  O262  1  0.88311015  0.87320390  0.42294492  1
  O  O263  1  0.89260417  0.85174138  0.91154830  1
  O  O264  1  0.06877674  0.38418547  0.41756869  1
  O  O265  1  0.06143360  0.38150664  0.91404055  1
  O  O266  1  0.07240663  0.89703025  0.42623982  1
  O  O267  1  0.05529246  0.88420332  0.91227006  1
  O  O268  1  0.39363612  0.38277605  0.41506768  1
  O  O269  1  0.39652160  0.37785472  0.91500761  1
  O  O270  1  0.39193598  0.87116392  0.41402775  1
  O  O271  1  0.38415515  0.86834156  0.92853262  1
  O  O272  1  0.71836274  0.37960795  0.42576452  1
  O  O273  1  0.72852309  0.40173289  0.91437032  1
  O  O274  1  0.71810137  0.87587291  0.41623697  1
  O  O275  1  0.73423865  0.86943633  0.91663882  1
  O  O276  1  0.22868745  0.13630741  0.41697634  1
  O  O277  1  0.20764170  0.14206529  0.91156282  1
  O  O278  1  0.22904399  0.62733447  0.41371468  1
  O  O279  1  0.23014168  0.62075445  0.91708166  1
  O  O280  1  0.57350646  0.13072463  0.42555242  1
  O  O281  1  0.54038178  0.16009517  0.92768777  1
  O  O282  1  0.56276837  0.62419225  0.41513696  1
  O  O283  1  0.56325240  0.62635467  0.91241516  1
  O  O284  1  0.89377920  0.11483297  0.42412444  1
  O  O285  1  0.89245006  0.14678817  0.91996761  1
  O  O286  1  0.89498777  0.63627569  0.41403948  1
  O  O287  1  0.89489377  0.63682706  0.91300808  1
  O  O288  1  0.16660094  0.01666100  0.07571140  1
  O  O289  1  0.16305220  0.01555563  0.57804172  1
  O  O290  1  0.18702689  0.49894243  0.08479777  1
  O  O291  1  0.16942768  0.49674362  0.58254925  1
  O  O292  1  0.49679960  -0.00477745  0.09179387  1
  O  O293  1  0.51129177  0.01365998  0.57663212  1
  O  O294  1  0.49016141  0.49359146  0.07832885  1
  O  O295  1  0.51341087  0.49775703  0.58176716  1
  O  O296  1  0.85031734  -0.01256259  0.07680362  1
  O  O297  1  0.83687497  0.01044584  0.57679463  1
  O  O298  1  0.82928995  0.51400354  0.07704120  1
  O  O299  1  0.84283653  0.50163922  0.58598937  1
  O  O300  1  0.01551649  0.25894621  0.08073010  1
  O  O301  1  0.00204630  0.25489293  0.58734018  1
  O  O302  1  0.01640953  0.74330666  0.08320727  1
  O  O303  1  0.00689702  0.74511174  0.58529973  1
  O  O304  1  0.34514980  0.24871770  0.08453266  1
  O  O305  1  0.34414127  0.25428487  0.58500022  1
  O  O306  1  0.33134741  0.75352669  0.08669565  1
  O  O307  1  0.33566123  0.73444527  0.57462355  1
  O  O308  1  0.64655928  0.23620633  0.08121087  1
  O  O309  1  0.68091010  0.25521078  0.58517906  1
  O  O310  1  0.66951089  0.75326248  0.08797921  1
  O  O311  1  0.66782206  0.74496943  0.58527066  1
  O  O312  1  0.18630206  -0.00245286  0.40976151  1
  O  O313  1  0.15115294  0.00267899  0.91154270  1
  O  O314  1  0.15913533  0.50085651  0.41430886  1
  O  O315  1  0.15078576  0.49869375  0.91768477  1
  O  O316  1  0.49013148  -0.01455357  0.42349241  1
  O  O317  1  0.50090520  -0.00061572  0.93722052  1
  O  O318  1  0.48493545  0.49941025  0.41423059  1
  O  O319  1  0.47646171  0.50452272  0.91630713  1
  O  O320  1  0.79774879  -0.00241850  0.41812111  1
  O  O321  1  0.83931459  -0.01632259  0.92069910  1
  O  O322  1  0.82775452  0.51050927  0.42518084  1
  O  O323  1  0.84091965  0.50375078  0.91163454  1
  O  O324  1  0.31756969  0.25532632  0.41728093  1
  O  O325  1  0.31191801  0.25280839  0.91529288  1
  O  O326  1  0.32061124  0.74470271  0.41378498  1
  O  O327  1  0.29962030  0.74677709  0.91296873  1
  O  O328  1  0.65028527  0.25189157  0.41649201  1
  O  O329  1  0.67259251  0.26978499  0.92655673  1
  O  O330  1  0.65087924  0.74535494  0.41630820  1
  O  O331  1  0.66823443  0.74015850  0.91350260  1
  O  O332  1  1.00836853  0.25322957  0.42499944  1
  O  O333  1  0.99793972  0.25288225  0.91188257  1
  O  O334  1  1.00207433  0.74402119  0.42162695  1
  O  O335  1  1.00100817  0.74842465  0.91266903  1
  O  O336  1  0.21567872  0.09075811  0.19193211  1
  O  O337  1  0.20731448  0.08903961  0.69387111  1
  O  O338  1  0.20982299  0.58297260  0.19472519  1
  O  O339  1  0.20910288  0.57727511  0.69224088  1
  O  O340  1  0.54241516  0.08037098  0.19807294  1
  O  O341  1  0.54376313  0.08474324  0.69461410  1
  O  O342  1  0.54583234  0.58595515  0.19998904  1
  O  O343  1  0.54286056  0.58157162  0.69267368  1
  O  O344  1  0.86670511  0.07847193  0.19885701  1
  O  O345  1  0.87604541  0.08693654  0.69239717  1
  O  O346  1  0.87748264  0.58516381  0.19476604  1
  O  O347  1  0.87658076  0.58339433  0.69420826  1
  O  O348  1  0.04920104  0.33917962  0.19259184  1
  O  O349  1  0.04094388  0.33648704  0.69585442  1
  O  O350  1  0.04417738  0.82674753  0.19248133  1
  O  O351  1  0.04248319  0.83312968  0.69165871  1
  O  O352  1  0.38018933  0.32907600  0.19553523  1
  O  O353  1  0.36408308  0.33486412  0.69470820  1
  O  O354  1  0.37502508  0.83332273  0.19537531  1
  O  O355  1  0.38232016  0.83955802  0.69519450  1
  O  O356  1  0.70996771  0.33251599  0.19980311  1
  O  O357  1  0.70965331  0.33744878  0.69556749  1
  O  O358  1  0.70745082  0.83265535  0.19806065  1
  O  O359  1  0.71262146  0.82877078  0.69284459  1
  O  O360  1  0.21137355  0.41859841  0.19548875  1
  O  O361  1  0.20595423  0.41651737  0.69413304  1
  O  O362  1  0.21251441  0.91414398  0.20130848  1
  O  O363  1  0.21207564  0.91924274  0.70009644  1
  O  O364  1  0.54453407  0.41338409  0.19088173  1
  O  O365  1  0.54616810  0.42341014  0.69459254  1
  O  O366  1  0.54204517  0.91379419  0.19932795  1
  O  O367  1  0.54869343  0.91615345  0.70131503  1
  O  O368  1  0.88205593  0.41836474  0.20021343  1
  O  O369  1  0.87580209  0.41841170  0.69546810  1
  O  O370  1  0.87143614  0.91324972  0.19429538  1
  O  O371  1  0.87852888  0.91789178  0.70046884  1
  O  O372  1  0.05200855  0.17828912  0.19129983  1
  O  O373  1  0.03967708  0.17070060  0.69590019  1
  O  O374  1  0.04468317  0.66400237  0.19513542  1
  O  O375  1  0.03896844  0.66271193  0.69379799  1
  O  O376  1  0.37772036  0.16833104  0.19553985  1
  O  O377  1  0.37175950  0.17075561  0.69557014  1
  O  O378  1  0.37341549  0.66656371  0.19262755  1
  O  O379  1  0.37954666  0.65471542  0.68884862  1
  O  O380  1  0.69963777  0.16334148  0.19412271  1
  O  O381  1  0.71149475  0.17226201  0.69535031  1
  O  O382  1  0.70926192  0.66697523  0.19498928  1
  O  O383  1  0.71056526  0.66299310  0.69405274  1
  O  O384  1  0.13632338  0.08471353  0.30572099  1
  O  O385  1  0.11774899  0.08526346  0.80246725  1
  O  O386  1  0.12443196  0.58366071  0.30424643  1
  O  O387  1  0.11987338  0.57736246  0.80673356  1
  O  O388  1  0.45435780  0.08342616  0.29986628  1
  O  O389  1  0.45394421  0.08325362  0.80086342  1
  O  O390  1  0.45287393  0.58746399  0.30563563  1
  O  O391  1  0.45540479  0.58429837  0.80433810  1
  O  O392  1  0.78519226  0.07714447  0.30947868  1
  O  O393  1  0.78906361  0.08228618  0.79868381  1
  O  O394  1  0.79151080  0.58463339  0.30632194  1
  O  O395  1  0.79320924  0.58451743  0.80351608  1
  O  O396  1  0.28977288  0.33348020  0.30543747  1
  O  O397  1  0.28762760  0.33596370  0.80599616  1
  O  O398  1  0.29020197  0.82754864  0.30404780  1
  O  O399  1  0.28340883  0.83976489  0.80929745  1
  O  O400  1  0.62153388  0.33514566  0.30790411  1
  O  O401  1  0.63624213  0.33847603  0.80945119  1
  O  O402  1  0.62050018  0.82851850  0.30572252  1
  O  O403  1  0.62847390  0.82823184  0.80709039  1
  O  O404  1  0.96526541  0.33433461  0.30981956  1
  O  O405  1  0.95661063  0.33658895  0.80459187  1
  O  O406  1  0.95532250  0.83101607  0.29904177  1
  O  O407  1  0.95909208  0.82988996  0.80234112  1
  O  O408  1  0.12657627  0.41791331  0.30499440  1
  O  O409  1  0.12302983  0.41746119  0.80545367  1
  O  O410  1  0.12013055  0.90940227  0.30741887  1
  O  O411  1  0.11830382  0.91918049  0.80323409  1
  O  O412  1  0.45759226  0.41590675  0.30405027  1
  O  O413  1  0.45015810  0.42539171  0.80668890  1
  O  O414  1  0.45546065  0.91248898  0.30653981  1
  O  O415  1  0.45477510  0.91726202  0.80375391  1
  O  O416  1  0.78951720  0.41796879  0.30006644  1
  O  O417  1  0.79434718  0.42003344  0.80464986  1
  O  O418  1  0.78468791  0.91283712  0.30850439  1
  O  O419  1  0.79020626  0.91114151  0.80582412  1
  O  O420  1  0.29445267  0.17002848  0.30806146  1
  O  O421  1  0.28308621  0.16964013  0.80655897  1
  O  O422  1  0.29051451  0.66414894  0.30393527  1
  O  O423  1  0.28537218  0.65707805  0.80549517  1
  O  O424  1  0.62353883  0.16577937  0.30809536  1
  O  O425  1  0.62346460  0.16848379  0.80301167  1
  O  O426  1  0.62300579  0.66607389  0.30582448  1
  O  O427  1  0.62541307  0.66192122  0.80312482  1
  O  O428  1  0.95640854  0.17352173  0.30145451  1
  O  O429  1  0.95448627  0.16953382  0.80481902  1
  O  O430  1  0.95935758  0.66574345  0.30568028  1
  O  O431  1  0.95835087  0.66467659  0.80439156  1
  F  F432  1  0.04505594  -0.01510845  0.19430506  1
  F  F433  1  0.04334691  0.00340491  0.70011235  1
  F  F434  1  0.04876397  0.50158143  0.20346461  1
  F  F435  1  0.04353096  0.49862243  0.70118685  1
  F  F436  1  0.37887683  -0.00289911  0.20099983  1
  F  F437  1  0.37479193  0.00324596  0.70088161  1
  F  F438  1  0.37205812  0.50245418  0.19692375  1
  F  F439  1  0.37640569  0.49865272  0.70073481  1
  F  F440  1  0.70815158  -0.00451614  0.20579417  1
  F  F441  1  0.71035199  -0.00151876  0.70245169  1
  F  F442  1  0.71290831  0.50324770  0.19979442  1
  F  F443  1  0.71312620  0.50026662  0.70195345  1
  F  F444  1  0.21711947  0.25205853  0.20257726  1
  F  F445  1  0.20820606  0.25266414  0.70329562  1
  F  F446  1  0.21059927  0.74661195  0.20053681  1
  F  F447  1  0.19654366  0.74946855  0.69576624  1
  F  F448  1  0.54499648  0.24929830  0.20670428  1
  F  F449  1  0.54775911  0.24495489  0.69967827  1
  F  F450  1  0.54337264  0.74939303  0.20256842  1
  F  F451  1  0.54855568  0.74561966  0.70029133  1
  F  F452  1  0.88381425  0.26074920  0.19773662  1
  F  F453  1  0.87790786  0.25400997  0.70195262  1
  F  F454  1  0.87638354  0.74688715  0.20232689  1
  F  F455  1  0.88121796  0.74650128  0.70171662  1
  F  F456  1  0.30080968  0.00072916  0.30270295  1
  F  F457  1  0.28418637  0.00608960  0.79897208  1
  F  F458  1  0.28565244  0.50745760  0.30340002  1
  F  F459  1  0.28550971  0.49823762  0.79760354  1
  F  F460  1  0.61877759  -0.00263004  0.30117052  1
  F  F461  1  0.62382471  -0.00031035  0.80002711  1
  F  F462  1  0.63107851  0.49829336  0.30168520  1
  F  F463  1  0.62163646  0.50234279  0.79775046  1
  F  F464  1  0.94904708  -0.01410962  0.30368303  1
  F  F465  1  0.95614457  0.00220821  0.79733877  1
  F  F466  1  0.95845639  0.50271593  0.30010910  1
  F  F467  1  0.95507333  0.50104019  0.79764728  1
  F  F468  1  0.12526661  0.25388839  0.29706524  1
  F  F469  1  0.11851376  0.25352987  0.79799765  1
  F  F470  1  0.12284149  0.74672395  0.29702131  1
  F  F471  1  0.11844728  0.75370064  0.79962941  1
  F  F472  1  0.45632137  0.25066213  0.30112383  1
  F  F473  1  0.44591066  0.24341102  0.80275709  1
  F  F474  1  0.45260120  0.74722193  0.29668352  1
  F  F475  1  0.46771906  0.74681801  0.80005928  1
  F  F476  1  0.78811769  0.25206062  0.30104319  1
  F  F477  1  0.79016617  0.25344372  0.79762628  1
  F  F478  1  0.78631860  0.74804429  0.29859022  1
  F  F479  1  0.78956819  0.74701271  0.79589370  1
