# generated using pymatgen
data_K24Na3Li5Mg64Fe17Si79(O5F)48
_symmetry_space_group_name_H-M   'P 1'
_cell_length_a   16.10163054
_cell_length_b   18.61622513
_cell_length_c   20.56900760
_cell_angle_alpha   90.00249162
_cell_angle_beta   100.02426423
_cell_angle_gamma   89.98449021
_symmetry_Int_Tables_number   1
_chemical_formula_structural   K24Na3Li5Mg64Fe17Si79(O5F)48
_chemical_formula_sum   'K24 Na3 Li5 Mg64 Fe17 Si79 O240 F48'
_cell_volume   6071.46913218
_cell_formula_units_Z   1
loop_
 _symmetry_equiv_pos_site_id
 _symmetry_equiv_pos_as_xyz
  1  'x, y, z'
loop_
 _atom_site_type_symbol
 _atom_site_label
 _atom_site_symmetry_multiplicity
 _atom_site_fract_x
 _atom_site_fract_y
 _atom_site_fract_z
 _atom_site_occupancy
  K  K0  1  -0.00774541  0.00505005  0.00353550  1
  K  K1  1  0.00545354  0.00136262  0.49569755  1
  K  K2  1  -0.00878715  0.49193294  0.00747397  1
  K  K3  1  -0.01064177  0.49182835  0.48889697  1
  K  K4  1  0.33731033  0.00066611  -0.00058381  1
  K  K5  1  0.33305096  0.00411246  0.50293904  1
  K  K6  1  0.33390746  0.49946210  0.00775171  1
  K  K7  1  0.33247072  0.50093160  0.49545074  1
  K  K8  1  0.66304522  0.01131671  -0.00134809  1
  K  K9  1  0.65582569  0.00052178  0.50209635  1
  K  K10  1  0.67304413  0.50245273  0.00424225  1
  K  K11  1  0.66752469  0.49493625  0.49940839  1
  K  K12  1  0.16670310  0.24924743  0.00646021  1
  K  K13  1  0.16781358  0.25224527  0.49387465  1
  K  K14  1  0.17144175  0.73740592  0.01027664  1
  K  K15  1  0.17338144  0.74224488  0.48301887  1
  K  K16  1  0.50362243  0.24764764  -0.00113735  1
  K  K17  1  0.50521017  0.25636247  0.50431376  1
  K  K18  1  0.49809707  0.74019734  0.01151007  1
  K  K19  1  0.49940976  0.74201712  0.49341112  1
  K  K20  1  0.82327296  0.24894699  0.00199671  1
  K  K21  1  0.82458690  0.26221167  0.49563437  1
  K  K22  1  0.83175410  0.74710407  0.00540276  1
  K  K23  1  0.82264775  0.74896528  0.49105016  1
  Na  Na24  1  0.49827565  0.00128942  0.74380619  1
  Na  Na25  1  0.49775879  0.66569002  0.24645378  1
  Na  Na26  1  0.16780913  0.66722328  0.24842380  1
  Li  Li27  1  0.83078722  0.00251801  0.74808996  1
  Li  Li28  1  0.49769530  0.50482377  0.24693778  1
  Li  Li29  1  0.34083927  0.08473829  0.75018895  1
  Li  Li30  1  0.66423497  0.91640603  0.24635710  1
  Li  Li31  1  0.00088061  0.08317019  0.25680240  1
  Mg  Mg32  1  0.17211133  0.00197971  0.75089822  1
  Mg  Mg33  1  0.00333946  0.75139890  0.74897638  1
  Mg  Mg34  1  0.00011770  0.24951020  0.75251526  1
  Mg  Mg35  1  -0.00155420  0.24545883  0.25556788  1
  Mg  Mg36  1  0.33485741  0.24760390  0.75537919  1
  Mg  Mg37  1  0.16267110  0.00207245  0.25410054  1
  Mg  Mg38  1  0.83188813  0.50081440  0.24936273  1
  Mg  Mg39  1  -0.00160633  0.75073337  0.24999193  1
  Mg  Mg40  1  0.49985173  -0.00017667  0.24935090  1
  Mg  Mg41  1  0.33558635  0.75212691  0.74743518  1
  Mg  Mg42  1  0.16811212  0.49748142  0.75542412  1
  Mg  Mg43  1  0.33247344  0.74867460  0.25051270  1
  Mg  Mg44  1  0.66419581  0.75185709  0.24467737  1
  Mg  Mg45  1  0.33206667  0.25219314  0.25399769  1
  Mg  Mg46  1  0.83103336  0.00008082  0.24949861  1
  Mg  Mg47  1  0.66809393  0.75305508  0.74270335  1
  Mg  Mg48  1  0.50116295  0.50010337  0.74734514  1
  Mg  Mg49  1  0.66602596  0.24942550  0.24991904  1
  Mg  Mg50  1  0.66546476  0.24955416  0.74976387  1
  Mg  Mg51  1  0.16695637  0.50016422  0.25206795  1
  Mg  Mg52  1  0.83372594  0.49915320  0.74937932  1
  Mg  Mg53  1  0.66247334  0.58509499  0.24672590  1
  Mg  Mg54  1  0.83196069  0.16363048  0.25132727  1
  Mg  Mg55  1  0.33600246  0.92039302  0.74814162  1
  Mg  Mg56  1  0.49839306  0.16595720  0.24925168  1
  Mg  Mg57  1  0.83547809  0.83680290  0.74448028  1
  Mg  Mg58  1  -0.00202873  0.58405642  0.24974518  1
  Mg  Mg59  1  0.66651114  0.58487815  0.74558283  1
  Mg  Mg60  1  0.50061400  0.33544362  0.75261606  1
  Mg  Mg61  1  0.17104237  0.16550063  0.75328455  1
  Mg  Mg62  1  0.83081334  0.33353299  0.75056329  1
  Mg  Mg63  1  0.33672379  0.58420427  0.75101110  1
  Mg  Mg64  1  -0.00123721  0.91944725  0.25235296  1
  Mg  Mg65  1  0.66461137  0.41916115  0.25017517  1
  Mg  Mg66  1  0.33583095  0.58247544  0.24993816  1
  Mg  Mg67  1  0.00389087  0.58398491  0.75215815  1
  Mg  Mg68  1  0.17027018  0.66581350  0.75213665  1
  Mg  Mg69  1  -0.00035305  0.08210647  0.74978684  1
  Mg  Mg70  1  0.50089502  0.16418940  0.74972032  1
  Mg  Mg71  1  0.16990322  0.83564732  0.75002803  1
  Mg  Mg72  1  0.50190485  0.83614818  0.74441330  1
  Mg  Mg73  1  0.16709402  0.33382672  0.25394722  1
  Mg  Mg74  1  0.16633012  0.83486172  0.25424573  1
  Mg  Mg75  1  0.82740811  0.83559961  0.24777485  1
  Mg  Mg76  1  0.66701804  0.41408130  0.74835442  1
  Mg  Mg77  1  0.66932338  0.91978519  0.74330450  1
  Mg  Mg78  1  0.33213616  0.91546478  0.25082226  1
  Mg  Mg79  1  0.16465504  0.16486463  0.25753466  1
  Mg  Mg80  1  0.49876621  0.33659993  0.25181647  1
  Mg  Mg81  1  0.00110844  0.91858693  0.74901289  1
  Mg  Mg82  1  -0.00139361  0.41395143  0.25234366  1
  Mg  Mg83  1  0.49996863  0.83469893  0.24653610  1
  Mg  Mg84  1  0.83505257  0.66686342  0.74747492  1
  Mg  Mg85  1  0.33622196  0.41388127  0.75567740  1
  Mg  Mg86  1  0.66745271  0.08279378  0.74599136  1
  Mg  Mg87  1  0.33148221  0.08484973  0.25467223  1
  Mg  Mg88  1  0.17046503  0.33370334  0.75746452  1
  Mg  Mg89  1  0.83046793  0.33410258  0.25070109  1
  Mg  Mg90  1  0.00162943  0.41429695  0.75461293  1
  Mg  Mg91  1  0.83265629  0.16308162  0.74702894  1
  Mg  Mg92  1  0.66466901  0.08143769  0.24800107  1
  Mg  Mg93  1  0.50181517  0.66637628  0.74657966  1
  Mg  Mg94  1  0.33250214  0.41743625  0.25241027  1
  Mg  Mg95  1  0.82961246  0.66572937  0.24791421  1
  Fe  Fe96  1  0.30663216  0.32792232  0.89658523  1
  Fe  Fe97  1  0.86259757  0.58422371  0.10849429  1
  Fe  Fe98  1  0.69098569  0.16525411  0.11120229  1
  Fe  Fe99  1  0.68666609  0.66831024  0.10560673  1
  Fe  Fe100  1  0.64288289  0.16439490  0.88797815  1
  Fe  Fe101  1  0.52131512  0.58711592  0.60648341  1
  Fe  Fe102  1  0.35287900  0.66483211  0.10674339  1
  Fe  Fe103  1  0.80168273  0.41816154  0.88865730  1
  Fe  Fe104  1  0.52424200  0.91310458  0.60283784  1
  Fe  Fe105  1  0.31366414  0.33788225  0.39399541  1
  Fe  Fe106  1  0.69425239  0.33340981  0.60773382  1
  Fe  Fe107  1  0.14116870  0.08380262  0.39465044  1
  Fe  Fe108  1  0.47276518  0.42205171  0.89179954  1
  Fe  Fe109  1  0.18817072  0.41563382  0.11225442  1
  Fe  Fe110  1  0.31624739  0.65834192  0.39346293  1
  Fe  Fe111  1  0.13325881  0.41500870  0.89473964  1
  Fe  Fe112  1  0.80169742  0.42014944  0.38912734  1
  Si  Si113  1  0.51812001  0.08229753  0.11248999  1
  Si  Si114  1  0.31115867  0.83243841  0.38840284  1
  Si  Si115  1  0.52665679  0.41382430  0.11700274  1
  Si  Si116  1  0.47442488  0.91668657  0.38353114  1
  Si  Si117  1  0.63689302  0.16273528  0.38489251  1
  Si  Si118  1  0.68941830  0.33450995  0.11389099  1
  Si  Si119  1  0.80685797  0.58919682  0.38883425  1
  Si  Si120  1  0.35080586  0.67026460  0.61294406  1
  Si  Si121  1  0.97184961  0.66987756  0.38586628  1
  Si  Si122  1  0.31441711  0.16735852  0.39312046  1
  Si  Si123  1  0.52535006  0.57617280  0.10840589  1
  Si  Si124  1  0.47730491  0.91331144  0.88259432  1
  Si  Si125  1  0.97686709  0.16400355  0.88494148  1
  Si  Si126  1  0.19001101  0.92170300  0.11756594  1
  Si  Si127  1  0.64656837  0.83665345  0.88125047  1
  Si  Si128  1  0.64256538  0.67073184  0.38339870  1
  Si  Si129  1  0.63946257  0.83426541  0.38198329  1
  Si  Si130  1  0.14346131  0.91693189  0.88458438  1
  Si  Si131  1  0.14288950  0.91372404  0.39032972  1
  Si  Si132  1  0.35147352  0.83212274  0.61067787  1
  Si  Si133  1  0.19279339  0.08551362  0.61748930  1
  Si  Si134  1  0.48380753  0.57707415  0.38660296  1
  Si  Si135  1  0.81193150  0.08018593  0.88353010  1
  Si  Si136  1  0.97246345  0.83455280  0.38515733  1
  Si  Si137  1  0.47856206  0.41727538  0.38743332  1
  Si  Si138  1  0.02688892  0.16699003  0.61537278  1
  Si  Si139  1  0.69521738  0.16178633  0.60779609  1
  Si  Si140  1  0.36307252  0.33257464  0.11516826  1
  Si  Si141  1  0.80182550  0.08062037  0.38679899  1
  Si  Si142  1  0.86945466  0.41927810  0.61356890  1
  Si  Si143  1  0.03237969  0.66849309  0.61539499  1
  Si  Si144  1  0.81154651  0.91601117  0.87976575  1
  Si  Si145  1  0.70020478  0.66641419  0.60892279  1
  Si  Si146  1  0.97002981  0.32941513  0.38970378  1
  Si  Si147  1  0.96390243  0.32832309  0.88845967  1
  Si  Si148  1  0.68552456  0.83928144  0.11078487  1
  Si  Si149  1  0.47244076  0.07996405  0.88551715  1
  Si  Si150  1  0.35781148  0.16856205  0.61624714  1
  Si  Si151  1  0.86829990  0.91563365  0.61197922  1
  Si  Si152  1  0.14205021  0.08183717  0.88609994  1
  Si  Si153  1  0.19314178  0.92086013  0.61458085  1
  Si  Si154  1  0.35340958  0.83712008  0.11138563  1
  Si  Si155  1  0.51938119  0.41534699  0.60946675  1
  Si  Si156  1  0.35697653  0.33096632  0.61654536  1
  Si  Si157  1  0.31114694  0.15939366  0.88947931  1
  Si  Si158  1  0.63651425  0.33410057  0.88860685  1
  Si  Si159  1  0.35533145  0.16752615  0.11696827  1
  Si  Si160  1  0.02252370  0.32407712  0.11705675  1
  Si  Si161  1  0.02504748  0.83703647  0.11635991  1
  Si  Si162  1  0.14515413  0.58740517  0.88864794  1
  Si  Si163  1  0.96590531  0.16409755  0.39029846  1
  Si  Si164  1  0.31080039  0.67098919  0.88476543  1
  Si  Si165  1  0.47374555  0.08052715  0.38529803  1
  Si  Si166  1  0.19123947  0.08596612  0.11859329  1
  Si  Si167  1  0.13461516  0.41451382  0.39120541  1
  Si  Si168  1  0.48076028  0.59189868  0.88607473  1
  Si  Si169  1  0.51925911  0.91949172  0.11429113  1
  Si  Si170  1  0.86363942  0.08095548  0.61309783  1
  Si  Si171  1  0.63614273  0.32805118  0.38716867  1
  Si  Si172  1  0.86147702  0.08053589  0.11553000  1
  Si  Si173  1  0.03152704  0.33180178  0.61758394  1
  Si  Si174  1  0.13335534  0.57958472  0.38866999  1
  Si  Si175  1  0.85629729  0.91601258  0.11415320  1
  Si  Si176  1  0.19529226  0.41560293  0.61795466  1
  Si  Si177  1  0.64554073  0.67367260  0.88101945  1
  Si  Si178  1  0.81140794  0.58893046  0.88404685  1
  Si  Si179  1  0.97774241  0.83492144  0.88336315  1
  Si  Si180  1  0.03215062  0.83373545  0.61334146  1
  Si  Si181  1  0.70094717  0.83342343  0.60647220  1
  Si  Si182  1  0.02504416  0.16275245  0.12113893  1
  Si  Si183  1  0.86843062  0.58504903  0.61494341  1
  Si  Si184  1  0.52353022  0.08824746  0.60826869  1
  Si  Si185  1  0.19271470  0.57980760  0.61689895  1
  Si  Si186  1  0.02772665  0.67138263  0.11391942  1
  Si  Si187  1  0.80655519  0.91628611  0.38416817  1
  Si  Si188  1  0.85946442  0.41160055  0.11429342  1
  Si  Si189  1  0.97740831  0.67103221  0.88407171  1
  Si  Si190  1  0.18743254  0.57998794  0.11228516  1
  Si  Si191  1  0.31105599  0.83587735  0.88428232  1
  O  O192  1  0.26959465  0.12079725  0.08740664  1
  O  O193  1  0.27247040  0.11994633  0.58799620  1
  O  O194  1  0.26170124  0.60512172  0.07232642  1
  O  O195  1  0.27113778  0.61467870  0.58704521  1
  O  O196  1  0.59481586  0.10946270  0.07831655  1
  O  O197  1  0.60421955  0.12252353  0.57732260  1
  O  O198  1  0.60284822  0.60130033  0.07140167  1
  O  O199  1  0.61543254  0.62669010  0.57411783  1
  O  O200  1  0.94984579  0.10635119  0.09117323  1
  O  O201  1  0.93936701  0.12427059  0.58351977  1
  O  O202  1  0.95395436  0.62331045  0.07202912  1
  O  O203  1  0.94294421  0.62931534  0.58593480  1
  O  O204  1  0.10125269  0.34808755  0.08336248  1
  O  O205  1  0.11212642  0.36626228  0.58881229  1
  O  O206  1  0.10242361  0.87789822  0.08723140  1
  O  O207  1  0.10748547  0.87481694  0.58390153  1
  O  O208  1  0.45138081  0.35517137  0.08943278  1
  O  O209  1  0.43713830  0.36075326  0.58614914  1
  O  O210  1  0.43539573  0.87174558  0.08247674  1
  O  O211  1  0.42819267  0.85341338  0.57379848  1
  O  O212  1  0.77469247  0.36293748  0.08778350  1
  O  O213  1  0.78429321  0.38178941  0.57720203  1
  O  O214  1  0.76861836  0.87461446  0.08256905  1
  O  O215  1  0.78184839  0.87320968  0.58016849  1
  O  O216  1  0.28714473  0.38414518  0.08177068  1
  O  O217  1  0.27419477  0.38183473  0.58752397  1
  O  O218  1  0.26987049  0.89078042  0.08584449  1
  O  O219  1  0.27104323  0.88675004  0.58383131  1
  O  O220  1  0.61193301  0.39089175  0.08727734  1
  O  O221  1  0.59464768  0.38333480  0.57429212  1
  O  O222  1  0.60398003  0.89430330  0.08566004  1
  O  O223  1  0.61733284  0.87284472  0.56868154  1
  O  O224  1  0.93785003  0.37097195  0.08708925  1
  O  O225  1  0.94996794  0.38083344  0.58634135  1
  O  O226  1  0.93618324  0.87873418  0.08518450  1
  O  O227  1  0.94445248  0.87465642  0.58135042  1
  O  O228  1  0.10744956  0.13388505  0.08968559  1
  O  O229  1  0.10588670  0.13027477  0.58591982  1
  O  O230  1  0.11760519  0.64672610  0.09411245  1
  O  O231  1  0.10759917  0.62658180  0.58655236  1
  O  O232  1  0.43193517  0.13001793  0.08605780  1
  O  O233  1  0.43692010  0.13802192  0.58273251  1
  O  O234  1  0.44580111  0.62657418  0.07536177  1
  O  O235  1  0.42944203  0.65026864  0.57807938  1
  O  O236  1  0.78472055  0.12885136  0.07745741  1
  O  O237  1  0.77072065  0.11331768  0.58126953  1
  O  O238  1  0.77669698  0.64155005  0.06633023  1
  O  O239  1  0.78056695  0.62523690  0.58367759  1
  O  O240  1  0.04465019  0.11683632  0.42683158  1
  O  O241  1  0.06116735  0.11514789  0.91492131  1
  O  O242  1  0.05600478  0.62382173  0.41731033  1
  O  O243  1  0.06314757  0.62640133  0.91414211  1
  O  O244  1  0.39330556  0.10880215  0.41617656  1
  O  O245  1  0.38430900  0.09815541  0.91441415  1
  O  O246  1  0.41224167  0.60296690  0.42896634  1
  O  O247  1  0.39794936  0.62799865  0.91342919  1
  O  O248  1  0.71920497  0.11259196  0.41486793  1
  O  O249  1  0.73717771  0.10528113  0.92108942  1
  O  O250  1  0.73185630  0.63267723  0.41833881  1
  O  O251  1  0.72827514  0.62427199  0.90981998  1
  O  O252  1  0.22032066  0.37594841  0.42746890  1
  O  O253  1  0.20652421  0.34337636  0.92724291  1
  O  O254  1  0.22733365  0.86423837  0.41623621  1
  O  O255  1  0.23096197  0.87273234  0.91326676  1
  O  O256  1  0.55139068  0.35539463  0.41403654  1
  O  O257  1  0.54894656  0.34670228  0.91682550  1
  O  O258  1  0.56123729  0.87196210  0.41222825  1
  O  O259  1  0.56500055  0.86824776  0.91094547  1
  O  O260  1  0.89843492  0.36655323  0.42472679  1
  O  O261  1  0.87642357  0.34135948  0.91559405  1
  O  O262  1  0.89442669  0.87245019  0.41608330  1
  O  O263  1  0.89594967  0.86704668  0.91127493  1
  O  O264  1  0.05851542  0.37132422  0.41967886  1
  O  O265  1  0.03118202  0.38821987  0.92111376  1
  O  O266  1  0.06078296  0.87540721  0.41645042  1
  O  O267  1  0.06330877  0.88126904  0.91349379  1
  O  O268  1  0.40130365  0.40154882  0.42678250  1
  O  O269  1  0.37928586  0.40139404  0.92886730  1
  O  O270  1  0.39357961  0.88626485  0.41396741  1
  O  O271  1  0.39780185  0.87924809  0.91522005  1
  O  O272  1  0.71496109  0.37458003  0.42420692  1
  O  O273  1  0.70095505  0.39915809  0.91793247  1
  O  O274  1  0.72790361  0.87776972  0.41320254  1
  O  O275  1  0.73075916  0.88495825  0.91113328  1
  O  O276  1  0.23668184  0.14027435  0.42794508  1
  O  O277  1  0.22646358  0.12635821  0.91764953  1
  O  O278  1  0.21962248  0.61843304  0.42358442  1
  O  O279  1  0.22813853  0.64032567  0.91256594  1
  O  O280  1  0.55754060  0.12836937  0.41529884  1
  O  O281  1  0.55018305  0.12765114  0.92404684  1
  O  O282  1  0.56621924  0.63118356  0.41223670  1
  O  O283  1  0.56036842  0.64885681  0.90852430  1
  O  O284  1  0.88165852  0.13157247  0.41806307  1
  O  O285  1  0.89936413  0.12614482  0.91435793  1
  O  O286  1  0.89268734  0.63768898  0.41706599  1
  O  O287  1  0.89246321  0.64391425  0.90986678  1
  O  O288  1  0.17436418  0.00430160  0.08801630  1
  O  O289  1  0.17752946  0.00330071  0.58703515  1
  O  O290  1  0.14638523  0.50533527  0.07904195  1
  O  O291  1  0.17737293  0.49766951  0.58812899  1
  O  O292  1  0.49378032  0.00041456  0.08459490  1
  O  O293  1  0.50447251  0.00990851  0.57359811  1
  O  O294  1  0.49791952  0.49183462  0.08461694  1
  O  O295  1  0.49082639  0.49381219  0.57825823  1
  O  O296  1  0.84897540  -0.00221644  0.08455291  1
  O  O297  1  0.86588625  -0.00173005  0.58367190  1
  O  O298  1  0.84643698  0.48838643  0.07804281  1
  O  O299  1  0.87083599  0.50343402  0.58674978  1
  O  O300  1  -0.00219100  0.24145330  0.08926984  1
  O  O301  1  0.01749261  0.24997023  0.58706534  1
  O  O302  1  0.01672497  0.75614852  0.08531462  1
  O  O303  1  0.02743166  0.75068178  0.58569326  1
  O  O304  1  0.34156825  0.24882708  0.08790326  1
  O  O305  1  0.33483633  0.24996218  0.58579415  1
  O  O306  1  0.33257203  0.76157141  0.07410944  1
  O  O307  1  0.31428413  0.75085219  0.58896489  1
  O  O308  1  0.66470547  0.25797469  0.07855513  1
  O  O309  1  0.69399735  0.23938605  0.57221942  1
  O  O310  1  0.66145388  0.76423164  0.07302485  1
  O  O311  1  0.70453742  0.74933903  0.58073295  1
  O  O312  1  0.15832106  -0.01091548  0.42922917  1
  O  O313  1  0.15479744  -0.00142096  0.91477697  1
  O  O314  1  0.13010452  0.49744839  0.41978709  1
  O  O315  1  0.16403520  0.51083046  0.92259246  1
  O  O316  1  0.49360270  -0.00151167  0.41311388  1
  O  O317  1  0.49214439  -0.00516419  0.91119663  1
  O  O318  1  0.51927900  0.49603776  0.41283601  1
  O  O319  1  0.50750560  0.51676649  0.92119920  1
  O  O320  1  0.81727123  -0.00188286  0.41645656  1
  O  O321  1  0.83635512  -0.00375780  0.90902272  1
  O  O322  1  0.82006408  0.51276091  0.42671227  1
  O  O323  1  0.83581660  0.51260636  0.91818554  1
  O  O324  1  0.34744431  0.24442501  0.42414754  1
  O  O325  1  0.34003456  0.23316162  0.92770931  1
  O  O326  1  0.33120049  0.75593780  0.42442427  1
  O  O327  1  0.32258047  0.75377080  0.91321712  1
  O  O328  1  0.65238093  0.24390098  0.41439396  1
  O  O329  1  0.67573842  0.25686786  0.91716103  1
  O  O330  1  0.64995874  0.75347157  0.41504021  1
  O  O331  1  0.66720610  0.75515892  0.91058394  1
  O  O332  1  0.98036359  0.24675508  0.41925836  1
  O  O333  1  0.99616431  0.24526026  0.91338130  1
  O  O334  1  0.98367532  0.75260281  0.41567923  1
  O  O335  1  0.99519173  0.75343500  0.91253699  1
  O  O336  1  0.21129627  0.08432578  0.19847576  1
  O  O337  1  0.20517569  0.08450821  0.69678636  1
  O  O338  1  0.21238322  0.57286612  0.19203211  1
  O  O339  1  0.20949445  0.58314127  0.69731770  1
  O  O340  1  0.53815750  0.08372200  0.19341235  1
  O  O341  1  0.54691117  0.09078588  0.68757180  1
  O  O342  1  0.54942470  0.57823340  0.18773194  1
  O  O343  1  0.54499984  0.58558917  0.69846449  1
  O  O344  1  0.87125809  0.08146044  0.19526895  1
  O  O345  1  0.88235405  0.08417718  0.69269963  1
  O  O346  1  0.87732739  0.58364545  0.20116782  1
  O  O347  1  0.88321654  0.58617521  0.69540094  1
  O  O348  1  0.04048364  0.32815959  0.19827101  1
  O  O349  1  0.04541269  0.33097119  0.69763710  1
  O  O350  1  0.04167515  0.83704365  0.19648534  1
  O  O351  1  0.04744752  0.83390585  0.69389268  1
  O  O352  1  0.37784133  0.33067898  0.19588200  1
  O  O353  1  0.37472309  0.33171241  0.69639926  1
  O  O354  1  0.37343779  0.83786178  0.19195498  1
  O  O355  1  0.37362612  0.83439258  0.69173886  1
  O  O356  1  0.70752655  0.33120289  0.19482473  1
  O  O357  1  0.71114874  0.33103141  0.69894570  1
  O  O358  1  0.70961612  0.83467424  0.19064743  1
  O  O359  1  0.71580059  0.83375051  0.68750852  1
  O  O360  1  0.20715092  0.41485202  0.20356941  1
  O  O361  1  0.21191735  0.41765058  0.69780192  1
  O  O362  1  0.20827389  0.92034325  0.19771388  1
  O  O363  1  0.20818337  0.91641723  0.69474576  1
  O  O364  1  0.54597833  0.41177006  0.19682977  1
  O  O365  1  0.54351549  0.41675272  0.69083475  1
  O  O366  1  0.53521341  0.91979057  0.19380953  1
  O  O367  1  0.55181598  0.90800382  0.69253373  1
  O  O368  1  0.87827360  0.41391240  0.19525551  1
  O  O369  1  0.88376124  0.41778610  0.69419493  1
  O  O370  1  0.87513879  0.91584914  0.19433637  1
  O  O371  1  0.88592635  0.91229888  0.69143838  1
  O  O372  1  0.04479300  0.16703576  0.20040470  1
  O  O373  1  0.04385407  0.16545458  0.69569645  1
  O  O374  1  0.03023732  0.67016078  0.19311724  1
  O  O375  1  0.04835990  0.66853846  0.69592317  1
  O  O376  1  0.37361206  0.16545419  0.19746675  1
  O  O377  1  0.37785089  0.16998611  0.69558447  1
  O  O378  1  0.36452926  0.66847436  0.19570270  1
  O  O379  1  0.37337808  0.66771853  0.69404447  1
  O  O380  1  0.71017672  0.16548339  0.20268979  1
  O  O381  1  0.71394191  0.16398653  0.68830891  1
  O  O382  1  0.71116846  0.66847534  0.19788422  1
  O  O383  1  0.71459411  0.66797702  0.69009908  1
  O  O384  1  0.12450775  0.08208996  0.30436729  1
  O  O385  1  0.12376826  0.08165428  0.80576984  1
  O  O386  1  0.11495036  0.57679465  0.30889769  1
  O  O387  1  0.12545891  0.58662687  0.80709292  1
  O  O388  1  0.45571958  0.08317241  0.30489869  1
  O  O389  1  0.45675362  0.08849975  0.80679807  1
  O  O390  1  0.45365686  0.57666756  0.30842159  1
  O  O391  1  0.45748130  0.58888778  0.80505220  1
  O  O392  1  0.78726259  0.08044384  0.30702279  1
  O  O393  1  0.79276039  0.08517978  0.80362499  1
  O  O394  1  0.79099876  0.58501748  0.30878327  1
  O  O395  1  0.79298359  0.58755848  0.80261285  1
  O  O396  1  0.28855870  0.33198178  0.30296393  1
  O  O397  1  0.29033105  0.33164637  0.80316083  1
  O  O398  1  0.29015402  0.83565436  0.30761418  1
  O  O399  1  0.29087914  0.83385903  0.80386040  1
  O  O400  1  0.62290879  0.33025269  0.30657123  1
  O  O401  1  0.62217013  0.33443641  0.80622835  1
  O  O402  1  0.62164504  0.83363057  0.30282581  1
  O  O403  1  0.62866021  0.83410548  0.80106675  1
  O  O404  1  0.95396868  0.33081226  0.30878744  1
  O  O405  1  0.95409895  0.33024231  0.80647739  1
  O  O406  1  0.95347407  0.83556081  0.30516051  1
  O  O407  1  0.96119688  0.83420541  0.80287176  1
  O  O408  1  0.11870907  0.41351508  0.31054924  1
  O  O409  1  0.12076283  0.41696768  0.80158137  1
  O  O410  1  0.12297287  0.91749133  0.30949760  1
  O  O411  1  0.12420730  0.91568022  0.80428990  1
  O  O412  1  0.45312922  0.41019245  0.30804210  1
  O  O413  1  0.45666775  0.42080694  0.79851955  1
  O  O414  1  0.45505445  0.91860663  0.30344943  1
  O  O415  1  0.45332958  0.90717514  0.80364573  1
  O  O416  1  0.78732198  0.41682267  0.29817274  1
  O  O417  1  0.78950083  0.41931889  0.79679975  1
  O  O418  1  0.79235433  0.91713319  0.30498993  1
  O  O419  1  0.79263720  0.91181560  0.80029676  1
  O  O420  1  0.29222274  0.16589661  0.31133896  1
  O  O421  1  0.28782311  0.16677285  0.80953441  1
  O  O422  1  0.29829163  0.66619711  0.30467515  1
  O  O423  1  0.29205809  0.66969140  0.80399230  1
  O  O424  1  0.61909927  0.16349699  0.30491100  1
  O  O425  1  0.62396226  0.16471283  0.79626681  1
  O  O426  1  0.63217082  0.67116456  0.30469194  1
  O  O427  1  0.62856427  0.67196641  0.80047585  1
  O  O428  1  0.95022487  0.16607216  0.31016512  1
  O  O429  1  0.95895953  0.16367143  0.80435339  1
  O  O430  1  0.95499161  0.67001896  0.30603077  1
  O  O431  1  0.96081062  0.66975408  0.80319811  1
  F  F432  1  0.04679142  -0.00660018  0.20082257  1
  F  F433  1  0.04925058  -0.00053804  0.70083760  1
  F  F434  1  0.04268078  0.49740658  0.20506124  1
  F  F435  1  0.04730236  0.50349095  0.70249066  1
  F  F436  1  0.37497917  0.00221068  0.20372809  1
  F  F437  1  0.36146342  -0.00097775  0.69494877  1
  F  F438  1  0.37422132  0.49670201  0.20316716  1
  F  F439  1  0.37528541  0.50307470  0.70118246  1
  F  F440  1  0.71202981  0.00243487  0.20058439  1
  F  F441  1  0.71404192  0.00089295  0.69550551  1
  F  F442  1  0.71308591  0.50136108  0.19990599  1
  F  F443  1  0.71533940  0.50509684  0.69702767  1
  F  F444  1  0.20999362  0.24486278  0.20642336  1
  F  F445  1  0.20997431  0.24852802  0.70375662  1
  F  F446  1  0.21304519  0.76555695  0.19978063  1
  F  F447  1  0.21092352  0.75050776  0.70247249  1
  F  F448  1  0.54373435  0.24838768  0.20349744  1
  F  F449  1  0.54364587  0.25334651  0.70111753  1
  F  F450  1  0.54723797  0.76181581  0.19402962  1
  F  F451  1  0.54665192  0.74973239  0.69827834  1
  F  F452  1  0.87770436  0.24816079  0.20566098  1
  F  F453  1  0.88153159  0.24886641  0.70137446  1
  F  F454  1  0.87728582  0.75363260  0.20236560  1
  F  F455  1  0.88438106  0.75031648  0.69907107  1
  F  F456  1  0.28788096  -0.00063194  0.30023997  1
  F  F457  1  0.28386217  -0.01003170  0.80381346  1
  F  F458  1  0.28595140  0.50034541  0.30273676  1
  F  F459  1  0.28930709  0.50373107  0.79929017  1
  F  F460  1  0.61673392  0.00490066  0.29910141  1
  F  F461  1  0.63666952  -0.00110416  0.79789794  1
  F  F462  1  0.63039894  0.50196073  0.29950267  1
  F  F463  1  0.62489727  0.50129333  0.79364495  1
  F  F464  1  0.94978488  -0.00434491  0.30058953  1
  F  F465  1  0.96348528  -0.00149655  0.79892569  1
  F  F466  1  0.95312646  0.49735388  0.30054714  1
  F  F467  1  0.95604354  0.50274713  0.79745085  1
  F  F468  1  0.12003059  0.24952006  0.30363082  1
  F  F469  1  0.11996437  0.24654286  0.79937432  1
  F  F470  1  0.11347119  0.76037200  0.30314637  1
  F  F471  1  0.12367132  0.75205533  0.79853115  1
  F  F472  1  0.45515520  0.24709912  0.29834250  1
  F  F473  1  0.45655397  0.24979957  0.79773314  1
  F  F474  1  0.45087807  0.76421977  0.29970645  1
  F  F475  1  0.45651525  0.75113048  0.79324890  1
  F  F476  1  0.78697510  0.25014744  0.30086048  1
  F  F477  1  0.79022870  0.24520737  0.79492478  1
  F  F478  1  0.78839254  0.75414472  0.29812395  1
  F  F479  1  0.79125392  0.75213330  0.79188530  1
