# generated using pymatgen
data_K24Na3Li5Mg64Fe17Si79(O5F)48
_symmetry_space_group_name_H-M   'P 1'
_cell_length_a   16.09260396
_cell_length_b   18.59174879
_cell_length_c   20.55489434
_cell_angle_alpha   90.01239222
_cell_angle_beta   99.99732377
_cell_angle_gamma   89.98511694
_symmetry_Int_Tables_number   1
_chemical_formula_structural   K24Na3Li5Mg64Fe17Si79(O5F)48
_chemical_formula_sum   'K24 Na3 Li5 Mg64 Fe17 Si79 O240 F48'
_cell_volume   6056.43176528
_cell_formula_units_Z   1
loop_
 _symmetry_equiv_pos_site_id
 _symmetry_equiv_pos_as_xyz
  1  'x, y, z'
loop_
 _atom_site_type_symbol
 _atom_site_label
 _atom_site_symmetry_multiplicity
 _atom_site_fract_x
 _atom_site_fract_y
 _atom_site_fract_z
 _atom_site_occupancy
  K  K0  1  -0.01050904  0.00773312  -0.00146908  1
  K  K1  1  -0.01398190  -0.00653607  0.50290405  1
  K  K2  1  -0.00341142  0.49954422  0.00293295  1
  K  K3  1  -0.01090451  0.49806121  0.49737126  1
  K  K4  1  0.32739596  0.00763856  -0.00618110  1
  K  K5  1  0.32579162  0.00046506  0.50429203  1
  K  K6  1  0.33259309  0.49194976  -0.00210467  1
  K  K7  1  0.33012819  0.50270402  0.49932141  1
  K  K8  1  0.67869573  -0.00432750  -0.00350418  1
  K  K9  1  0.68300858  0.00727663  0.50506399  1
  K  K10  1  0.68969979  0.49878989  0.00850702  1
  K  K11  1  0.67230534  0.50296918  0.50274232  1
  K  K12  1  0.17015578  0.26019445  -0.00138782  1
  K  K13  1  0.16088551  0.24781273  0.49778274  1
  K  K14  1  0.15710816  0.74616765  0.00092576  1
  K  K15  1  0.14883275  0.75159224  0.49116970  1
  K  K16  1  0.49963204  0.25242076  -0.00523071  1
  K  K17  1  0.50079773  0.25020780  0.50470280  1
  K  K18  1  0.51291783  0.74520130  -0.00054748  1
  K  K19  1  0.50670092  0.74668928  0.50075007  1
  K  K20  1  0.83070668  0.24903737  -0.00271378  1
  K  K21  1  0.84428789  0.24348926  0.51110278  1
  K  K22  1  0.82733659  0.75034290  0.00257311  1
  K  K23  1  0.83519841  0.74948526  0.49573685  1
  Na  Na24  1  0.00535560  0.25325639  0.25027226  1
  Na  Na25  1  0.49924419  0.33020543  0.74956489  1
  Na  Na26  1  0.83498338  0.32898069  0.75530837  1
  Li  Li27  1  0.83796291  0.50099360  0.24810878  1
  Li  Li28  1  -0.00807678  0.74675947  0.25656577  1
  Li  Li29  1  -0.00264370  0.08455269  0.75179583  1
  Li  Li30  1  0.50423364  0.83471956  0.75268159  1
  Li  Li31  1  0.16415412  0.33318077  0.25506010  1
  Mg  Mg32  1  0.50091092  -0.00104379  0.25193009  1
  Mg  Mg33  1  0.50008667  -0.00314160  0.75162395  1
  Mg  Mg34  1  0.49899105  0.49942737  0.24765718  1
  Mg  Mg35  1  -0.00036427  0.24595053  0.74841726  1
  Mg  Mg36  1  0.66826963  0.74996392  0.25100309  1
  Mg  Mg37  1  0.66561573  0.24741959  0.75067388  1
  Mg  Mg38  1  -0.00006562  0.74816872  0.74885699  1
  Mg  Mg39  1  0.66749568  0.25289066  0.24779789  1
  Mg  Mg40  1  0.16442397  -0.00053210  0.25048462  1
  Mg  Mg41  1  0.33121189  0.25174542  0.24642657  1
  Mg  Mg42  1  0.16621957  0.50010676  0.75099065  1
  Mg  Mg43  1  0.33183359  0.75055041  0.25333390  1
  Mg  Mg44  1  0.16401636  0.00178490  0.74517869  1
  Mg  Mg45  1  0.49946305  0.49979501  0.74871731  1
  Mg  Mg46  1  0.33115630  0.24919251  0.74960039  1
  Mg  Mg47  1  0.16562256  0.49836790  0.25298055  1
  Mg  Mg48  1  0.33760642  0.75244002  0.74855261  1
  Mg  Mg49  1  0.66329175  0.75021160  0.75059565  1
  Mg  Mg50  1  0.83366134  0.49835928  0.75179621  1
  Mg  Mg51  1  0.83361091  -0.00186209  0.25088560  1
  Mg  Mg52  1  0.83604401  0.00035205  0.75228137  1
  Mg  Mg53  1  0.49869353  0.16667254  0.24771383  1
  Mg  Mg54  1  0.33034513  0.08411961  0.74758745  1
  Mg  Mg55  1  0.16714634  0.83450659  0.74602002  1
  Mg  Mg56  1  0.66945494  0.91359494  0.25198494  1
  Mg  Mg57  1  0.83395090  0.33637728  0.24737870  1
  Mg  Mg58  1  -0.00134367  0.58339340  0.75053006  1
  Mg  Mg59  1  0.16755181  0.66660838  0.74831703  1
  Mg  Mg60  1  0.33241869  0.08379736  0.24779239  1
  Mg  Mg61  1  0.00037142  0.41498172  0.75009003  1
  Mg  Mg62  1  0.33303143  0.41577965  0.75046237  1
  Mg  Mg63  1  0.16488970  0.16338352  0.74556818  1
  Mg  Mg64  1  0.83404764  0.66418860  0.25172304  1
  Mg  Mg65  1  0.16513022  0.33447828  0.75233519  1
  Mg  Mg66  1  0.66728688  0.41479644  0.75204647  1
  Mg  Mg67  1  0.83216139  0.83332367  0.75039534  1
  Mg  Mg68  1  -0.00046877  0.58432578  0.25419548  1
  Mg  Mg69  1  0.00202670  0.41714308  0.25065239  1
  Mg  Mg70  1  0.66772507  0.08478245  0.25075169  1
  Mg  Mg71  1  0.33566227  0.91558600  0.74680958  1
  Mg  Mg72  1  0.83344096  0.16844039  0.24828852  1
  Mg  Mg73  1  -0.00352372  0.91304193  0.24969451  1
  Mg  Mg74  1  0.16259125  0.66736371  0.25548615  1
  Mg  Mg75  1  0.49850186  0.16422797  0.75036912  1
  Mg  Mg76  1  0.66900121  0.08322923  0.75039284  1
  Mg  Mg77  1  0.49796151  0.33494687  0.24709186  1
  Mg  Mg78  1  0.16723227  0.16905895  0.24961759  1
  Mg  Mg79  1  0.66929790  0.58258802  0.24979088  1
  Mg  Mg80  1  0.50296752  0.66862984  0.75179199  1
  Mg  Mg81  1  -0.00116629  0.91711363  0.74618033  1
  Mg  Mg82  1  0.33276610  0.91601702  0.25173096  1
  Mg  Mg83  1  0.66974189  0.58295209  0.75201850  1
  Mg  Mg84  1  0.16089974  0.83291883  0.25224724  1
  Mg  Mg85  1  0.50123077  0.66550472  0.25220024  1
  Mg  Mg86  1  -0.00101500  0.08494256  0.24768171  1
  Mg  Mg87  1  0.33471157  0.58501745  0.74929365  1
  Mg  Mg88  1  0.50267098  0.83351225  0.25354890  1
  Mg  Mg89  1  0.83524478  0.83387746  0.24941711  1
  Mg  Mg90  1  0.66910080  0.41754332  0.24696216  1
  Mg  Mg91  1  0.33106495  0.58460715  0.25358460  1
  Mg  Mg92  1  0.83816303  0.16250608  0.75198356  1
  Mg  Mg93  1  0.66539463  0.91437455  0.75270657  1
  Mg  Mg94  1  0.33016544  0.41446656  0.24806844  1
  Mg  Mg95  1  0.83272933  0.66335504  0.75043778  1
  Fe  Fe96  1  0.14440141  0.57995751  0.39427915  1
  Fe  Fe97  1  0.64079790  0.83029320  0.88986542  1
  Fe  Fe98  1  0.69281581  0.33782882  0.10822074  1
  Fe  Fe99  1  0.30558476  0.16568667  0.88745817  1
  Fe  Fe100  1  0.85530664  0.58150909  0.60891035  1
  Fe  Fe101  1  0.97068921  0.83030914  0.39153189  1
  Fe  Fe102  1  0.81155870  0.57688665  0.89192250  1
  Fe  Fe103  1  0.86039092  0.91978911  0.10713617  1
  Fe  Fe104  1  0.35823008  0.33221837  0.10797133  1
  Fe  Fe105  1  0.80179397  0.92139807  0.39397043  1
  Fe  Fe106  1  0.86152106  0.08390120  0.61118842  1
  Fe  Fe107  1  0.98024861  0.32953126  0.89116194  1
  Fe  Fe108  1  0.14260569  0.42314057  0.89161086  1
  Fe  Fe109  1  0.19407062  0.08262430  0.60420021  1
  Fe  Fe110  1  0.63467951  0.82984444  0.39337680  1
  Fe  Fe111  1  0.69102662  0.66253951  0.11127782  1
  Fe  Fe112  1  0.80943632  0.08727697  0.89092113  1
  Si  Si113  1  0.81348614  0.91548177  0.88798175  1
  Si  Si114  1  0.63810710  0.17127051  0.38434796  1
  Si  Si115  1  0.97521645  0.33535192  0.38563176  1
  Si  Si116  1  0.52428976  0.91966083  0.61491477  1
  Si  Si117  1  0.52404801  0.08076369  0.11493145  1
  Si  Si118  1  0.02939655  0.17350239  0.60694095  1
  Si  Si119  1  0.96954624  0.65757973  0.39229985  1
  Si  Si120  1  0.35569309  0.16139625  0.11170149  1
  Si  Si121  1  0.52385544  0.91699020  0.11608331  1
  Si  Si122  1  0.80916035  0.09311348  0.38696085  1
  Si  Si123  1  0.52648815  0.58293206  0.61427756  1
  Si  Si124  1  0.13819959  0.07893861  0.88436343  1
  Si  Si125  1  0.64116016  0.65848656  0.38971461  1
  Si  Si126  1  0.86992485  0.41476564  0.11256266  1
  Si  Si127  1  0.30861659  0.32882029  0.38436167  1
  Si  Si128  1  0.86751672  0.58312387  0.11501471  1
  Si  Si129  1  0.68743714  0.83397505  0.11089483  1
  Si  Si130  1  0.02551415  0.82873190  0.61392509  1
  Si  Si131  1  0.97890220  0.66925454  0.88771603  1
  Si  Si132  1  0.68805211  0.83467920  0.61504683  1
  Si  Si133  1  0.02945525  0.66323189  0.61240216  1
  Si  Si134  1  0.47281947  0.07921783  0.88536134  1
  Si  Si135  1  0.98207089  0.16508196  0.88905025  1
  Si  Si136  1  0.52535696  0.41967209  0.61324013  1
  Si  Si137  1  0.68634308  0.16685460  0.11300490  1
  Si  Si138  1  0.35651126  0.33630768  0.61322049  1
  Si  Si139  1  0.13869096  0.91993198  0.38776769  1
  Si  Si140  1  0.30973860  0.67404775  0.88289594  1
  Si  Si141  1  0.47057732  0.58611162  0.88435260  1
  Si  Si142  1  0.85310064  0.41410364  0.61233852  1
  Si  Si143  1  0.97725585  0.83298393  0.88280754  1
  Si  Si144  1  0.35679078  0.66909255  0.11729798  1
  Si  Si145  1  0.14108861  0.91485723  0.88182828  1
  Si  Si146  1  0.03695935  0.33675474  0.11701583  1
  Si  Si147  1  0.36056355  0.83414824  0.11718141  1
  Si  Si148  1  0.46734854  0.91774935  0.38830221  1
  Si  Si149  1  0.47110367  0.58263665  0.38695667  1
  Si  Si150  1  0.68754058  0.67080361  0.61274092  1
  Si  Si151  1  0.19217991  0.91054462  0.60883436  1
  Si  Si152  1  0.47043940  0.41718437  0.38571275  1
  Si  Si153  1  0.80527483  0.40990353  0.88979157  1
  Si  Si154  1  0.36326297  0.66665660  0.61400374  1
  Si  Si155  1  0.64046378  0.66028353  0.88859141  1
  Si  Si156  1  0.31088077  0.67372973  0.39056521  1
  Si  Si157  1  0.14798362  0.59176636  0.88666416  1
  Si  Si158  1  0.63452144  0.16787704  0.88777175  1
  Si  Si159  1  0.47232342  0.42306152  0.88383104  1
  Si  Si160  1  0.47583751  0.08272571  0.38516374  1
  Si  Si161  1  0.30739265  0.83732357  0.88270108  1
  Si  Si162  1  0.63752100  0.33650828  0.38549501  1
  Si  Si163  1  0.19452666  0.42484009  0.11393630  1
  Si  Si164  1  0.51781806  0.58207098  0.11407114  1
  Si  Si165  1  0.19023929  0.07893738  0.11419811  1
  Si  Si166  1  0.31015016  0.16521346  0.38383476  1
  Si  Si167  1  0.52503150  0.42011464  0.11156328  1
  Si  Si168  1  0.31281274  0.33449381  0.88808795  1
  Si  Si169  1  0.36133243  0.83154209  0.61322704  1
  Si  Si170  1  0.19764123  0.58501039  0.61457146  1
  Si  Si171  1  0.63724413  0.33500803  0.88534494  1
  Si  Si172  1  0.80419213  0.57623816  0.38530451  1
  Si  Si173  1  0.85831197  0.09171225  0.11203070  1
  Si  Si174  1  0.80785191  0.41128508  0.38595031  1
  Si  Si175  1  0.03086485  0.16874457  0.11462386  1
  Si  Si176  1  0.52678086  0.08334149  0.61462892  1
  Si  Si177  1  0.03099827  0.83474128  0.11232100  1
  Si  Si178  1  0.30372820  0.83882745  0.38566950  1
  Si  Si179  1  0.36404344  0.16988787  0.60939013  1
  Si  Si180  1  0.68528989  0.33103509  0.61488902  1
  Si  Si181  1  0.19188706  0.58802661  0.11753679  1
  Si  Si182  1  0.68909843  0.16690814  0.61167546  1
  Si  Si183  1  0.97576192  0.16868069  0.38304455  1
  Si  Si184  1  0.14578582  0.41217879  0.38970038  1
  Si  Si185  1  0.02460159  0.33849804  0.61183460  1
  Si  Si186  1  0.85685675  0.91056777  0.61261792  1
  Si  Si187  1  0.19213507  0.41904681  0.61282538  1
  Si  Si188  1  0.02853166  0.66976620  0.11909039  1
  Si  Si189  1  0.19466687  0.91443823  0.11551475  1
  Si  Si190  1  0.14251623  0.08547554  0.38403013  1
  Si  Si191  1  0.47197777  0.91605207  0.88570118  1
  O  O192  1  0.27545802  0.10564765  0.08703384  1
  O  O193  1  0.28534330  0.12503271  0.57010851  1
  O  O194  1  0.27182677  0.62310521  0.08696916  1
  O  O195  1  0.27660525  0.62195721  0.58526234  1
  O  O196  1  0.60752794  0.10913675  0.08699214  1
  O  O197  1  0.60562121  0.11583852  0.58302763  1
  O  O198  1  0.59424311  0.60596092  0.07795970  1
  O  O199  1  0.60156429  0.62267559  0.58364121  1
  O  O200  1  0.93777027  0.13376347  0.08558055  1
  O  O201  1  0.94479473  0.13037705  0.57324905  1
  O  O202  1  0.94883852  0.61953214  0.08652380  1
  O  O203  1  0.95214946  0.61466260  0.57726300  1
  O  O204  1  0.11334813  0.37353929  0.08458831  1
  O  O205  1  0.10087858  0.38200082  0.58209184  1
  O  O206  1  0.11892179  0.85986862  0.08409897  1
  O  O207  1  0.10497958  0.86324410  0.58408851  1
  O  O208  1  0.45642292  0.36097643  0.07789472  1
  O  O209  1  0.43434998  0.37877432  0.58528058  1
  O  O210  1  0.44117884  0.86597542  0.08735598  1
  O  O211  1  0.43805295  0.87313691  0.58415296  1
  O  O212  1  0.78785847  0.37086278  0.07548239  1
  O  O213  1  0.76981770  0.36031808  0.58785696  1
  O  O214  1  0.76286794  0.86588477  0.07640731  1
  O  O215  1  0.77125110  0.86152884  0.58563478  1
  O  O216  1  0.27234680  0.39903550  0.07901804  1
  O  O217  1  0.26745145  0.37812125  0.58069345  1
  O  O218  1  0.27940502  0.88550513  0.08781201  1
  O  O219  1  0.27021624  0.86771721  0.58078677  1
  O  O220  1  0.61075490  0.40918918  0.08145639  1
  O  O221  1  0.60079568  0.37964620  0.58108684  1
  O  O222  1  0.60409792  0.88811682  0.08602268  1
  O  O223  1  0.60520408  0.88525587  0.58574317  1
  O  O224  1  0.95072682  0.37947542  0.08325161  1
  O  O225  1  0.93423028  0.37841155  0.58275323  1
  O  O226  1  0.95515951  0.88341580  0.07393147  1
  O  O227  1  0.93711267  0.87020432  0.58616477  1
  O  O228  1  0.10584488  0.12554066  0.08284037  1
  O  O229  1  0.10599551  0.14435375  0.57122879  1
  O  O230  1  0.11126106  0.63949300  0.08870954  1
  O  O231  1  0.11520071  0.63363896  0.58592523  1
  O  O232  1  0.43951848  0.12778778  0.08514430  1
  O  O233  1  0.44819032  0.13643009  0.58340379  1
  O  O234  1  0.43612131  0.63633344  0.08723442  1
  O  O235  1  0.43829385  0.62547435  0.58359848  1
  O  O236  1  0.77189193  0.13930597  0.08653216  1
  O  O237  1  0.76327896  0.13822234  0.57495870  1
  O  O238  1  0.78396335  0.62498861  0.07778910  1
  O  O239  1  0.76229346  0.64229730  0.57645267  1
  O  O240  1  0.06279871  0.12231339  0.41266606  1
  O  O241  1  0.05017176  0.09747753  0.91085552  1
  O  O242  1  0.04585429  0.60391357  0.42562224  1
  O  O243  1  0.06616731  0.62365366  0.91581027  1
  O  O244  1  0.39569098  0.11820675  0.41438004  1
  O  O245  1  0.39286240  0.09998255  0.91927942  1
  O  O246  1  0.39887286  0.62746753  0.41777554  1
  O  O247  1  0.38765614  0.61941816  0.91239341  1
  O  O248  1  0.72931427  0.13523650  0.41361771  1
  O  O249  1  0.71447517  0.12239886  0.92476999  1
  O  O250  1  0.72076143  0.60371217  0.41521492  1
  O  O251  1  0.70833324  0.59944348  0.91827873  1
  O  O252  1  0.22739766  0.35689758  0.41547929  1
  O  O253  1  0.23458729  0.36144462  0.92167822  1
  O  O254  1  0.22196732  0.86793382  0.41511062  1
  O  O255  1  0.22178008  0.86142873  0.91130342  1
  O  O256  1  0.56203224  0.37911277  0.41600360  1
  O  O257  1  0.55462524  0.37232403  0.91043671  1
  O  O258  1  0.53323346  0.85918573  0.42289267  1
  O  O259  1  0.54177718  0.86011647  0.92143554  1
  O  O260  1  0.89495705  0.36706725  0.41865678  1
  O  O261  1  0.87184696  0.34546463  0.91229385  1
  O  O262  1  0.88870586  0.86434393  0.43599467  1
  O  O263  1  0.89503811  0.85969642  0.91219145  1
  O  O264  1  0.06277618  0.37795793  0.41798046  1
  O  O265  1  0.05285324  0.40082280  0.93163488  1
  O  O266  1  0.06476538  0.89184140  0.42407891  1
  O  O267  1  0.05954383  0.88399323  0.91154765  1
  O  O268  1  0.39537730  0.37505612  0.41616383  1
  O  O269  1  0.39209386  0.39165845  0.91367206  1
  O  O270  1  0.37655739  0.89884042  0.41219696  1
  O  O271  1  0.38167782  0.89445516  0.91211308  1
  O  O272  1  0.72796441  0.37463041  0.41683512  1
  O  O273  1  0.71783152  0.38406068  0.91828087  1
  O  O274  1  0.70863996  0.89823024  0.43188349  1
  O  O275  1  0.73536347  0.88764662  0.92164288  1
  O  O276  1  0.22918156  0.13182535  0.41265726  1
  O  O277  1  0.21266385  0.13013143  0.92282353  1
  O  O278  1  0.23720198  0.64340986  0.42683015  1
  O  O279  1  0.22420771  0.65227070  0.91107183  1
  O  O280  1  0.56185443  0.12898469  0.41379760  1
  O  O281  1  0.55021270  0.13509730  0.91358759  1
  O  O282  1  0.56163331  0.61853555  0.41833465  1
  O  O283  1  0.54910030  0.63865499  0.91255844  1
  O  O284  1  0.89394857  0.14225534  0.41467354  1
  O  O285  1  0.90106747  0.14618797  0.92422263  1
  O  O286  1  0.88389822  0.62567427  0.41923064  1
  O  O287  1  0.90269139  0.64136333  0.92249463  1
  O  O288  1  0.17383457  -0.00410361  0.08579160  1
  O  O289  1  0.18167914  -0.01315820  0.57136256  1
  O  O290  1  0.17104173  0.50816038  0.08626827  1
  O  O291  1  0.18860504  0.50276048  0.58491269  1
  O  O292  1  0.50190958  -0.00137787  0.08720472  1
  O  O293  1  0.50728386  0.00156434  0.58353296  1
  O  O294  1  0.48416363  0.50105342  0.09037396  1
  O  O295  1  0.51544121  0.50175487  0.58110587  1
  O  O296  1  0.84552320  0.01528848  0.07469003  1
  O  O297  1  0.84470520  -0.01192668  0.57771361  1
  O  O298  1  0.86353448  0.49946479  0.08715693  1
  O  O299  1  0.82960917  0.48892613  0.57246635  1
  O  O300  1  0.03034005  0.25231264  0.08947591  1
  O  O301  1  0.01671048  0.25868642  0.57853700  1
  O  O302  1  0.01514762  0.75072967  0.08661811  1
  O  O303  1  0.01634433  0.74655074  0.58493818  1
  O  O304  1  0.33149620  0.23746934  0.07697923  1
  O  O305  1  0.35627334  0.25475834  0.58192515  1
  O  O306  1  0.34083173  0.75215352  0.08855636  1
  O  O307  1  0.35842589  0.74844246  0.58371088  1
  O  O308  1  0.65804779  0.24337646  0.07923144  1
  O  O309  1  0.66384694  0.24994602  0.58370413  1
  O  O310  1  0.65988659  0.75548570  0.07993849  1
  O  O311  1  0.66230589  0.75361188  0.58666860  1
  O  O312  1  0.16273298  0.00386410  0.41312972  1
  O  O313  1  0.16316849  -0.00506009  0.91218116  1
  O  O314  1  0.17337003  0.48670275  0.42851334  1
  O  O315  1  0.18032373  0.51751217  0.92140778  1
  O  O316  1  0.49004199  0.00110685  0.41480325  1
  O  O317  1  0.50097367  -0.00256939  0.91316322  1
  O  O318  1  0.47159504  0.49956711  0.41573146  1
  O  O319  1  0.48820341  0.50512650  0.91518261  1
  O  O320  1  0.82402207  0.01769217  0.42429492  1
  O  O321  1  0.84221533  -0.00659527  0.91918078  1
  O  O322  1  0.82011061  0.49356775  0.41549961  1
  O  O323  1  0.83708993  0.48497080  0.92778897  1
  O  O324  1  0.32862065  0.24649920  0.41410018  1
  O  O325  1  0.34479875  0.25666909  0.91824767  1
  O  O326  1  0.33228269  0.75846113  0.41509542  1
  O  O327  1  0.33442976  0.75582982  0.91129141  1
  O  O328  1  0.63760725  0.25356647  0.41426355  1
  O  O329  1  0.64292271  0.25234186  0.91509028  1
  O  O330  1  0.65804580  0.73469320  0.42672774  1
  O  O331  1  0.66767380  0.73704264  0.92268919  1
  O  O332  1  0.99333063  0.25141879  0.41106547  1
  O  O333  1  1.02462660  0.23874739  0.92239308  1
  O  O334  1  0.99020507  0.73618615  0.42587601  1
  O  O335  1  1.00361768  0.75274940  0.91292916  1
  O  O336  1  0.20979968  0.08000668  0.19472669  1
  O  O337  1  0.21121403  0.08037422  0.69530314  1
  O  O338  1  0.21316429  0.58776582  0.19775499  1
  O  O339  1  0.21347219  0.58483174  0.69503760  1
  O  O340  1  0.54136516  0.08257034  0.19579102  1
  O  O341  1  0.54293423  0.08096149  0.69483170  1
  O  O342  1  0.53879921  0.58462642  0.19544092  1
  O  O343  1  0.54217929  0.58322216  0.69434419  1
  O  O344  1  0.87567430  0.08619703  0.19299633  1
  O  O345  1  0.87883756  0.07973714  0.70084239  1
  O  O346  1  0.88152772  0.58683610  0.19487086  1
  O  O347  1  0.87951945  0.58407716  0.70000649  1
  O  O348  1  0.05260232  0.34243929  0.19563396  1
  O  O349  1  0.04580049  0.33679092  0.69130157  1
  O  O350  1  0.04932827  0.84082446  0.19193763  1
  O  O351  1  0.04453864  0.83000619  0.69439162  1
  O  O352  1  0.37851774  0.33336806  0.20006969  1
  O  O353  1  0.36643915  0.33509838  0.69218709  1
  O  O354  1  0.37710809  0.83393620  0.19771781  1
  O  O355  1  0.37453072  0.83236774  0.69276349  1
  O  O356  1  0.71008752  0.33395021  0.19993586  1
  O  O357  1  0.69678883  0.33228945  0.69377204  1
  O  O358  1  0.70699177  0.83393027  0.19210831  1
  O  O359  1  0.70930779  0.83372104  0.69510295  1
  O  O360  1  0.21445660  0.42551152  0.19406652  1
  O  O361  1  0.21155079  0.41914548  0.69282389  1
  O  O362  1  0.21187931  0.91624219  0.19603079  1
  O  O363  1  0.21160161  0.91299553  0.68973669  1
  O  O364  1  0.54155110  0.41695195  0.19368365  1
  O  O365  1  0.54540850  0.42398363  0.69210351  1
  O  O366  1  0.53944329  0.91744251  0.19655203  1
  O  O367  1  0.54272622  0.92038114  0.69415930  1
  O  O368  1  0.88258821  0.41198070  0.19249104  1
  O  O369  1  0.87775100  0.42316595  0.69147669  1
  O  O370  1  0.87792821  0.91941705  0.19815915  1
  O  O371  1  0.87534778  0.91170840  0.69341807  1
  O  O372  1  0.05078887  0.15932947  0.19356448  1
  O  O373  1  0.04845390  0.17226678  0.68728484  1
  O  O374  1  0.04578535  0.66802598  0.19859713  1
  O  O375  1  0.04579567  0.66528945  0.69363722  1
  O  O376  1  0.37684971  0.16328860  0.19297909  1
  O  O377  1  0.37702579  0.16656984  0.68964705  1
  O  O378  1  0.37474721  0.66842941  0.19790021  1
  O  O379  1  0.37861014  0.66662373  0.69409463  1
  O  O380  1  0.70493390  0.16641351  0.19431782  1
  O  O381  1  0.70642930  0.16496747  0.69177461  1
  O  O382  1  0.70925365  0.66591223  0.20285383  1
  O  O383  1  0.70680804  0.66721964  0.69331342  1
  O  O384  1  0.12508573  0.08382059  0.30387444  1
  O  O385  1  0.12659935  0.08003654  0.80420318  1
  O  O386  1  0.12564167  0.58280621  0.30292728  1
  O  O387  1  0.12689668  0.58808609  0.80540120  1
  O  O388  1  0.45670164  0.08330470  0.30457841  1
  O  O389  1  0.45464173  0.08001214  0.80396115  1
  O  O390  1  0.45441356  0.58356123  0.30659206  1
  O  O391  1  0.45420894  0.58499768  0.80359851  1
  O  O392  1  0.78890825  0.08796813  0.30592577  1
  O  O393  1  0.78620082  0.08112305  0.79985623  1
  O  O394  1  0.78742270  0.58056212  0.30610193  1
  O  O395  1  0.78893522  0.58317797  0.80020436  1
  O  O396  1  0.29492189  0.33199927  0.30518941  1
  O  O397  1  0.29169031  0.33546172  0.80621790  1
  O  O398  1  0.28811895  0.83568927  0.30507568  1
  O  O399  1  0.28925339  0.83411233  0.80224734  1
  O  O400  1  0.61884007  0.33528524  0.30547551  1
  O  O401  1  0.62975305  0.33242518  0.80626355  1
  O  O402  1  0.62064928  0.83234632  0.30052370  1
  O  O403  1  0.62291114  0.83169704  0.79920375  1
  O  O404  1  0.95238026  0.34134930  0.30696394  1
  O  O405  1  0.97116744  0.33153792  0.80068960  1
  O  O406  1  0.95523926  0.83394940  0.30110592  1
  O  O407  1  0.95903308  0.83157687  0.80228104  1
  O  O408  1  0.12544315  0.41860593  0.31013310  1
  O  O409  1  0.12449937  0.41988978  0.79888701  1
  O  O410  1  0.12362617  0.91852777  0.30670707  1
  O  O411  1  0.12456784  0.91373868  0.80151269  1
  O  O412  1  0.45606141  0.41783775  0.30577700  1
  O  O413  1  0.45138451  0.42656015  0.80426177  1
  O  O414  1  0.45421249  0.91787180  0.30695014  1
  O  O415  1  0.45292322  0.91723521  0.80531948  1
  O  O416  1  0.78686704  0.41067698  0.30687922  1
  O  O417  1  0.78346342  0.42352414  0.80987226  1
  O  O418  1  0.78714167  0.91792423  0.30121367  1
  O  O419  1  0.79213205  0.91398734  0.80634280  1
  O  O420  1  0.29441612  0.16395561  0.30372200  1
  O  O421  1  0.28671309  0.16598896  0.79593198  1
  O  O422  1  0.29227538  0.66935529  0.30965786  1
  O  O423  1  0.29182878  0.67004576  0.80239550  1
  O  O424  1  0.62008023  0.16883031  0.30399293  1
  O  O425  1  0.62008936  0.16454276  0.80681347  1
  O  O426  1  0.61957321  0.66303741  0.30902303  1
  O  O427  1  0.62281081  0.66368939  0.80667113  1
  O  O428  1  0.95388133  0.16102259  0.30412351  1
  O  O429  1  0.95901963  0.16873031  0.80849687  1
  O  O430  1  0.95261250  0.65931640  0.31175954  1
  O  O431  1  0.96063236  0.66791201  0.80659799  1
  F  F432  1  0.04623341  -0.00000776  0.20207741  1
  F  F433  1  0.04829884  -0.00982292  0.69530647  1
  F  F434  1  0.04725154  0.50147047  0.20250423  1
  F  F435  1  0.04740352  0.50473533  0.70047562  1
  F  F436  1  0.37875509  -0.00135862  0.20274255  1
  F  F437  1  0.37930803  -0.00083568  0.69927942  1
  F  F438  1  0.37759800  0.50302098  0.20453806  1
  F  F439  1  0.37691772  0.50234362  0.69846966  1
  F  F440  1  0.70870741  0.00269657  0.20260452  1
  F  F441  1  0.71003064  -0.00440888  0.70185263  1
  F  F442  1  0.70713406  0.50042562  0.20085838  1
  F  F443  1  0.70937770  0.49861502  0.70056594  1
  F  F444  1  0.21687791  0.24079647  0.19665311  1
  F  F445  1  0.21165796  0.25550751  0.69886474  1
  F  F446  1  0.21320982  0.75065723  0.20428436  1
  F  F447  1  0.21414243  0.74929681  0.69964102  1
  F  F448  1  0.54420931  0.24968758  0.20200353  1
  F  F449  1  0.54768026  0.23820787  0.69826282  1
  F  F450  1  0.54043084  0.74826365  0.20290447  1
  F  F451  1  0.54547877  0.74215083  0.69756233  1
  F  F452  1  0.86721163  0.25023488  0.19917710  1
  F  F453  1  0.88218549  0.23835728  0.69690755  1
  F  F454  1  0.87231686  0.74737469  0.20254851  1
  F  F455  1  0.87895458  0.74862071  0.70218495  1
  F  F456  1  0.28820397  0.00097902  0.29780808  1
  F  F457  1  0.28699438  -0.00450762  0.79430635  1
  F  F458  1  0.29088180  0.50008674  0.30134039  1
  F  F459  1  0.28883618  0.50305636  0.79611747  1
  F  F460  1  0.61980645  0.00254558  0.29871339  1
  F  F461  1  0.62087183  -0.00010224  0.79847502  1
  F  F462  1  0.61804639  0.49882894  0.29773454  1
  F  F463  1  0.61802218  0.50078005  0.79702682  1
  F  F464  1  0.95666840  0.00316110  0.29767990  1
  F  F465  1  0.95557330  -0.01068938  0.79948605  1
  F  F466  1  0.95858062  0.49880965  0.29869226  1
  F  F467  1  0.95782865  0.49963532  0.79866914  1
  F  F468  1  0.13912629  0.24481360  0.30639936  1
  F  F469  1  0.12397872  0.24774351  0.79395370  1
  F  F470  1  0.12976801  0.75219208  0.30413762  1
  F  F471  1  0.12375150  0.75037439  0.79535736  1
  F  F472  1  0.45530312  0.24731561  0.29820790  1
  F  F473  1  0.44824818  0.23985295  0.79884242  1
  F  F474  1  0.45313885  0.74974961  0.30000885  1
  F  F475  1  0.45214864  0.74561905  0.79903731  1
  F  F476  1  0.78603902  0.24788295  0.30013782  1
  F  F477  1  0.78057061  0.23605889  0.79939045  1
  F  F478  1  0.78734576  0.75145877  0.30064639  1
  F  F479  1  0.78796383  0.74866855  0.79587777  1
