# generated using pymatgen
data_K24Na3Li5Mg64Fe17Si79(O5F)48
_symmetry_space_group_name_H-M   'P 1'
_cell_length_a   16.09539928
_cell_length_b   18.58692718
_cell_length_c   20.54890303
_cell_angle_alpha   90.01788861
_cell_angle_beta   100.01881976
_cell_angle_gamma   89.98091383
_symmetry_Int_Tables_number   1
_chemical_formula_structural   K24Na3Li5Mg64Fe17Si79(O5F)48
_chemical_formula_sum   'K24 Na3 Li5 Mg64 Fe17 Si79 O240 F48'
_cell_volume   6053.74659309
_cell_formula_units_Z   1
loop_
 _symmetry_equiv_pos_site_id
 _symmetry_equiv_pos_as_xyz
  1  'x, y, z'
loop_
 _atom_site_type_symbol
 _atom_site_label
 _atom_site_symmetry_multiplicity
 _atom_site_fract_x
 _atom_site_fract_y
 _atom_site_fract_z
 _atom_site_occupancy
  K  K0  1  -0.01187509  0.00592610  -0.00867041  1
  K  K1  1  -0.00789018  0.00076033  0.50271486  1
  K  K2  1  0.00080070  0.49821169  0.00544819  1
  K  K3  1  -0.00924956  0.49689786  0.49926254  1
  K  K4  1  0.33922256  0.00805834  0.00237623  1
  K  K5  1  0.33335298  -0.00484644  0.49882047  1
  K  K6  1  0.32468417  0.49213095  0.01105980  1
  K  K7  1  0.33037614  0.49501612  0.49277793  1
  K  K8  1  0.67497009  0.00402570  0.00425471  1
  K  K9  1  0.66360668  0.00645112  0.50451211  1
  K  K10  1  0.66346388  0.49716573  0.00751524  1
  K  K11  1  0.67559592  0.49804770  0.48980468  1
  K  K12  1  0.15699974  0.25095838  0.00056547  1
  K  K13  1  0.16956234  0.26102279  0.49686537  1
  K  K14  1  0.16507906  0.73729875  0.00420037  1
  K  K15  1  0.16325274  0.75115358  0.49562109  1
  K  K16  1  0.51129678  0.24746575  0.00532258  1
  K  K17  1  0.49917523  0.26206212  0.49809417  1
  K  K18  1  0.51437639  0.74217021  0.00551670  1
  K  K19  1  0.49982473  0.75373664  0.49701613  1
  K  K20  1  0.83242469  0.25714901  -0.00485241  1
  K  K21  1  0.83389917  0.25298778  0.50196993  1
  K  K22  1  0.83322262  0.74521454  0.00241790  1
  K  K23  1  0.83573645  0.73650096  0.50493561  1
  Na  Na24  1  0.66813925  0.25028218  0.75750338  1
  Na  Na25  1  0.83278686  0.82548696  0.74438363  1
  Na  Na26  1  0.66289173  0.42066114  0.24886448  1
  Li  Li27  1  -0.00064089  0.25008498  0.25001837  1
  Li  Li28  1  0.50749843  0.49848479  0.25352243  1
  Li  Li29  1  0.83432081  0.66630627  0.74246263  1
  Li  Li30  1  0.83009282  0.66161296  0.25084365  1
  Li  Li31  1  -0.00817901  0.08514467  0.74838159  1
  Mg  Mg32  1  0.16641397  0.50092439  0.74684690  1
  Mg  Mg33  1  0.66990999  0.74919349  0.74683695  1
  Mg  Mg34  1  0.16832073  0.49839641  0.25168176  1
  Mg  Mg35  1  0.50151468  0.00015145  0.24712798  1
  Mg  Mg36  1  0.16395560  0.00221503  0.75195550  1
  Mg  Mg37  1  0.33291399  0.25179803  0.75111174  1
  Mg  Mg38  1  0.83484041  -0.00081274  0.74996057  1
  Mg  Mg39  1  0.16655062  0.00025911  0.25356428  1
  Mg  Mg40  1  0.50242288  0.49987152  0.75433715  1
  Mg  Mg41  1  0.83187892  0.50203779  0.25085312  1
  Mg  Mg42  1  0.83532117  0.50265538  0.75055052  1
  Mg  Mg43  1  -0.00163272  0.24632869  0.74960027  1
  Mg  Mg44  1  -0.00354761  0.74814496  0.24874090  1
  Mg  Mg45  1  0.50037318  0.00000418  0.74685046  1
  Mg  Mg46  1  0.33109298  0.74872932  0.25205110  1
  Mg  Mg47  1  0.33392032  0.25059828  0.25160656  1
  Mg  Mg48  1  0.66819932  0.74599200  0.24870709  1
  Mg  Mg49  1  0.66900845  0.25159169  0.24607894  1
  Mg  Mg50  1  0.33384552  0.75027893  0.74878488  1
  Mg  Mg51  1  -0.00174781  0.74797759  0.74477269  1
  Mg  Mg52  1  0.83328149  0.00231954  0.24503279  1
  Mg  Mg53  1  0.33525153  0.08393919  0.25192168  1
  Mg  Mg54  1  0.16535695  0.66662313  0.74629314  1
  Mg  Mg55  1  0.33309758  0.58414831  0.74908484  1
  Mg  Mg56  1  0.16748435  0.33188471  0.25376280  1
  Mg  Mg57  1  0.16340147  0.83509297  0.74744039  1
  Mg  Mg58  1  0.50064651  0.83477653  0.74639460  1
  Mg  Mg59  1  0.49923172  0.83313608  0.24925272  1
  Mg  Mg60  1  0.50171553  0.66599302  0.74998327  1
  Mg  Mg61  1  0.50187601  0.33486481  0.75480526  1
  Mg  Mg62  1  -0.00149795  0.41586499  0.74820207  1
  Mg  Mg63  1  0.33423568  0.58118874  0.25069322  1
  Mg  Mg64  1  0.16237140  0.16503758  0.75202121  1
  Mg  Mg65  1  0.66613133  0.58184324  0.24901670  1
  Mg  Mg66  1  0.83187343  0.83126433  0.24614574  1
  Mg  Mg67  1  0.00056509  0.41363637  0.25247434  1
  Mg  Mg68  1  0.83485292  0.33315939  0.24850710  1
  Mg  Mg69  1  -0.00437189  0.91842715  0.74703678  1
  Mg  Mg70  1  -0.00303678  0.58707436  0.74599489  1
  Mg  Mg71  1  -0.00157397  0.58394774  0.25178131  1
  Mg  Mg72  1  0.33244744  0.08490835  0.75112426  1
  Mg  Mg73  1  0.83493547  0.16788423  0.24531209  1
  Mg  Mg74  1  0.83575697  0.16447334  0.75194484  1
  Mg  Mg75  1  0.16482303  0.33491782  0.74790532  1
  Mg  Mg76  1  0.33279700  0.91605126  0.74828620  1
  Mg  Mg77  1  0.33135985  0.41710050  0.75143171  1
  Mg  Mg78  1  0.33718976  0.41492620  0.24909598  1
  Mg  Mg79  1  0.66586031  0.91496047  0.24539406  1
  Mg  Mg80  1  0.16687550  0.83343999  0.25290097  1
  Mg  Mg81  1  -0.00199044  0.08657736  0.24816463  1
  Mg  Mg82  1  0.50060096  0.33478102  0.25201746  1
  Mg  Mg83  1  0.50260871  0.16474247  0.24694023  1
  Mg  Mg84  1  0.66753507  0.08397069  0.74957096  1
  Mg  Mg85  1  0.16622152  0.16739753  0.25406420  1
  Mg  Mg86  1  0.49936844  0.66269485  0.24953562  1
  Mg  Mg87  1  0.33310900  0.91471063  0.25379005  1
  Mg  Mg88  1  0.67173715  0.58689319  0.74916309  1
  Mg  Mg89  1  0.66682744  0.08546297  0.24452150  1
  Mg  Mg90  1  0.83369393  0.33366521  0.75507584  1
  Mg  Mg91  1  -0.00214652  0.91648054  0.24878364  1
  Mg  Mg92  1  0.66554832  0.91499904  0.74585457  1
  Mg  Mg93  1  0.16671080  0.66405006  0.25204157  1
  Mg  Mg94  1  0.50108544  0.16732228  0.75170901  1
  Mg  Mg95  1  0.66893461  0.41762675  0.75673827  1
  Fe  Fe96  1  0.19333811  0.57981099  0.11234886  1
  Fe  Fe97  1  0.80509705  0.58376449  0.38921174  1
  Fe  Fe98  1  0.97350477  0.16734283  0.89129771  1
  Fe  Fe99  1  0.85165817  0.08319338  0.60924013  1
  Fe  Fe100  1  0.18945047  0.41941944  0.60955345  1
  Fe  Fe101  1  0.51940832  0.58681489  0.10845307  1
  Fe  Fe102  1  0.31225007  0.33466673  0.39254029  1
  Fe  Fe103  1  0.86619243  0.08545285  0.10571626  1
  Fe  Fe104  1  0.51383873  0.41643398  0.10769510  1
  Fe  Fe105  1  0.48487846  0.42030087  0.39356737  1
  Fe  Fe106  1  0.02966459  0.67185584  0.60620197  1
  Fe  Fe107  1  0.52320241  0.91743296  0.60598893  1
  Fe  Fe108  1  0.69699827  0.17374131  0.10475923  1
  Fe  Fe109  1  0.64243417  0.33381586  0.89656674  1
  Fe  Fe110  1  0.30681583  0.83264660  0.39288765  1
  Fe  Fe111  1  0.52617136  0.07972523  0.10564027  1
  Fe  Fe112  1  0.85847672  0.57993063  0.60866726  1
  Si  Si113  1  0.18884089  0.41076038  0.11338362  1
  Si  Si114  1  0.80361928  0.07619114  0.88829978  1
  Si  Si115  1  0.47595260  0.58950892  0.38684351  1
  Si  Si116  1  0.14636139  0.08181132  0.89001824  1
  Si  Si117  1  0.19176101  0.92030516  0.61474288  1
  Si  Si118  1  0.13590321  0.41659981  0.38878069  1
  Si  Si119  1  0.19530045  0.08287940  0.11849496  1
  Si  Si120  1  0.85268897  0.91626719  0.61127604  1
  Si  Si121  1  0.64142485  0.83256005  0.88412004  1
  Si  Si122  1  0.68848543  0.17092868  0.61496357  1
  Si  Si123  1  0.02497230  0.83388637  0.11516854  1
  Si  Si124  1  0.47542730  0.58490344  0.88608325  1
  Si  Si125  1  0.30768705  0.66168254  0.39050107  1
  Si  Si126  1  0.86290313  0.58257183  0.11570214  1
  Si  Si127  1  0.97272351  0.33027555  0.38503422  1
  Si  Si128  1  0.85596500  0.91469542  0.11015844  1
  Si  Si129  1  0.30400747  0.33382034  0.88660289  1
  Si  Si130  1  0.36143543  0.66371321  0.61586734  1
  Si  Si131  1  0.52583283  0.58329983  0.61516751  1
  Si  Si132  1  0.81263940  0.41218440  0.38645056  1
  Si  Si133  1  0.97652758  0.33962236  0.88888689  1
  Si  Si134  1  0.97429774  0.16579742  0.38495587  1
  Si  Si135  1  0.63674051  0.67256149  0.38650967  1
  Si  Si136  1  0.35555879  0.67364018  0.11216504  1
  Si  Si137  1  0.63917496  0.15710051  0.88782717  1
  Si  Si138  1  0.31118900  0.16138760  0.38968334  1
  Si  Si139  1  0.47418365  0.91530249  0.88456757  1
  Si  Si140  1  0.52073077  0.90808986  0.10970568  1
  Si  Si141  1  0.80994815  0.08089521  0.38355813  1
  Si  Si142  1  0.35275978  0.82886248  0.61203208  1
  Si  Si143  1  0.14006413  0.08365639  0.38732373  1
  Si  Si144  1  0.97979084  0.66901623  0.88512059  1
  Si  Si145  1  0.68926063  0.83101105  0.60920862  1
  Si  Si146  1  0.18847652  0.91981758  0.11633880  1
  Si  Si147  1  0.52167075  0.08861683  0.61213113  1
  Si  Si148  1  0.02804042  0.16220756  0.61346063  1
  Si  Si149  1  0.69080554  0.33548880  0.62082466  1
  Si  Si150  1  0.35214462  0.32401955  0.11170650  1
  Si  Si151  1  0.98001250  0.83302817  0.88327627  1
  Si  Si152  1  0.64679848  0.32509736  0.38765913  1
  Si  Si153  1  0.85458002  0.40897491  0.61455392  1
  Si  Si154  1  0.19637454  0.58825110  0.61125495  1
  Si  Si155  1  0.64242089  0.66733687  0.88481446  1
  Si  Si156  1  0.69390396  0.66271914  0.11143647  1
  Si  Si157  1  0.19747791  0.08641487  0.61579323  1
  Si  Si158  1  0.47891182  0.08313817  0.38513479  1
  Si  Si159  1  0.86464199  0.41745097  0.11528699  1
  Si  Si160  1  0.14073669  0.41933594  0.88485358  1
  Si  Si161  1  0.64546486  0.16287493  0.38506601  1
  Si  Si162  1  0.46888282  0.41819026  0.89041836  1
  Si  Si163  1  0.69454330  0.34120846  0.11175280  1
  Si  Si164  1  0.14430815  0.91617842  0.88623507  1
  Si  Si165  1  0.64264437  0.83632215  0.38279509  1
  Si  Si166  1  0.80675973  0.91682596  0.38124860  1
  Si  Si167  1  0.03584272  0.16516715  0.11575786  1
  Si  Si168  1  0.69182379  0.82835980  0.11187287  1
  Si  Si169  1  0.02245926  0.32726114  0.61286273  1
  Si  Si170  1  0.02480541  0.66807551  0.11284941  1
  Si  Si171  1  0.36412273  0.33733709  0.61693749  1
  Si  Si172  1  0.81161295  0.58968394  0.88487086  1
  Si  Si173  1  0.97692994  0.67132460  0.38601043  1
  Si  Si174  1  0.35176404  0.83533978  0.11570897  1
  Si  Si175  1  0.02678530  0.32967832  0.11815909  1
  Si  Si176  1  0.13409330  0.91870858  0.38871185  1
  Si  Si177  1  0.68704005  0.66667677  0.61012363  1
  Si  Si178  1  0.47868847  0.91919648  0.38600477  1
  Si  Si179  1  0.36020139  0.17218258  0.61728057  1
  Si  Si180  1  0.52867297  0.41932860  0.61868835  1
  Si  Si181  1  0.14371889  0.58432913  0.88438501  1
  Si  Si182  1  0.13750283  0.58291572  0.38718070  1
  Si  Si183  1  0.80822783  0.91189421  0.88233915  1
  Si  Si184  1  0.35613705  0.16314661  0.11373696  1
  Si  Si185  1  0.30866368  0.83265763  0.88499630  1
  Si  Si186  1  0.02178637  0.84210706  0.60974207  1
  Si  Si187  1  0.47140285  0.08130222  0.88518775  1
  Si  Si188  1  0.81183581  0.42526597  0.89108377  1
  Si  Si189  1  0.30811719  0.16770272  0.88708789  1
  Si  Si190  1  0.97048669  0.83545887  0.38286830  1
  Si  Si191  1  0.30913070  0.66752691  0.88463987  1
  O  O192  1  0.28060103  0.10266966  0.08933744  1
  O  O193  1  0.27775867  0.12212302  0.58743535  1
  O  O194  1  0.28183402  0.61999763  0.07577652  1
  O  O195  1  0.28984879  0.60407919  0.58880097  1
  O  O196  1  0.61425820  0.10862375  0.06689726  1
  O  O197  1  0.60311302  0.12284093  0.58489126  1
  O  O198  1  0.61401802  0.62026063  0.07100891  1
  O  O199  1  0.60378274  0.61436708  0.58259666  1
  O  O200  1  0.96976966  0.10721853  0.07899483  1
  O  O201  1  0.95285578  0.11016513  0.57892835  1
  O  O202  1  0.93739154  0.62371301  0.08336414  1
  O  O203  1  0.94885385  0.60725066  0.56893886  1
  O  O204  1  0.10681186  0.35849173  0.08524199  1
  O  O205  1  0.09789939  0.35833578  0.57817803  1
  O  O206  1  0.10615220  0.86924400  0.08641405  1
  O  O207  1  0.10118772  0.88483228  0.58334840  1
  O  O208  1  0.42797006  0.34601346  0.07378940  1
  O  O209  1  0.45224479  0.36244958  0.59220000  1
  O  O210  1  0.43633664  0.85646131  0.08484664  1
  O  O211  1  0.42709890  0.85841120  0.57611717  1
  O  O212  1  0.78071756  0.37213417  0.08430401  1
  O  O213  1  0.77392304  0.35437274  0.58775094  1
  O  O214  1  0.77138699  0.86466023  0.08311308  1
  O  O215  1  0.78147651  0.85197048  0.58868460  1
  O  O216  1  0.26852185  0.37484273  0.08426344  1
  O  O217  1  0.28944409  0.38877999  0.58146395  1
  O  O218  1  0.27284440  0.89163260  0.08782160  1
  O  O219  1  0.26591482  0.87615409  0.58576725  1
  O  O220  1  0.62180236  0.40018205  0.08665070  1
  O  O221  1  0.61285585  0.39139242  0.59103479  1
  O  O222  1  0.60150325  0.86876263  0.08236343  1
  O  O223  1  0.61731139  0.88527873  0.57081698  1
  O  O224  1  0.94455366  0.37983437  0.08674983  1
  O  O225  1  0.93454310  0.37150520  0.58609054  1
  O  O226  1  0.93856258  0.87745028  0.08415693  1
  O  O227  1  0.93925391  0.89290331  0.58261165  1
  O  O228  1  0.12595698  0.14427112  0.09012902  1
  O  O229  1  0.11443144  0.13374245  0.58524410  1
  O  O230  1  0.09816761  0.63662283  0.07666074  1
  O  O231  1  0.13676874  0.65461973  0.58267576  1
  O  O232  1  0.43180076  0.14064888  0.07583595  1
  O  O233  1  0.44121866  0.14364049  0.58687227  1
  O  O234  1  0.44084212  0.66330660  0.08203255  1
  O  O235  1  0.44597393  0.63753188  0.58780075  1
  O  O236  1  0.79048245  0.15225741  0.06697501  1
  O  O237  1  0.76258235  0.14831695  0.57460416  1
  O  O238  1  0.77792869  0.62845349  0.08543358  1
  O  O239  1  0.76387873  0.63863997  0.57666046  1
  O  O240  1  0.06258895  0.12283905  0.41666681  1
  O  O241  1  0.07308002  0.11372496  0.92573578  1
  O  O242  1  0.06507083  0.62767679  0.41721046  1
  O  O243  1  0.06649501  0.62202404  0.91601400  1
  O  O244  1  0.39609991  0.11030694  0.41543228  1
  O  O245  1  0.39442981  0.12151362  0.91442423  1
  O  O246  1  0.39101380  0.61252607  0.41834846  1
  O  O247  1  0.39915320  0.62802572  0.91409643  1
  O  O248  1  0.72777009  0.11075578  0.41352496  1
  O  O249  1  0.71649517  0.10056367  0.91443421  1
  O  O250  1  0.71181911  0.62202582  0.42293241  1
  O  O251  1  0.73355335  0.62976405  0.91519791  1
  O  O252  1  0.21816542  0.37425891  0.42500720  1
  O  O253  1  0.22256899  0.36820581  0.91455388  1
  O  O254  1  0.21318669  0.87242885  0.42546969  1
  O  O255  1  0.23096401  0.86966489  0.91530988  1
  O  O256  1  0.57677868  0.35788102  0.42686583  1
  O  O257  1  0.54743597  0.37269757  0.92827310  1
  O  O258  1  0.56324748  0.87058587  0.41267385  1
  O  O259  1  0.56459433  0.87510723  0.91336781  1
  O  O260  1  0.89501097  0.36118996  0.41854272  1
  O  O261  1  0.90194142  0.38372270  0.91808053  1
  O  O262  1  0.88703826  0.86480654  0.41105853  1
  O  O263  1  0.89699063  0.86727813  0.90988464  1
  O  O264  1  0.05547413  0.37878156  0.41604631  1
  O  O265  1  0.06176824  0.38920342  0.91664657  1
  O  O266  1  0.04688795  0.89095005  0.41304130  1
  O  O267  1  0.06508905  0.88036047  0.91644963  1
  O  O268  1  0.40114813  0.38635721  0.43820719  1
  O  O269  1  0.38313796  0.38631929  0.91531268  1
  O  O270  1  0.40222730  0.89162622  0.42103359  1
  O  O271  1  0.39810911  0.87390155  0.91462128  1
  O  O272  1  0.73458033  0.37023536  0.41286516  1
  O  O273  1  0.73968509  0.39089168  0.92701327  1
  O  O274  1  0.72499745  0.88720629  0.41077387  1
  O  O275  1  0.73246796  0.87021184  0.91431219  1
  O  O276  1  0.23110542  0.12102748  0.41694676  1
  O  O277  1  0.23456948  0.12761752  0.91963767  1
  O  O278  1  0.22843448  0.62048681  0.41710851  1
  O  O279  1  0.23111426  0.62935801  0.91379455  1
  O  O280  1  0.56261818  0.13184183  0.41459897  1
  O  O281  1  0.55712143  0.12297729  0.91700478  1
  O  O282  1  0.54665938  0.65393057  0.41121780  1
  O  O283  1  0.56539193  0.62617472  0.91404552  1
  O  O284  1  0.89515020  0.12766107  0.41482614  1
  O  O285  1  0.88268121  0.12332277  0.92398133  1
  O  O286  1  0.90035590  0.64295588  0.41958916  1
  O  O287  1  0.89862679  0.63546215  0.91449587  1
  O  O288  1  0.16668836  0.00193706  0.08847919  1
  O  O289  1  0.19021409  0.00352694  0.58645871  1
  O  O290  1  0.16877373  0.48734415  0.07608124  1
  O  O291  1  0.16182465  0.51251817  0.57823579  1
  O  O292  1  0.49953014  -0.01610031  0.07312429  1
  O  O293  1  0.49686349  0.01240185  0.57565252  1
  O  O294  1  0.47950909  0.50306575  0.06573184  1
  O  O295  1  0.50366747  0.50048217  0.58844798  1
  O  O296  1  0.83838729  -0.00951074  0.07338656  1
  O  O297  1  0.81964345  -0.00965162  0.57353122  1
  O  O298  1  0.85613125  0.50014554  0.08424768  1
  O  O299  1  0.83075139  0.48456769  0.57859216  1
  O  O300  1  0.00993747  0.24750330  0.08904076  1
  O  O301  1  0.00624646  0.24435938  0.58461209  1
  O  O302  1  0.00966071  0.75234870  0.08567002  1
  O  O303  1  0.00686710  0.76632298  0.57217792  1
  O  O304  1  0.31784227  0.24191879  0.08734051  1
  O  O305  1  0.34165376  0.25422400  0.59000656  1
  O  O306  1  0.31857366  0.75646100  0.08831479  1
  O  O307  1  0.33217541  0.74442442  0.58829704  1
  O  O308  1  0.66679249  0.26657094  0.07262964  1
  O  O309  1  0.65865656  0.25502107  0.59495864  1
  O  O310  1  0.68637036  0.74712240  0.08107893  1
  O  O311  1  0.66273711  0.74895448  0.58141484  1
  O  O312  1  0.14600466  0.00179981  0.41717976  1
  O  O313  1  0.16406319  -0.00285086  0.91684329  1
  O  O314  1  0.13890272  0.50069945  0.41599614  1
  O  O315  1  0.15937854  0.50192415  0.91366822  1
  O  O316  1  0.50279356  0.00170947  0.41297383  1
  O  O317  1  0.47681492  -0.00219914  0.91349668  1
  O  O318  1  0.51171594  0.51591344  0.42270353  1
  O  O319  1  0.47951900  0.50337522  0.91483993  1
  O  O320  1  0.82843652  -0.00196840  0.41175408  1
  O  O321  1  0.81970799  -0.00803868  0.91617143  1
  O  O322  1  0.82626650  0.48945508  0.42307704  1
  O  O323  1  0.82693718  0.50946553  0.91848103  1
  O  O324  1  0.32548317  0.23767239  0.42620704  1
  O  O325  1  0.31899000  0.25093328  0.91565078  1
  O  O326  1  0.32130320  0.73919681  0.42761060  1
  O  O327  1  0.31728410  0.75013385  0.91388423  1
  O  O328  1  0.66833059  0.24176880  0.41785289  1
  O  O329  1  0.66040347  0.23556651  0.91956907  1
  O  O330  1  0.65984794  0.75622955  0.41410224  1
  O  O331  1  0.64446992  0.75013087  0.91478171  1
  O  O332  1  0.98812670  0.24749473  0.41509351  1
  O  O333  1  0.99074018  0.26274633  0.92552597  1
  O  O334  1  0.99700087  0.75584288  0.41201486  1
  O  O335  1  0.99433794  0.75139107  0.91647336  1
  O  O336  1  0.21193779  0.08093313  0.19913638  1
  O  O337  1  0.21227412  0.08428866  0.69636894  1
  O  O338  1  0.21001165  0.58320610  0.20376756  1
  O  O339  1  0.21338180  0.58479032  0.69359922  1
  O  O340  1  0.54447005  0.08073985  0.19833360  1
  O  O341  1  0.53920836  0.08447270  0.69322679  1
  O  O342  1  0.54522114  0.58678382  0.19873038  1
  O  O343  1  0.54329814  0.58360890  0.69599906  1
  O  O344  1  0.87961468  0.08269366  0.19822378  1
  O  O345  1  0.87225381  0.08217849  0.69936638  1
  O  O346  1  0.88346722  0.58091494  0.19487947  1
  O  O347  1  0.87950528  0.57912815  0.69971668  1
  O  O348  1  0.04689896  0.33464014  0.19765553  1
  O  O349  1  0.04271437  0.33118991  0.69429423  1
  O  O350  1  0.04393890  0.83507204  0.19566679  1
  O  O351  1  0.04394212  0.83710604  0.69087231  1
  O  O352  1  0.37371601  0.32715547  0.19222523  1
  O  O353  1  0.37716426  0.33591671  0.69816464  1
  O  O354  1  0.37440827  0.83653355  0.19596137  1
  O  O355  1  0.37407604  0.83286909  0.69340985  1
  O  O356  1  0.71750423  0.32864979  0.19135716  1
  O  O357  1  0.71468762  0.34263065  0.69991504  1
  O  O358  1  0.70868452  0.83232578  0.19212554  1
  O  O359  1  0.69476374  0.83255943  0.68890133  1
  O  O360  1  0.20620990  0.41473498  0.19398556  1
  O  O361  1  0.21176771  0.41727075  0.70187381  1
  O  O362  1  0.20668974  0.91810497  0.19672334  1
  O  O363  1  0.21033916  0.91863241  0.69545657  1
  O  O364  1  0.52924924  0.41420885  0.19581297  1
  O  O365  1  0.54352758  0.42103013  0.69900212  1
  O  O366  1  0.54123605  0.91304466  0.19082148  1
  O  O367  1  0.54059757  0.91702550  0.69802552  1
  O  O368  1  0.88118042  0.41800005  0.19540538  1
  O  O369  1  0.87647695  0.41376368  0.69581752  1
  O  O370  1  0.87528506  0.91611450  0.19126836  1
  O  O371  1  0.87759493  0.92280613  0.69091012  1
  O  O372  1  0.05024087  0.16198020  0.19588313  1
  O  O373  1  0.04836472  0.16680539  0.69356833  1
  O  O374  1  0.04327909  0.66724717  0.19366716  1
  O  O375  1  0.04870960  0.66678926  0.69869800  1
  O  O376  1  0.37647789  0.16279623  0.19495413  1
  O  O377  1  0.37531262  0.16761355  0.69789216  1
  O  O378  1  0.37131963  0.66974122  0.19373059  1
  O  O379  1  0.37901867  0.66641341  0.69688733  1
  O  O380  1  0.71274644  0.16632403  0.19784485  1
  O  O381  1  0.71268398  0.16076860  0.69440197  1
  O  O382  1  0.70462339  0.66796638  0.19082485  1
  O  O383  1  0.70109869  0.66648742  0.69046891  1
  O  O384  1  0.12288124  0.08268876  0.30693659  1
  O  O385  1  0.13344495  0.08297406  0.80998852  1
  O  O386  1  0.12062326  0.58361727  0.30676577  1
  O  O387  1  0.12698377  0.58367679  0.80443282  1
  O  O388  1  0.45774592  0.08268889  0.30481924  1
  O  O389  1  0.45317094  0.08119425  0.80461904  1
  O  O390  1  0.45059802  0.59001514  0.30685072  1
  O  O391  1  0.45690928  0.58564216  0.80546220  1
  O  O392  1  0.79056151  0.08092944  0.30371147  1
  O  O393  1  0.78764710  0.07974581  0.80770012  1
  O  O394  1  0.78788598  0.58363123  0.29930877  1
  O  O395  1  0.78914192  0.58324748  0.80592672  1
  O  O396  1  0.28920389  0.33209193  0.30036954  1
  O  O397  1  0.28825647  0.33225185  0.80624099  1
  O  O398  1  0.28682539  0.83347247  0.30103790  1
  O  O399  1  0.29110644  0.83426569  0.80452395  1
  O  O400  1  0.62123849  0.32135491  0.30817230  1
  O  O401  1  0.61654211  0.34426043  0.80694151  1
  O  O402  1  0.62352619  0.83573787  0.30221701  1
  O  O403  1  0.62141735  0.83194037  0.80423069  1
  O  O404  1  0.95622800  0.33324797  0.30566804  1
  O  O405  1  0.95990375  0.33652439  0.80792247  1
  O  O406  1  0.95447169  0.83538113  0.30232839  1
  O  O407  1  0.97025448  0.83161488  0.80425308  1
  O  O408  1  0.12258891  0.41626406  0.30790603  1
  O  O409  1  0.12273227  0.41765898  0.80471939  1
  O  O410  1  0.12145184  0.91706135  0.30764233  1
  O  O411  1  0.12715639  0.91604891  0.80597345  1
  O  O412  1  0.45229909  0.41138497  0.30379155  1
  O  O413  1  0.45316466  0.41816440  0.80908199  1
  O  O414  1  0.45844190  0.91743616  0.30484281  1
  O  O415  1  0.45402931  0.91512658  0.80427576  1
  O  O416  1  0.80272135  0.41539247  0.30688185  1
  O  O417  1  0.79312345  0.42126284  0.81013826  1
  O  O418  1  0.78995433  0.91697165  0.30075066  1
  O  O419  1  0.78370983  0.91775954  0.80349778  1
  O  O420  1  0.29197278  0.16298152  0.30860928  1
  O  O421  1  0.28958598  0.16730473  0.80652858  1
  O  O422  1  0.28869270  0.66797901  0.30964360  1
  O  O423  1  0.29136966  0.66774295  0.80413527  1
  O  O424  1  0.62513202  0.16265534  0.30519963  1
  O  O425  1  0.61613478  0.15533939  0.80771469  1
  O  O426  1  0.62261743  0.67232163  0.30595922  1
  O  O427  1  0.62191643  0.66685078  0.80474209  1
  O  O428  1  0.95628960  0.16283413  0.30580371  1
  O  O429  1  0.95745411  0.16827068  0.80124900  1
  O  O430  1  0.96270661  0.66876650  0.30576273  1
  O  O431  1  0.96631291  0.66831513  0.80635958  1
  F  F432  1  0.04700643  -0.00153309  0.20373640  1
  F  F433  1  0.04976584  -0.00254042  0.70302794  1
  F  F434  1  0.04638446  0.49931172  0.20429939  1
  F  F435  1  0.04604979  0.49895271  0.70210907  1
  F  F436  1  0.37684559  -0.00190447  0.20424654  1
  F  F437  1  0.37584808  0.00072806  0.70143688  1
  F  F438  1  0.36333780  0.50026064  0.19805583  1
  F  F439  1  0.38110130  0.50047705  0.70547361  1
  F  F440  1  0.71146146  -0.00244842  0.19832563  1
  F  F441  1  0.70879958  -0.00034819  0.70134953  1
  F  F442  1  0.71886491  0.50844369  0.19476037  1
  F  F443  1  0.71136629  0.50034202  0.70544144  1
  F  F444  1  0.21177779  0.24562233  0.20390131  1
  F  F445  1  0.21256949  0.24874062  0.70333687  1
  F  F446  1  0.20809804  0.74947932  0.20263268  1
  F  F447  1  0.21481079  0.75307009  0.70211630  1
  F  F448  1  0.54565592  0.24782717  0.20161696  1
  F  F449  1  0.53097763  0.25085012  0.70259129  1
  F  F450  1  0.54466830  0.75211450  0.20238318  1
  F  F451  1  0.54234361  0.74867309  0.70226080  1
  F  F452  1  0.88040903  0.25067864  0.20144059  1
  F  F453  1  0.87827060  0.25374766  0.70199943  1
  F  F454  1  0.88183201  0.75608430  0.19648903  1
  F  F455  1  0.88675925  0.74010125  0.69272321  1
  F  F456  1  0.28841335  -0.00065133  0.30117389  1
  F  F457  1  0.28924270  -0.00090299  0.79852485  1
  F  F458  1  0.28726642  0.49705675  0.30166168  1
  F  F459  1  0.28874219  0.50399496  0.80029266  1
  F  F460  1  0.62350979  -0.00380534  0.29554656  1
  F  F461  1  0.61874946  -0.00146487  0.79729271  1
  F  F462  1  0.62501194  0.51079572  0.30668373  1
  F  F463  1  0.62212410  0.50666921  0.80144827  1
  F  F464  1  0.95483821  -0.00228346  0.29790579  1
  F  F465  1  0.95277031  -0.00938769  0.80335775  1
  F  F466  1  0.95747429  0.49983215  0.29961917  1
  F  F467  1  0.95911673  0.49876427  0.79962633  1
  F  F468  1  0.12766493  0.24826550  0.30352947  1
  F  F469  1  0.12263303  0.25147923  0.79846499  1
  F  F470  1  0.11884764  0.75051132  0.29783748  1
  F  F471  1  0.12699363  0.75230294  0.79741924  1
  F  F472  1  0.45470564  0.24436243  0.29714746  1
  F  F473  1  0.45106076  0.24926052  0.80236106  1
  F  F474  1  0.45281737  0.75255784  0.29666864  1
  F  F475  1  0.45443592  0.75154880  0.79821924  1
  F  F476  1  0.79103522  0.24925252  0.29854867  1
  F  F477  1  0.80307581  0.24946003  0.80477976  1
  F  F478  1  0.78608559  0.75617200  0.29682995  1
  F  F479  1  0.77925141  0.74260498  0.80260815  1
