# generated using pymatgen
data_K24Na3Li5Mg64Fe17Si79(O5F)48
_symmetry_space_group_name_H-M   'P 1'
_cell_length_a   16.09576749
_cell_length_b   18.60707155
_cell_length_c   20.56369014
_cell_angle_alpha   90.00188616
_cell_angle_beta   100.03319299
_cell_angle_gamma   90.01024726
_symmetry_Int_Tables_number   1
_chemical_formula_structural   K24Na3Li5Mg64Fe17Si79(O5F)48
_chemical_formula_sum   'K24 Na3 Li5 Mg64 Fe17 Si79 O240 F48'
_cell_volume   6064.53883065
_cell_formula_units_Z   1
loop_
 _symmetry_equiv_pos_site_id
 _symmetry_equiv_pos_as_xyz
  1  'x, y, z'
loop_
 _atom_site_type_symbol
 _atom_site_label
 _atom_site_symmetry_multiplicity
 _atom_site_fract_x
 _atom_site_fract_y
 _atom_site_fract_z
 _atom_site_occupancy
  K  K0  1  0.00199951  -0.00509912  0.00177535  1
  K  K1  1  0.00348139  0.00069735  0.49988694  1
  K  K2  1  0.00621197  0.49716010  -0.00566999  1
  K  K3  1  0.00298847  0.49950945  0.50455471  1
  K  K4  1  0.32317547  0.00477131  0.00038854  1
  K  K5  1  0.33573001  0.00209900  0.49868602  1
  K  K6  1  0.32127152  0.50219313  -0.00778330  1
  K  K7  1  0.32693978  0.49940036  0.51019298  1
  K  K8  1  0.66423741  0.00674466  -0.00213370  1
  K  K9  1  0.66737991  0.00296777  0.49903242  1
  K  K10  1  0.66146841  0.50303390  -0.00551828  1
  K  K11  1  0.66978828  0.50071989  0.50858174  1
  K  K12  1  0.16225372  0.25067145  -0.00480487  1
  K  K13  1  0.15432135  0.24217317  0.49686911  1
  K  K14  1  0.16243915  0.75722329  -0.00655364  1
  K  K15  1  0.16369018  0.75904245  0.50857041  1
  K  K16  1  0.50412134  0.24479594  -0.00443473  1
  K  K17  1  0.49794433  0.23757037  0.50737672  1
  K  K18  1  0.49673850  0.75930750  -0.00961457  1
  K  K19  1  0.49482615  0.75807997  0.50525544  1
  K  K20  1  0.83362776  0.24065574  -0.00445512  1
  K  K21  1  0.84407767  0.23449723  0.50761064  1
  K  K22  1  0.83438527  0.75748940  -0.00517322  1
  K  K23  1  0.83736931  0.75242039  0.50041481  1
  Na  Na24  1  0.16622379  -0.00020387  0.25080931  1
  Na  Na25  1  0.33152292  0.41926197  0.75597247  1
  Na  Na26  1  0.16650396  0.83231329  0.74076211  1
  Li  Li27  1  0.00126191  0.24770385  0.24908852  1
  Li  Li28  1  0.50271196  -0.00020838  0.74975956  1
  Li  Li29  1  0.00130945  0.58238528  0.24801219  1
  Li  Li30  1  0.83277020  0.83521689  0.74018383  1
  Li  Li31  1  0.83636612  0.83728447  0.25670570  1
  Mg  Mg32  1  0.66817354  0.75076821  0.74908895  1
  Mg  Mg33  1  -0.00246404  0.74832676  0.24900993  1
  Mg  Mg34  1  0.49957067  -0.00112349  0.25212356  1
  Mg  Mg35  1  0.16773923  -0.00076708  0.74614006  1
  Mg  Mg36  1  0.67189004  0.75186628  0.25380984  1
  Mg  Mg37  1  0.33485763  0.25080338  0.24943343  1
  Mg  Mg38  1  0.67085103  0.24988663  0.24745609  1
  Mg  Mg39  1  0.83030724  0.49988310  0.75392814  1
  Mg  Mg40  1  0.33144127  0.24914223  0.75392611  1
  Mg  Mg41  1  0.83377357  -0.00341544  0.74587541  1
  Mg  Mg42  1  0.16569848  0.49914698  0.24532396  1
  Mg  Mg43  1  0.83981044  0.50091088  0.24958049  1
  Mg  Mg44  1  0.33258968  0.75376445  0.74571810  1
  Mg  Mg45  1  -0.00411728  0.75075476  0.74765118  1
  Mg  Mg46  1  0.16348781  0.50031020  0.75304349  1
  Mg  Mg47  1  -0.00324448  0.24745882  0.75022446  1
  Mg  Mg48  1  0.83357738  -0.00263162  0.25227830  1
  Mg  Mg49  1  0.49590696  0.50003581  0.75268882  1
  Mg  Mg50  1  0.50278632  0.50147975  0.24964686  1
  Mg  Mg51  1  0.66292738  0.24911822  0.75410809  1
  Mg  Mg52  1  0.33192779  0.75146310  0.24940550  1
  Mg  Mg53  1  0.49893751  0.33329441  0.75619416  1
  Mg  Mg54  1  0.67069452  0.91457757  0.25379681  1
  Mg  Mg55  1  0.67131386  0.41714406  0.24949677  1
  Mg  Mg56  1  0.66821317  0.91561816  0.74653994  1
  Mg  Mg57  1  0.49793248  0.66726445  0.74870274  1
  Mg  Mg58  1  0.16464109  0.16803675  0.25256647  1
  Mg  Mg59  1  0.00217790  0.08411949  0.25214960  1
  Mg  Mg60  1  -0.00162282  0.91413701  0.74381705  1
  Mg  Mg61  1  0.33287456  0.91706832  0.25151567  1
  Mg  Mg62  1  0.16494623  0.16551469  0.75000712  1
  Mg  Mg63  1  0.83255486  0.33256592  0.75475848  1
  Mg  Mg64  1  0.50263119  0.33539704  0.24813871  1
  Mg  Mg65  1  0.33196481  0.58421741  0.24726505  1
  Mg  Mg66  1  0.16483794  0.83432731  0.24946152  1
  Mg  Mg67  1  0.16444002  0.33434799  0.24581428  1
  Mg  Mg68  1  0.66425299  0.08200636  0.75340914  1
  Mg  Mg69  1  0.32944835  0.58637992  0.74978728  1
  Mg  Mg70  1  0.83596248  0.16617747  0.24959261  1
  Mg  Mg71  1  0.83138466  0.16247047  0.75094760  1
  Mg  Mg72  1  -0.00172628  0.41380368  0.75288034  1
  Mg  Mg73  1  -0.00209820  0.08278788  0.74895717  1
  Mg  Mg74  1  0.50112884  0.83455541  0.25319058  1
  Mg  Mg75  1  0.50206887  0.16589730  0.24915935  1
  Mg  Mg76  1  0.66918243  0.08402216  0.24975509  1
  Mg  Mg77  1  0.50124298  0.16349192  0.75606215  1
  Mg  Mg78  1  0.83845820  0.33288458  0.24804250  1
  Mg  Mg79  1  0.50170633  0.66707231  0.25034339  1
  Mg  Mg80  1  0.33237255  0.41644199  0.24566827  1
  Mg  Mg81  1  0.16305930  0.66384972  0.24789992  1
  Mg  Mg82  1  0.83040570  0.66698299  0.75229598  1
  Mg  Mg83  1  0.33252542  0.08496639  0.25185999  1
  Mg  Mg84  1  0.83842606  0.66688794  0.24973743  1
  Mg  Mg85  1  0.33571663  0.08354879  0.75302514  1
  Mg  Mg86  1  0.16544367  0.33338391  0.75253666  1
  Mg  Mg87  1  -0.00236276  0.91441800  0.25226858  1
  Mg  Mg88  1  0.66562835  0.41501711  0.75728578  1
  Mg  Mg89  1  0.50075744  0.83795963  0.74512691  1
  Mg  Mg90  1  0.16265458  0.66657543  0.74741753  1
  Mg  Mg91  1  0.67113301  0.58526275  0.25007326  1
  Mg  Mg92  1  0.00188811  0.41660912  0.24726885  1
  Mg  Mg93  1  0.66584455  0.58385232  0.75069525  1
  Mg  Mg94  1  -0.00214073  0.58465805  0.75066085  1
  Mg  Mg95  1  0.33744470  0.91884189  0.74523059  1
  Fe  Fe96  1  0.36352498  0.83678166  0.60532810  1
  Fe  Fe97  1  0.19172770  0.41355770  0.10647356  1
  Fe  Fe98  1  0.80792085  0.91702255  0.39271371  1
  Fe  Fe99  1  0.97178813  0.32588218  0.89136347  1
  Fe  Fe100  1  0.14019522  0.58701063  0.88818268  1
  Fe  Fe101  1  0.80857015  0.58685766  0.89025402  1
  Fe  Fe102  1  0.85149236  0.07888742  0.60801990  1
  Fe  Fe103  1  0.63882792  0.34005671  0.89584757  1
  Fe  Fe104  1  0.46903347  0.91590775  0.39068241  1
  Fe  Fe105  1  0.14211810  0.08166963  0.39357673  1
  Fe  Fe106  1  0.69467816  0.82968334  0.60884963  1
  Fe  Fe107  1  0.69259127  0.16647392  0.10995534  1
  Fe  Fe108  1  0.19231240  0.91870540  0.10914023  1
  Fe  Fe109  1  0.30561489  0.16668025  0.89199975  1
  Fe  Fe110  1  0.64360274  0.16585483  0.89455251  1
  Fe  Fe111  1  0.02419013  0.83401650  0.60396357  1
  Fe  Fe112  1  0.02498090  0.16674443  0.60922780  1
  Si  Si113  1  0.53245782  0.42175932  0.11546512  1
  Si  Si114  1  0.19668870  0.08707808  0.61319427  1
  Si  Si115  1  0.31315457  0.33665962  0.38474044  1
  Si  Si116  1  0.47976591  0.91719918  0.88374526  1
  Si  Si117  1  0.02025355  0.66097598  0.60886940  1
  Si  Si118  1  0.68385920  0.66146027  0.61086059  1
  Si  Si119  1  0.85849498  0.91525100  0.11722989  1
  Si  Si120  1  0.37020130  0.33415725  0.11171176  1
  Si  Si121  1  0.30652076  0.33353431  0.88856537  1
  Si  Si122  1  0.63557999  0.66717950  0.88672556  1
  Si  Si123  1  0.53458105  0.92208781  0.60990005  1
  Si  Si124  1  0.97399559  0.82552618  0.38700817  1
  Si  Si125  1  0.13650076  0.90687543  0.38745500  1
  Si  Si126  1  0.97077484  0.17025702  0.38590897  1
  Si  Si127  1  0.31187302  0.17189615  0.38865822  1
  Si  Si128  1  0.52862504  0.91190614  0.11668675  1
  Si  Si129  1  0.85826085  0.91447068  0.60823690  1
  Si  Si130  1  0.80824527  0.08836941  0.38744785  1
  Si  Si131  1  0.81226503  0.91177701  0.88178642  1
  Si  Si132  1  0.52621413  0.08641764  0.61756999  1
  Si  Si133  1  0.02076816  0.83088245  0.11202810  1
  Si  Si134  1  0.64165737  0.17135443  0.38484571  1
  Si  Si135  1  0.02149030  0.33004793  0.11266092  1
  Si  Si136  1  0.86033358  0.41792648  0.11311908  1
  Si  Si137  1  0.19818699  0.92478464  0.60757758  1
  Si  Si138  1  0.68846779  0.17105822  0.61396483  1
  Si  Si139  1  0.69396521  0.66755648  0.11434648  1
  Si  Si140  1  0.36249181  0.83139510  0.11228609  1
  Si  Si141  1  0.02482189  0.16692719  0.11687637  1
  Si  Si142  1  0.64647668  0.66416288  0.38577806  1
  Si  Si143  1  0.35570734  0.32915486  0.61800086  1
  Si  Si144  1  0.18934306  0.58674914  0.11083697  1
  Si  Si145  1  0.85377780  0.58151733  0.61478833  1
  Si  Si146  1  0.97272309  0.15710024  0.88865215  1
  Si  Si147  1  0.81249790  0.58213090  0.38540062  1
  Si  Si148  1  0.85252989  0.41730326  0.61626869  1
  Si  Si149  1  0.64319589  0.83297038  0.88383751  1
  Si  Si150  1  0.46847634  0.58869116  0.88552790  1
  Si  Si151  1  0.80898805  0.41950761  0.89109072  1
  Si  Si152  1  0.52050164  0.57826557  0.61514157  1
  Si  Si153  1  0.02288466  0.66698215  0.11485275  1
  Si  Si154  1  0.52659645  0.58619253  0.11480729  1
  Si  Si155  1  0.64508741  0.33636591  0.38455805  1
  Si  Si156  1  0.52298067  0.07689357  0.11446843  1
  Si  Si157  1  0.19031771  0.57953852  0.61360152  1
  Si  Si158  1  0.47814537  0.08856612  0.38753994  1
  Si  Si159  1  0.14545842  0.57970706  0.38357937  1
  Si  Si160  1  0.13725680  0.07988644  0.88646641  1
  Si  Si161  1  0.36226659  0.16614612  0.61745492  1
  Si  Si162  1  0.69318667  0.83280676  0.11666375  1
  Si  Si163  1  0.81231164  0.41749592  0.38523010  1
  Si  Si164  1  0.30103786  0.82768538  0.38748084  1
  Si  Si165  1  0.18833868  0.41504270  0.61641734  1
  Si  Si166  1  0.47833311  0.41862041  0.38452555  1
  Si  Si167  1  0.63727915  0.82889722  0.39013970  1
  Si  Si168  1  0.69393919  0.33858634  0.11369611  1
  Si  Si169  1  0.35513768  0.66449496  0.61107694  1
  Si  Si170  1  0.30661296  0.67483215  0.88560390  1
  Si  Si171  1  0.86429067  0.08009217  0.11453155  1
  Si  Si172  1  0.98036600  0.83527958  0.88173868  1
  Si  Si173  1  0.19316140  0.09476915  0.11356597  1
  Si  Si174  1  0.47847047  0.58370936  0.38494710  1
  Si  Si175  1  0.01986576  0.33781891  0.61192577  1
  Si  Si176  1  0.80747659  0.07463405  0.88790359  1
  Si  Si177  1  0.97967363  0.66197628  0.38376624  1
  Si  Si178  1  0.31009480  0.66278926  0.38479646  1
  Si  Si179  1  0.68680588  0.33564093  0.61758745  1
  Si  Si180  1  0.14172538  0.41532397  0.88923595  1
  Si  Si181  1  0.46905192  0.42247108  0.89077102  1
  Si  Si182  1  0.14435193  0.91823592  0.88139221  1
  Si  Si183  1  0.35913109  0.66668621  0.11414535  1
  Si  Si184  1  0.47117057  0.08086438  0.89157053  1
  Si  Si185  1  0.31389880  0.83844988  0.88225583  1
  Si  Si186  1  0.97696476  0.33633880  0.38346598  1
  Si  Si187  1  0.14444173  0.41569443  0.38441259  1
  Si  Si188  1  0.51887451  0.41440538  0.61707469  1
  Si  Si189  1  0.85820821  0.58301946  0.11437638  1
  Si  Si190  1  0.36277083  0.16809688  0.11540686  1
  Si  Si191  1  0.97223814  0.67215130  0.88864161  1
  O  O192  1  0.27107911  0.13473223  0.08342116  1
  O  O193  1  0.28513449  0.11218931  0.58778011  1
  O  O194  1  0.27256443  0.62303385  0.08504806  1
  O  O195  1  0.26909538  0.61558122  0.58348583  1
  O  O196  1  0.59796704  0.10763066  0.08004368  1
  O  O197  1  0.60200774  0.12476231  0.58483902  1
  O  O198  1  0.60567275  0.62278904  0.08554057  1
  O  O199  1  0.60290821  0.60538466  0.58442769  1
  O  O200  1  0.95020457  0.10868171  0.08798293  1
  O  O201  1  0.93976988  0.10855031  0.56699713  1
  O  O202  1  0.93898920  0.61737088  0.08603683  1
  O  O203  1  0.93372002  0.61130143  0.58220674  1
  O  O204  1  0.09883424  0.35392377  0.07631546  1
  O  O205  1  0.09815719  0.37836112  0.58192642  1
  O  O206  1  0.09345753  0.86428035  0.07567701  1
  O  O207  1  0.12256092  0.86979013  0.57779355  1
  O  O208  1  0.45478229  0.36835364  0.08669071  1
  O  O209  1  0.43308143  0.36823920  0.58586606  1
  O  O210  1  0.45003043  0.85842212  0.08727190  1
  O  O211  1  0.45856714  0.87016553  0.57388446  1
  O  O212  1  0.77584331  0.37065669  0.08511308  1
  O  O213  1  0.76545881  0.37168367  0.58590102  1
  O  O214  1  0.77124043  0.86994219  0.08726556  1
  O  O215  1  0.79819649  0.84528746  0.58281739  1
  O  O216  1  0.28968536  0.37924661  0.07646233  1
  O  O217  1  0.26792121  0.37443197  0.58933066  1
  O  O218  1  0.28505818  0.87857601  0.07448795  1
  O  O219  1  0.27874436  0.90261715  0.57328129  1
  O  O220  1  0.61838565  0.39851320  0.08951815  1
  O  O221  1  0.60090192  0.38296808  0.58739135  1
  O  O222  1  0.60832870  0.87948229  0.08487165  1
  O  O223  1  0.61756733  0.90323104  0.57778125  1
  O  O224  1  0.93936260  0.38268416  0.08446230  1
  O  O225  1  0.93362271  0.38754135  0.58561516  1
  O  O226  1  0.93213802  0.87493318  0.08434536  1
  O  O227  1  0.94275811  0.90372941  0.57454874  1
  O  O228  1  0.10897096  0.14479022  0.08569098  1
  O  O229  1  0.12693286  0.14455419  0.58046266  1
  O  O230  1  0.10600662  0.63787705  0.08546597  1
  O  O231  1  0.09901488  0.61628669  0.58229653  1
  O  O232  1  0.43425979  0.12030934  0.08731077  1
  O  O233  1  0.44362859  0.13698287  0.58678156  1
  O  O234  1  0.43962715  0.62992810  0.08610607  1
  O  O235  1  0.43442808  0.62241118  0.58358890  1
  O  O236  1  0.78654796  0.12911301  0.07861875  1
  O  O237  1  0.76213796  0.14477247  0.57609501  1
  O  O238  1  0.77132872  0.62926237  0.08434127  1
  O  O239  1  0.76632553  0.62456927  0.58377499  1
  O  O240  1  0.04851828  0.12362284  0.42479697  1
  O  O241  1  0.04724858  0.09666686  0.91175066  1
  O  O242  1  0.06469430  0.61344016  0.41257516  1
  O  O243  1  0.04629385  0.61802123  0.92343527  1
  O  O244  1  0.40104218  0.12921246  0.41644509  1
  O  O245  1  0.38831499  0.09834326  0.92492580  1
  O  O246  1  0.39804846  0.61763107  0.41364799  1
  O  O247  1  0.38991948  0.62444570  0.91520965  1
  O  O248  1  0.72457883  0.12393948  0.41395596  1
  O  O249  1  0.73107433  0.09944591  0.92390791  1
  O  O250  1  0.73118786  0.61563555  0.41426736  1
  O  O251  1  0.71045864  0.61627605  0.92326511  1
  O  O252  1  0.23337547  0.37301687  0.41388412  1
  O  O253  1  0.22103362  0.35983186  0.91603193  1
  O  O254  1  0.21212154  0.84678548  0.41208181  1
  O  O255  1  0.23084470  0.87083549  0.91000845  1
  O  O256  1  0.56596710  0.37449441  0.41373669  1
  O  O257  1  0.54364899  0.37470417  0.93223552  1
  O  O258  1  0.55009142  0.84416006  0.41702136  1
  O  O259  1  0.56555175  0.86977249  0.91543856  1
  O  O260  1  0.90011417  0.37557403  0.41572341  1
  O  O261  1  0.87250590  0.35417217  0.92033172  1
  O  O262  1  0.89472766  0.84968199  0.42014973  1
  O  O263  1  0.89815833  0.86536156  0.91265627  1
  O  O264  1  0.06591775  0.37926918  0.41462064  1
  O  O265  1  0.06185678  0.38852238  0.92148260  1
  O  O266  1  0.05591339  0.87520766  0.41869800  1
  O  O267  1  0.06500508  0.88355140  0.91294358  1
  O  O268  1  0.39860046  0.38484937  0.41453010  1
  O  O269  1  0.37746197  0.39835499  0.91022700  1
  O  O270  1  0.37353539  0.88146678  0.42259879  1
  O  O271  1  0.39968566  0.88366234  0.91589859  1
  O  O272  1  0.73146014  0.38195234  0.41395181  1
  O  O273  1  0.71999941  0.41270939  0.91835099  1
  O  O274  1  0.71088730  0.88266282  0.42353719  1
  O  O275  1  0.73325444  0.87408741  0.91290470  1
  O  O276  1  0.23889028  0.14064628  0.42489743  1
  O  O277  1  0.20716571  0.13578897  0.92313564  1
  O  O278  1  0.23359554  0.62272613  0.41521654  1
  O  O279  1  0.23067257  0.64919181  0.92188545  1
  O  O280  1  0.56068345  0.14137336  0.41479598  1
  O  O281  1  0.54828986  0.13167040  0.92666618  1
  O  O282  1  0.56602460  0.62711755  0.41435705  1
  O  O283  1  0.54958327  0.64005021  0.91464920  1
  O  O284  1  0.88265959  0.14802803  0.41207919  1
  O  O285  1  0.89083837  0.12419736  0.91723011  1
  O  O286  1  0.90033177  0.62478215  0.41492673  1
  O  O287  1  0.88805448  0.65815084  0.92072359  1
  O  O288  1  0.17815777  0.01577937  0.08026515  1
  O  O289  1  0.17109205  0.00777430  0.58109732  1
  O  O290  1  0.17288156  0.50936470  0.07621912  1
  O  O291  1  0.18595562  0.49661388  0.58356693  1
  O  O292  1  0.50519367  -0.00708407  0.08834326  1
  O  O293  1  0.50766913  0.00644180  0.58607116  1
  O  O294  1  0.51193136  0.50382378  0.08687033  1
  O  O295  1  0.50230662  0.49572686  0.58557103  1
  O  O296  1  0.84811009  -0.00325698  0.08583509  1
  O  O297  1  0.81078889  -0.01158503  0.57853294  1
  O  O298  1  0.84411073  0.50068201  0.08478072  1
  O  O299  1  0.83502551  0.49884255  0.58528803  1
  O  O300  1  -0.00656131  0.24720233  0.08864901  1
  O  O301  1  0.00302926  0.26212103  0.57468227  1
  O  O302  1  0.00127709  0.74758237  0.08407979  1
  O  O303  1  0.00832979  0.73655301  0.57051301  1
  O  O304  1  0.36757362  0.25007705  0.08701469  1
  O  O305  1  0.34320197  0.24801884  0.58530649  1
  O  O306  1  0.35004353  0.74764450  0.08391927  1
  O  O307  1  0.34131180  0.74048039  0.57361438  1
  O  O308  1  0.66445784  0.26196931  0.08261563  1
  O  O309  1  0.66582885  0.25529983  0.58704963  1
  O  O310  1  0.68125232  0.75001748  0.08532145  1
  O  O311  1  0.65946451  0.73620006  0.57367149  1
  O  O312  1  0.16323781  -0.01547964  0.41999015  1
  O  O313  1  0.16331590  -0.00202630  0.91549909  1
  O  O314  1  0.15781259  0.49763334  0.41523005  1
  O  O315  1  0.17111506  0.49412789  0.91882292  1
  O  O316  1  0.49620971  0.01088106  0.42147396  1
  O  O317  1  0.49932721  -0.00309705  0.91541552  1
  O  O318  1  0.49276419  0.50099121  0.41381572  1
  O  O319  1  0.48305284  0.50781013  0.91723757  1
  O  O320  1  0.83071749  0.01270744  0.42372564  1
  O  O321  1  0.83117808  -0.00835730  0.91519069  1
  O  O322  1  0.82294048  0.49970410  0.41550198  1
  O  O323  1  0.85192227  0.49622248  0.91822165  1
  O  O324  1  0.33130929  0.25642271  0.41567646  1
  O  O325  1  0.33919849  0.25946540  0.92619119  1
  O  O326  1  0.32383528  0.74382157  0.41426669  1
  O  O327  1  0.33219481  0.75702719  0.91355858  1
  O  O328  1  0.65699051  0.25464908  0.41368900  1
  O  O329  1  0.67475044  0.25344384  0.93418790  1
  O  O330  1  0.66497585  0.74443351  0.41441447  1
  O  O331  1  0.65168180  0.75079855  0.91461252  1
  O  O332  1  0.98726096  0.25503519  0.41264300  1
  O  O333  1  0.99958194  0.23248531  0.92577319  1
  O  O334  1  0.99828605  0.74201890  0.41476396  1
  O  O335  1  1.00298469  0.75509704  0.91287892  1
  O  O336  1  0.21687076  0.09595863  0.19346882  1
  O  O337  1  0.21111251  0.08507627  0.69393213  1
  O  O338  1  0.21072571  0.58409541  0.19211153  1
  O  O339  1  0.20843592  0.58132633  0.69324004  1
  O  O340  1  0.54284791  0.08187649  0.19559710  1
  O  O341  1  0.54472288  0.08739129  0.69681954  1
  O  O342  1  0.54583940  0.58508637  0.19550542  1
  O  O343  1  0.54016742  0.58191875  0.69523576  1
  O  O344  1  0.87642419  0.08198617  0.19527961  1
  O  O345  1  0.87594050  0.08373663  0.70031623  1
  O  O346  1  0.87143683  0.58280323  0.19395869  1
  O  O347  1  0.87407834  0.58174519  0.69460861  1
  O  O348  1  0.04424608  0.33687102  0.19271144  1
  O  O349  1  0.04039232  0.33506197  0.69233725  1
  O  O350  1  0.04119145  0.83100341  0.19272750  1
  O  O351  1  0.03218547  0.82984003  0.69317381  1
  O  O352  1  0.38270453  0.33601942  0.19323641  1
  O  O353  1  0.37885505  0.32768100  0.69685999  1
  O  O354  1  0.37828997  0.82967643  0.19313598  1
  O  O355  1  0.38029303  0.83373105  0.69672449  1
  O  O356  1  0.71254720  0.33741234  0.19516922  1
  O  O357  1  0.70804454  0.33560572  0.69735946  1
  O  O358  1  0.70477141  0.83055062  0.19581337  1
  O  O359  1  0.70813014  0.83044103  0.69914973  1
  O  O360  1  0.21345405  0.41683616  0.19876467  1
  O  O361  1  0.19856567  0.41726679  0.69529066  1
  O  O362  1  0.21771145  0.90734668  0.19865835  1
  O  O363  1  0.21838415  0.92647439  0.68792489  1
  O  O364  1  0.54733825  0.42076307  0.19645903  1
  O  O365  1  0.53761413  0.41665856  0.69665798  1
  O  O366  1  0.54749981  0.91337146  0.19690715  1
  O  O367  1  0.54840738  0.91483150  0.69017596  1
  O  O368  1  0.87699338  0.41805667  0.19382041  1
  O  O369  1  0.87052772  0.41686282  0.69605477  1
  O  O370  1  0.87716063  0.91636497  0.19649500  1
  O  O371  1  0.87846649  0.91977079  0.68925231  1
  O  O372  1  0.04480321  0.16613609  0.19635897  1
  O  O373  1  0.04264316  0.16675570  0.70147807  1
  O  O374  1  0.04356608  0.66682249  0.19449270  1
  O  O375  1  0.03783409  0.66351149  0.68913210  1
  O  O376  1  0.38035608  0.16909960  0.19630996  1
  O  O377  1  0.37934691  0.16818725  0.69727150  1
  O  O378  1  0.37854105  0.66532274  0.19490138  1
  O  O379  1  0.37558729  0.66598294  0.69180776  1
  O  O380  1  0.71263781  0.16700558  0.20187225  1
  O  O381  1  0.70852435  0.16855344  0.69439397  1
  O  O382  1  0.71031594  0.66576166  0.19460698  1
  O  O383  1  0.70267243  0.66362673  0.69132329  1
  O  O384  1  0.11966795  0.09149881  0.30423137  1
  O  O385  1  0.12393091  0.08158445  0.80585924  1
  O  O386  1  0.13199044  0.58015552  0.30420934  1
  O  O387  1  0.11816006  0.58454778  0.79664073  1
  O  O388  1  0.46004217  0.08749120  0.30642694  1
  O  O389  1  0.45348063  0.08749729  0.81138312  1
  O  O390  1  0.45972255  0.58337486  0.30439707  1
  O  O391  1  0.45311735  0.58647298  0.80513389  1
  O  O392  1  0.78956301  0.08416443  0.30653812  1
  O  O393  1  0.78846945  0.07997158  0.80735469  1
  O  O394  1  0.79251672  0.58160971  0.30522003  1
  O  O395  1  0.78475126  0.58280455  0.79833810  1
  O  O396  1  0.29715709  0.33633930  0.30474286  1
  O  O397  1  0.28439927  0.32598061  0.80885935  1
  O  O398  1  0.29038264  0.82823365  0.30664398  1
  O  O399  1  0.29990877  0.83621161  0.80328215  1
  O  O400  1  0.62563358  0.33716914  0.30416443  1
  O  O401  1  0.62014058  0.33342566  0.80308350  1
  O  O402  1  0.62325925  0.82989710  0.30816602  1
  O  O403  1  0.62198198  0.83254687  0.80423014  1
  O  O404  1  0.95626599  0.34036108  0.30428433  1
  O  O405  1  0.95383523  0.33099909  0.79925825  1
  O  O406  1  0.95934605  0.82747117  0.30663558  1
  O  O407  1  0.96008534  0.83471511  0.80278275  1
  O  O408  1  0.12576206  0.41680959  0.30466412  1
  O  O409  1  0.12179464  0.41545127  0.80736713  1
  O  O410  1  0.11585896  0.90579904  0.30738692  1
  O  O411  1  0.12182922  0.92249239  0.80259229  1
  O  O412  1  0.46031129  0.41846613  0.30411911  1
  O  O413  1  0.46603267  0.42000445  0.81138437  1
  O  O414  1  0.45461898  0.91603520  0.29851293  1
  O  O415  1  0.46006929  0.91421977  0.80458804  1
  O  O416  1  0.79249060  0.41810989  0.30500489  1
  O  O417  1  0.78986846  0.41677916  0.80835702  1
  O  O418  1  0.78701762  0.91850750  0.30184404  1
  O  O419  1  0.79056319  0.91660461  0.80285054  1
  O  O420  1  0.29436027  0.17120305  0.30770826  1
  O  O421  1  0.28620387  0.16595207  0.80034462  1
  O  O422  1  0.29184614  0.66290927  0.30429287  1
  O  O423  1  0.28955446  0.67109573  0.80490667  1
  O  O424  1  0.62240340  0.17084153  0.30449864  1
  O  O425  1  0.62256794  0.16636297  0.80237452  1
  O  O426  1  0.62517872  0.66298655  0.30518523  1
  O  O427  1  0.61905196  0.66538006  0.80587344  1
  O  O428  1  0.95382145  0.16585160  0.30592599  1
  O  O429  1  0.95339591  0.16480356  0.80818604  1
  O  O430  1  0.95750429  0.66337874  0.30445403  1
  O  O431  1  0.95466942  0.66605273  0.80720732  1
  F  F432  1  0.03134815  -0.00246958  0.20048247  1
  F  F433  1  0.04639462  0.00182389  0.70016937  1
  F  F434  1  0.04710524  0.49748214  0.19975508  1
  F  F435  1  0.03998318  0.49680696  0.70118813  1
  F  F436  1  0.37977391  0.00434669  0.20070021  1
  F  F437  1  0.38089194  0.00461888  0.70375801  1
  F  F438  1  0.38288944  0.50183108  0.20108504  1
  F  F439  1  0.38028321  0.50914600  0.69951828  1
  F  F440  1  0.70994451  0.00035297  0.20107158  1
  F  F441  1  0.71144911  0.00248483  0.70181018  1
  F  F442  1  0.71389251  0.50144072  0.20283017  1
  F  F443  1  0.70668439  0.49559429  0.70182186  1
  F  F444  1  0.21673807  0.25316048  0.20213476  1
  F  F445  1  0.20979775  0.25316158  0.70100325  1
  F  F446  1  0.21297583  0.74552774  0.20184261  1
  F  F447  1  0.21660352  0.73697579  0.69435109  1
  F  F448  1  0.54746734  0.25261832  0.20210390  1
  F  F449  1  0.54118060  0.25138049  0.70267654  1
  F  F450  1  0.54784529  0.74810157  0.20418090  1
  F  F451  1  0.54479971  0.74761976  0.70136871  1
  F  F452  1  0.87404305  0.25055279  0.20137565  1
  F  F453  1  0.87338484  0.24884800  0.70160164  1
  F  F454  1  0.87933368  0.74383818  0.19895651  1
  F  F455  1  0.87614873  0.74161470  0.70187939  1
  F  F456  1  0.30327515  0.00265468  0.30298324  1
  F  F457  1  0.28814069  -0.00122244  0.79752497  1
  F  F458  1  0.29281884  0.50145584  0.29723163  1
  F  F459  1  0.28162728  0.51291173  0.80207375  1
  F  F460  1  0.62121204  0.00146676  0.29781043  1
  F  F461  1  0.62600254  -0.00380431  0.79847518  1
  F  F462  1  0.62420479  0.50128301  0.29905408  1
  F  F463  1  0.61776668  0.50229581  0.79762604  1
  F  F464  1  0.95352656  -0.00070278  0.30081692  1
  F  F465  1  0.95535298  -0.00332117  0.79600563  1
  F  F466  1  0.95588149  0.49649751  0.29917791  1
  F  F467  1  0.95300197  0.49959919  0.79673732  1
  F  F468  1  0.13060316  0.25579660  0.29967862  1
  F  F469  1  0.11871442  0.25124879  0.79811175  1
  F  F470  1  0.12143335  0.74596043  0.29585906  1
  F  F471  1  0.11515350  0.74085766  0.79725554  1
  F  F472  1  0.45815589  0.25371734  0.29743976  1
  F  F473  1  0.45370364  0.25029073  0.80198240  1
  F  F474  1  0.45406608  0.74654607  0.29751190  1
  F  F475  1  0.45530079  0.74843954  0.79655800  1
  F  F476  1  0.78838696  0.25652869  0.30044563  1
  F  F477  1  0.78620451  0.24799000  0.79805416  1
  F  F478  1  0.78693971  0.73942073  0.30152943  1
  F  F479  1  0.78075040  0.74042616  0.80279186  1
