# generated using pymatgen
data_K24Na3Li5Mg64Fe17Si79(O5F)48
_symmetry_space_group_name_H-M   'P 1'
_cell_length_a   16.11087390
_cell_length_b   18.61420386
_cell_length_c   20.58045295
_cell_angle_alpha   90.00981474
_cell_angle_beta   100.02905493
_cell_angle_gamma   89.98686282
_symmetry_Int_Tables_number   1
_chemical_formula_structural   K24Na3Li5Mg64Fe17Si79(O5F)48
_chemical_formula_sum   'K24 Na3 Li5 Mg64 Fe17 Si79 O240 F48'
_cell_volume   6077.58506774
_cell_formula_units_Z   1
loop_
 _symmetry_equiv_pos_site_id
 _symmetry_equiv_pos_as_xyz
  1  'x, y, z'
loop_
 _atom_site_type_symbol
 _atom_site_label
 _atom_site_symmetry_multiplicity
 _atom_site_fract_x
 _atom_site_fract_y
 _atom_site_fract_z
 _atom_site_occupancy
  K  K0  1  -0.00128558  -0.01003826  0.01610477  1
  K  K1  1  -0.00660509  -0.00636953  0.48111083  1
  K  K2  1  -0.00567307  0.50483452  -0.00026542  1
  K  K3  1  -0.01603405  0.49614031  0.49691848  1
  K  K4  1  0.33935143  0.00666260  0.01031846  1
  K  K5  1  0.33238391  0.00129395  0.49228150  1
  K  K6  1  0.34535853  0.50514272  0.00507010  1
  K  K7  1  0.34071934  0.50303530  0.49697419  1
  K  K8  1  0.66947852  -0.00294258  0.01881620  1
  K  K9  1  0.66911095  0.00241112  0.48788889  1
  K  K10  1  0.66430580  0.49846442  0.00409141  1
  K  K11  1  0.67205480  0.50090975  0.48609214  1
  K  K12  1  0.16097096  0.25149703  0.00242574  1
  K  K13  1  0.16260020  0.25331690  0.49959030  1
  K  K14  1  0.16776132  0.73616570  0.00737275  1
  K  K15  1  0.16465892  0.75279506  0.49114728  1
  K  K16  1  0.50297762  0.26026045  0.00429109  1
  K  K17  1  0.50145865  0.25561534  0.49937777  1
  K  K18  1  0.50375312  0.74420873  0.01508964  1
  K  K19  1  0.49971339  0.74565368  0.48227324  1
  K  K20  1  0.83409302  0.25671334  0.00689555  1
  K  K21  1  0.83647392  0.26561692  0.49895859  1
  K  K22  1  0.84113672  0.74978706  0.00644190  1
  K  K23  1  0.83648771  0.74915720  0.48796440  1
  Na  Na24  1  0.50139639  0.50302538  0.24869439  1
  Na  Na25  1  0.50055738  0.66623634  0.24865251  1
  Na  Na26  1  -0.00120350  0.58172659  0.75332369  1
  Li  Li27  1  0.33311755  0.25484584  0.74911082  1
  Li  Li28  1  0.84359897  -0.00664238  0.25693585  1
  Li  Li29  1  0.33221381  0.57978546  0.75204240  1
  Li  Li30  1  0.16071102  0.83410275  0.25320094  1
  Li  Li31  1  -0.00046058  0.91239243  0.25742013  1
  Mg  Mg32  1  0.83389208  0.00026595  0.74879036  1
  Mg  Mg33  1  0.16801164  0.49994378  0.74995626  1
  Mg  Mg34  1  0.16689272  0.49973532  0.24914672  1
  Mg  Mg35  1  0.33201203  0.74569710  0.75091665  1
  Mg  Mg36  1  0.33307142  0.24919880  0.24581070  1
  Mg  Mg37  1  0.66625755  0.24945420  0.24897856  1
  Mg  Mg38  1  0.00177894  0.25089459  0.74401362  1
  Mg  Mg39  1  0.83474831  0.50046642  0.75156926  1
  Mg  Mg40  1  0.49949321  0.00139194  0.24742744  1
  Mg  Mg41  1  0.00298218  0.75337493  0.25514348  1
  Mg  Mg42  1  0.66544483  0.74940731  0.75137837  1
  Mg  Mg43  1  -0.00014962  0.74876692  0.75261271  1
  Mg  Mg44  1  0.16199114  -0.00536912  0.24992846  1
  Mg  Mg45  1  0.49953276  0.00153775  0.74539712  1
  Mg  Mg46  1  0.49612859  0.50040169  0.75372341  1
  Mg  Mg47  1  0.66630671  0.24968878  0.74787029  1
  Mg  Mg48  1  0.00063730  0.24905401  0.24765566  1
  Mg  Mg49  1  0.16927990  0.00145829  0.74766733  1
  Mg  Mg50  1  0.83436407  0.50038129  0.25055606  1
  Mg  Mg51  1  0.33067900  0.75120793  0.25313430  1
  Mg  Mg52  1  0.66841953  0.75059214  0.25105870  1
  Mg  Mg53  1  0.49739549  0.66439455  0.75240091  1
  Mg  Mg54  1  0.66821116  0.58317228  0.75395497  1
  Mg  Mg55  1  -0.00033080  0.41445732  0.24783605  1
  Mg  Mg56  1  0.66771421  0.58570298  0.25068122  1
  Mg  Mg57  1  -0.00050812  0.41564103  0.74601177  1
  Mg  Mg58  1  0.49893881  0.33473652  0.25095383  1
  Mg  Mg59  1  0.16449529  0.16306729  0.24618720  1
  Mg  Mg60  1  0.16708054  0.66940473  0.25265744  1
  Mg  Mg61  1  0.49864382  0.83433175  0.24942516  1
  Mg  Mg62  1  0.83324110  0.33374462  0.24734840  1
  Mg  Mg63  1  0.66332765  0.08404551  0.74484521  1
  Mg  Mg64  1  0.32810962  0.91461385  0.24871687  1
  Mg  Mg65  1  0.33491769  0.41740315  0.75092370  1
  Mg  Mg66  1  0.33261404  0.58506780  0.25233018  1
  Mg  Mg67  1  0.83352773  0.16217365  0.24991407  1
  Mg  Mg68  1  -0.00052785  0.58441730  0.25200555  1
  Mg  Mg69  1  -0.00197809  0.07750208  0.25125979  1
  Mg  Mg70  1  0.67015011  0.91796214  0.25017466  1
  Mg  Mg71  1  0.83472469  0.66395305  0.75374966  1
  Mg  Mg72  1  0.49713503  0.16683301  0.74491643  1
  Mg  Mg73  1  0.00146230  0.91658021  0.75047275  1
  Mg  Mg74  1  0.49884347  0.83368915  0.74859133  1
  Mg  Mg75  1  0.49719041  0.33344906  0.75343836  1
  Mg  Mg76  1  0.33477370  0.08769494  0.74531142  1
  Mg  Mg77  1  0.16581340  0.66323376  0.75255639  1
  Mg  Mg78  1  0.83343359  0.16595980  0.74595137  1
  Mg  Mg79  1  0.66671534  0.41477997  0.75263576  1
  Mg  Mg80  1  0.16718583  0.83348634  0.74960971  1
  Mg  Mg81  1  0.83494533  0.83321347  0.75214751  1
  Mg  Mg82  1  0.83762539  0.83699750  0.25342780  1
  Mg  Mg83  1  0.33357201  0.41760635  0.24992549  1
  Mg  Mg84  1  0.00202805  0.08466930  0.74638800  1
  Mg  Mg85  1  0.83480376  0.66697066  0.25287878  1
  Mg  Mg86  1  0.33115382  0.08341184  0.24513533  1
  Mg  Mg87  1  0.66739731  0.08175195  0.24940313  1
  Mg  Mg88  1  0.66768130  0.41791206  0.25033351  1
  Mg  Mg89  1  0.49727920  0.16520791  0.24747524  1
  Mg  Mg90  1  0.83427146  0.33570019  0.74677763  1
  Mg  Mg91  1  0.17013253  0.16865838  0.74485476  1
  Mg  Mg92  1  0.16821214  0.33418838  0.74638378  1
  Mg  Mg93  1  0.33414812  0.91523272  0.74899464  1
  Mg  Mg94  1  0.16493961  0.33232705  0.24776302  1
  Mg  Mg95  1  0.66515863  0.91628365  0.74747304  1
  Fe  Fe96  1  0.81182995  0.91997151  0.39271573  1
  Fe  Fe97  1  0.03058016  0.33076990  0.60562585  1
  Fe  Fe98  1  0.97779778  0.67109452  0.89475026  1
  Fe  Fe99  1  0.02673783  0.33243792  0.10822115  1
  Fe  Fe100  1  0.80431403  0.41447417  0.38802478  1
  Fe  Fe101  1  0.47489010  0.58328846  0.39590078  1
  Fe  Fe102  1  0.80340907  0.58154102  0.89409597  1
  Fe  Fe103  1  0.86117185  0.58343212  0.11258984  1
  Fe  Fe104  1  0.85669735  0.42355085  0.60734234  1
  Fe  Fe105  1  0.47542503  0.42137958  0.89273248  1
  Fe  Fe106  1  0.52003436  0.08456134  0.60485322  1
  Fe  Fe107  1  0.69354573  0.66995239  0.11042961  1
  Fe  Fe108  1  0.35736552  0.66685034  0.11211374  1
  Fe  Fe109  1  0.52271938  0.08947369  0.10822627  1
  Fe  Fe110  1  0.98235964  0.82963643  0.39633538  1
  Fe  Fe111  1  0.52722185  0.41150182  0.11134371  1
  Fe  Fe112  1  0.34910377  0.17226787  0.10596818  1
  Si  Si113  1  0.98175579  0.66016165  0.39091420  1
  Si  Si114  1  0.14510044  0.08639294  0.88176603  1
  Si  Si115  1  0.19612838  0.91566806  0.61370719  1
  Si  Si116  1  0.30649675  0.16457041  0.38348263  1
  Si  Si117  1  0.69004291  0.33076807  0.61272644  1
  Si  Si118  1  0.02553650  0.15759908  0.60842817  1
  Si  Si119  1  0.80944870  0.09177861  0.38816233  1
  Si  Si120  1  0.68866714  0.83808372  0.11399789  1
  Si  Si121  1  0.97706474  0.16525298  0.88145759  1
  Si  Si122  1  0.19581159  0.08138198  0.61117171  1
  Si  Si123  1  0.63973060  0.83764525  0.38765914  1
  Si  Si124  1  0.81066977  0.58649656  0.38981951  1
  Si  Si125  1  0.36025874  0.33909867  0.61584139  1
  Si  Si126  1  0.63421153  0.32760985  0.38873961  1
  Si  Si127  1  0.14107471  0.08444956  0.38469662  1
  Si  Si128  1  0.80988265  0.40838258  0.88735213  1
  Si  Si129  1  0.47383632  0.91643452  0.88361483  1
  Si  Si130  1  0.03149521  0.66629029  0.11763578  1
  Si  Si131  1  0.47056831  0.91515039  0.38388800  1
  Si  Si132  1  0.85625370  0.91509323  0.61572663  1
  Si  Si133  1  0.19770998  0.42037785  0.61144159  1
  Si  Si134  1  0.30531360  0.32856519  0.38466617  1
  Si  Si135  1  0.85332929  0.59341436  0.61203084  1
  Si  Si136  1  0.30255659  0.66970025  0.39208800  1
  Si  Si137  1  0.30707339  0.83360809  0.88520106  1
  Si  Si138  1  0.14486117  0.92266272  0.88393881  1
  Si  Si139  1  0.97744407  0.16902370  0.38359932  1
  Si  Si140  1  0.35847686  0.82650656  0.61434286  1
  Si  Si141  1  0.47169415  0.08004196  0.38410044  1
  Si  Si142  1  0.63432078  0.67188493  0.88692228  1
  Si  Si143  1  0.80953953  0.08415853  0.88253394  1
  Si  Si144  1  0.52025390  0.91344358  0.61099188  1
  Si  Si145  1  0.68917897  0.83405951  0.61512347  1
  Si  Si146  1  0.14613969  0.92106188  0.38954328  1
  Si  Si147  1  0.98063626  0.84118642  0.88846354  1
  Si  Si148  1  0.97894032  0.33273090  0.38515399  1
  Si  Si149  1  0.69771827  0.32738344  0.11250307  1
  Si  Si150  1  0.52523332  0.58187011  0.61770228  1
  Si  Si151  1  0.64151296  0.16215781  0.88262876  1
  Si  Si152  1  0.64293902  0.32712709  0.88717461  1
  Si  Si153  1  0.53164976  0.58247676  0.10784466  1
  Si  Si154  1  0.35711524  0.66270962  0.61701066  1
  Si  Si155  1  0.14428560  0.41482480  0.38462411  1
  Si  Si156  1  0.02651984  0.83750188  0.61522222  1
  Si  Si157  1  0.02305796  0.16173474  0.11173448  1
  Si  Si158  1  0.85954880  0.91374459  0.11799623  1
  Si  Si159  1  0.64768803  0.67106398  0.38970997  1
  Si  Si160  1  0.35096060  0.33796939  0.11272934  1
  Si  Si161  1  0.30379355  0.66818778  0.88596273  1
  Si  Si162  1  0.85753044  0.41615413  0.11127111  1
  Si  Si163  1  0.19307985  0.42052633  0.11453903  1
  Si  Si164  1  0.02629395  0.67308564  0.61517977  1
  Si  Si165  1  0.02426129  0.83030142  0.11900890  1
  Si  Si166  1  0.30926709  0.16794491  0.88076049  1
  Si  Si167  1  0.18712112  0.91487205  0.11599171  1
  Si  Si168  1  0.30612022  0.83602390  0.38596069  1
  Si  Si169  1  0.52738731  0.41543817  0.61685078  1
  Si  Si170  1  0.35286590  0.83551824  0.11249735  1
  Si  Si171  1  0.86355662  0.07808162  0.11732739  1
  Si  Si172  1  0.46874246  0.41080168  0.38953523  1
  Si  Si173  1  0.14643362  0.57777594  0.88910375  1
  Si  Si174  1  0.80945965  0.91912701  0.88447154  1
  Si  Si175  1  0.85946509  0.08025134  0.61322440  1
  Si  Si176  1  0.30368037  0.33329947  0.88493676  1
  Si  Si177  1  0.52006672  0.91847094  0.11407182  1
  Si  Si178  1  0.47338630  0.59242509  0.88717998  1
  Si  Si179  1  0.35479618  0.17403320  0.60898886  1
  Si  Si180  1  0.97571810  0.32962355  0.88234759  1
  Si  Si181  1  0.14293245  0.57838011  0.38643982  1
  Si  Si182  1  0.64266113  0.83717993  0.88434232  1
  Si  Si183  1  0.69929258  0.16195067  0.11253484  1
  Si  Si184  1  0.14074525  0.41279876  0.88422667  1
  Si  Si185  1  0.63817350  0.16435939  0.38563391  1
  Si  Si186  1  0.69519679  0.16423276  0.61064434  1
  Si  Si187  1  0.68737089  0.67011573  0.61568626  1
  Si  Si188  1  0.47298762  0.08215760  0.88209462  1
  Si  Si189  1  0.19299056  0.58275752  0.11719786  1
  Si  Si190  1  0.18756628  0.58512097  0.61532658  1
  Si  Si191  1  0.18704984  0.07761153  0.11113408  1
  O  O192  1  0.26263869  0.10374338  0.07492959  1
  O  O193  1  0.26672164  0.12755716  0.58110502  1
  O  O194  1  0.26965858  0.60181186  0.07916351  1
  O  O195  1  0.26895281  0.62092919  0.58718414  1
  O  O196  1  0.62265193  0.11300575  0.07609228  1
  O  O197  1  0.62085988  0.11160521  0.57594921  1
  O  O198  1  0.60946971  0.60686385  0.07036084  1
  O  O199  1  0.60203653  0.62207806  0.58801087  1
  O  O200  1  0.94406306  0.10654373  0.08486115  1
  O  O201  1  0.94356746  0.10374853  0.58452776  1
  O  O202  1  0.96233171  0.60922590  0.08376845  1
  O  O203  1  0.93474211  0.63539273  0.58792962  1
  O  O204  1  0.12437736  0.36355579  0.07775164  1
  O  O205  1  0.12661900  0.36659283  0.57415600  1
  O  O206  1  0.10358821  0.86538107  0.08656453  1
  O  O207  1  0.10413022  0.87847885  0.58677791  1
  O  O208  1  0.43371676  0.35173845  0.08000442  1
  O  O209  1  0.44277967  0.36885123  0.58568534  1
  O  O210  1  0.43803643  0.86601314  0.08591062  1
  O  O211  1  0.44049121  0.85771323  0.58606660  1
  O  O212  1  0.78523660  0.35335616  0.08839078  1
  O  O213  1  0.76306920  0.36291085  0.57784971  1
  O  O214  1  0.76986703  0.87449059  0.08462225  1
  O  O215  1  0.77220691  0.86653210  0.58797350  1
  O  O216  1  0.28375536  0.40546458  0.09046636  1
  O  O217  1  0.28614909  0.39653715  0.58562994  1
  O  O218  1  0.27100769  0.88981725  0.08543473  1
  O  O219  1  0.27124176  0.87170101  0.58530326  1
  O  O220  1  0.61976985  0.37429257  0.07549960  1
  O  O221  1  0.60238668  0.37621243  0.58554564  1
  O  O222  1  0.60572361  0.89055719  0.08741022  1
  O  O223  1  0.60583182  0.88255199  0.58575839  1
  O  O224  1  0.93716268  0.39380154  0.07597803  1
  O  O225  1  0.94142619  0.38647673  0.56747449  1
  O  O226  1  0.93758626  0.87628896  0.08565160  1
  O  O227  1  0.93883921  0.88252958  0.58893023  1
  O  O228  1  0.10307515  0.12645261  0.08262346  1
  O  O229  1  0.10336042  0.11459775  0.58164830  1
  O  O230  1  0.11930021  0.64303383  0.09180176  1
  O  O231  1  0.10188128  0.63184876  0.58407334  1
  O  O232  1  0.43955974  0.15014143  0.06506244  1
  O  O233  1  0.42812736  0.14512545  0.57047951  1
  O  O234  1  0.45392916  0.63860067  0.08091970  1
  O  O235  1  0.43550013  0.62315771  0.58855109  1
  O  O236  1  0.78373198  0.12958519  0.08570567  1
  O  O237  1  0.78285450  0.13609206  0.58569489  1
  O  O238  1  0.78825301  0.65235916  0.07441750  1
  O  O239  1  0.76861084  0.64411494  0.58428410  1
  O  O240  1  0.06089867  0.11951705  0.41402214  1
  O  O241  1  0.06218632  0.11765817  0.90968542  1
  O  O242  1  0.05928540  0.60174067  0.41631807  1
  O  O243  1  0.07045218  0.60813711  0.92292024  1
  O  O244  1  0.39359519  0.11968701  0.41338472  1
  O  O245  1  0.39449435  0.12021334  0.91009817  1
  O  O246  1  0.38671306  0.63186206  0.43189598  1
  O  O247  1  0.39023021  0.62490390  0.91442534  1
  O  O248  1  0.72884533  0.12824959  0.41812998  1
  O  O249  1  0.72948548  0.11792605  0.91153131  1
  O  O250  1  0.74058178  0.63508676  0.42043066  1
  O  O251  1  0.70263175  0.61479556  0.92029318  1
  O  O252  1  0.22556963  0.36338904  0.41448901  1
  O  O253  1  0.21688508  0.35678217  0.91337365  1
  O  O254  1  0.23912713  0.88383259  0.41936941  1
  O  O255  1  0.22903843  0.87464673  0.91284128  1
  O  O256  1  0.55176044  0.35997210  0.41668152  1
  O  O257  1  0.56983277  0.36178108  0.92099204  1
  O  O258  1  0.55539954  0.87048342  0.41467721  1
  O  O259  1  0.56310959  0.87517869  0.91245705  1
  O  O260  1  0.90348392  0.36131920  0.41990343  1
  O  O261  1  0.89405725  0.35695473  0.91226477  1
  O  O262  1  0.90065189  0.86777259  0.44018176  1
  O  O263  1  0.89684893  0.87691452  0.91450297  1
  O  O264  1  0.06401573  0.38154511  0.41358252  1
  O  O265  1  0.05727993  0.38002343  0.91162390  1
  O  O266  1  0.08068827  0.88388634  0.43029117  1
  O  O267  1  0.06008770  0.89850969  0.91199794  1
  O  O268  1  0.38974667  0.37135135  0.41949919  1
  O  O269  1  0.37992109  0.38276261  0.92171668  1
  O  O270  1  0.39716433  0.87485104  0.41694421  1
  O  O271  1  0.39614523  0.87683471  0.91235727  1
  O  O272  1  0.71738944  0.36963555  0.42430048  1
  O  O273  1  0.73438654  0.36456800  0.91574269  1
  O  O274  1  0.71595226  0.88594678  0.42590233  1
  O  O275  1  0.72832714  0.88469489  0.91227155  1
  O  O276  1  0.22761841  0.13032122  0.41467637  1
  O  O277  1  0.22859749  0.13376508  0.91109150  1
  O  O278  1  0.22093695  0.63134516  0.41911716  1
  O  O279  1  0.23052946  0.62799649  0.91849118  1
  O  O280  1  0.56192451  0.11953475  0.41350637  1
  O  O281  1  0.56327602  0.12196805  0.91012651  1
  O  O282  1  0.57849841  0.63167283  0.42633512  1
  O  O283  1  0.54376707  0.65648345  0.91045355  1
  O  O284  1  0.89455917  0.14322036  0.41399335  1
  O  O285  1  0.89649755  0.12951407  0.91019869  1
  O  O286  1  0.90085793  0.62668727  0.41984191  1
  O  O287  1  0.88699170  0.64347967  0.93216342  1
  O  O288  1  0.16144291  -0.00487557  0.08440799  1
  O  O289  1  0.19751269  -0.00233255  0.58439374  1
  O  O290  1  0.15865481  0.50177944  0.09156062  1
  O  O291  1  0.17737957  0.50371588  0.58417753  1
  O  O292  1  0.49621196  -0.00544475  0.07752198  1
  O  O293  1  0.49339612  -0.01090547  0.57593910  1
  O  O294  1  0.49944805  0.50309906  0.07852710  1
  O  O295  1  0.51596262  0.49901336  0.58910317  1
  O  O296  1  0.84793871  -0.00360560  0.08614852  1
  O  O297  1  0.83581712  -0.00265805  0.58759386  1
  O  O298  1  0.81999376  0.49231954  0.08213081  1
  O  O299  1  0.83757638  0.51803016  0.57367761  1
  O  O300  1  0.00080909  0.23804001  0.07525230  1
  O  O301  1  0.01106261  0.23381396  0.57243094  1
  O  O302  1  0.01039579  0.74860641  0.08765759  1
  O  O303  1  0.01926461  0.75632009  0.58461205  1
  O  O304  1  0.30432089  0.26424635  0.08316910  1
  O  O305  1  0.33424616  0.25839807  0.58493830  1
  O  O306  1  0.32843568  0.75997308  0.07594879  1
  O  O307  1  0.34467272  0.74475883  0.58531073  1
  O  O308  1  0.68667299  0.24413826  0.08334350  1
  O  O309  1  0.67291961  0.24691697  0.58561846  1
  O  O310  1  0.66473559  0.76350793  0.07615597  1
  O  O311  1  0.66767236  0.75269947  0.58705023  1
  O  O312  1  0.15835647  0.00547748  0.41859042  1
  O  O313  1  0.16497686  0.00487728  0.91115664  1
  O  O314  1  0.16652201  0.49596530  0.41458473  1
  O  O315  1  0.16403773  0.49316136  0.91516022  1
  O  O316  1  0.47823412  -0.00202380  0.41473020  1
  O  O317  1  0.48080442  -0.00073110  0.91133739  1
  O  O318  1  0.48301413  0.48670850  0.42799653  1
  O  O319  1  0.49926705  0.51653360  0.92285357  1
  O  O320  1  0.82757011  0.01623511  0.42624468  1
  O  O321  1  0.82284994  0.00208893  0.91219885  1
  O  O322  1  0.81520777  0.50762898  0.42362237  1
  O  O323  1  0.82601794  0.48513586  0.92253287  1
  O  O324  1  0.31818742  0.24602277  0.41418429  1
  O  O325  1  0.32301913  0.24882825  0.91030397  1
  O  O326  1  0.30504676  0.75490630  0.41821505  1
  O  O327  1  0.31347891  0.75221511  0.91501268  1
  O  O328  1  0.63804577  0.24429610  0.41826744  1
  O  O329  1  0.65451181  0.24241720  0.91356692  1
  O  O330  1  0.65218134  0.75532537  0.41766763  1
  O  O331  1  0.65873417  0.75591668  0.91227047  1
  O  O332  1  1.00405535  0.24988355  0.41171845  1
  O  O333  1  0.99449650  0.24640414  0.91125410  1
  O  O334  1  1.00760035  0.73458765  0.42921476  1
  O  O335  1  1.00723867  0.76753803  0.92582065  1
  O  O336  1  0.20741558  0.08125281  0.19204430  1
  O  O337  1  0.21201761  0.08178387  0.69177203  1
  O  O338  1  0.20879162  0.58340592  0.19821621  1
  O  O339  1  0.20358245  0.58534179  0.69469876  1
  O  O340  1  0.54356517  0.08465592  0.20039677  1
  O  O341  1  0.54330076  0.08279146  0.69715101  1
  O  O342  1  0.55806487  0.58382854  0.18722586  1
  O  O343  1  0.54369675  0.58387153  0.69788722  1
  O  O344  1  0.88003300  0.08310692  0.19651719  1
  O  O345  1  0.87776962  0.08122299  0.69413953  1
  O  O346  1  0.88067210  0.58341008  0.20482534  1
  O  O347  1  0.86524589  0.58668966  0.69137730  1
  O  O348  1  0.04518014  0.33115825  0.20003868  1
  O  O349  1  0.04648273  0.33104807  0.69791463  1
  O  O350  1  0.04277223  0.83100201  0.19751185  1
  O  O351  1  0.04493647  0.83737683  0.69584013  1
  O  O352  1  0.37321496  0.33437131  0.19462532  1
  O  O353  1  0.37912835  0.33610155  0.69513251  1
  O  O354  1  0.37241365  0.83555244  0.19325262  1
  O  O355  1  0.37514393  0.83169628  0.69480192  1
  O  O356  1  0.71060109  0.32807074  0.19325289  1
  O  O357  1  0.70865384  0.33128841  0.69394391  1
  O  O358  1  0.70979111  0.83542295  0.19430351  1
  O  O359  1  0.70857644  0.83498770  0.69578104  1
  O  O360  1  0.20762193  0.41512945  0.19569634  1
  O  O361  1  0.21203617  0.41746773  0.69204243  1
  O  O362  1  0.20874773  0.91825098  0.19522937  1
  O  O363  1  0.21251878  0.91645021  0.69430750  1
  O  O364  1  0.55130686  0.40656136  0.20150607  1
  O  O365  1  0.54559298  0.41507022  0.69686310  1
  O  O366  1  0.53918604  0.91875409  0.19488475  1
  O  O367  1  0.54047003  0.91535925  0.69244087  1
  O  O368  1  0.88028970  0.41485091  0.19269128  1
  O  O369  1  0.87632280  0.41737884  0.69944884  1
  O  O370  1  0.87758347  0.91415217  0.19633854  1
  O  O371  1  0.87625845  0.91672390  0.69644985  1
  O  O372  1  0.04237593  0.16475900  0.19257771  1
  O  O373  1  0.04427498  0.16191821  0.68975267  1
  O  O374  1  0.04512347  0.66694134  0.19839902  1
  O  O375  1  0.04936072  0.67695724  0.69442153  1
  O  O376  1  0.37552398  0.16563677  0.19859580  1
  O  O377  1  0.37777168  0.16378628  0.68852249  1
  O  O378  1  0.36392757  0.66966729  0.20127245  1
  O  O379  1  0.37781558  0.66880684  0.69631821  1
  O  O380  1  0.71186730  0.16390977  0.19336659  1
  O  O381  1  0.71132512  0.16348161  0.69201986  1
  O  O382  1  0.71510465  0.66923433  0.20262795  1
  O  O383  1  0.70551962  0.66984095  0.69599508  1
  O  O384  1  0.12447674  0.08432165  0.30473796  1
  O  O385  1  0.12516170  0.08389708  0.80113805  1
  O  O386  1  0.12516674  0.58061625  0.30641638  1
  O  O387  1  0.13410338  0.58124829  0.80925873  1
  O  O388  1  0.45299208  0.08129329  0.30458536  1
  O  O389  1  0.45515630  0.08163503  0.80172347  1
  O  O390  1  0.44512808  0.58304747  0.30956521  1
  O  O391  1  0.45862388  0.58608317  0.80694821  1
  O  O392  1  0.78706532  0.09032004  0.30844214  1
  O  O393  1  0.79080281  0.08292104  0.80200022  1
  O  O394  1  0.79418867  0.58423809  0.30978957  1
  O  O395  1  0.78727878  0.58303565  0.80094418  1
  O  O396  1  0.28743166  0.32962039  0.30462218  1
  O  O397  1  0.28632421  0.33616616  0.80468689  1
  O  O398  1  0.29134817  0.83617887  0.30691298  1
  O  O399  1  0.29015357  0.83519790  0.80451280  1
  O  O400  1  0.62287310  0.32765090  0.30861502  1
  O  O401  1  0.62459282  0.32919569  0.80588527  1
  O  O402  1  0.62292008  0.83766603  0.30718417  1
  O  O403  1  0.62248326  0.83733809  0.80356430  1
  O  O404  1  0.95836417  0.33192320  0.30468265  1
  O  O405  1  0.95660914  0.32698209  0.80244982  1
  O  O406  1  0.95581501  0.83068997  0.30673460  1
  O  O407  1  0.95918940  0.83943976  0.80718841  1
  O  O408  1  0.12580630  0.41527611  0.30474753  1
  O  O409  1  0.12372282  0.41469489  0.80405730  1
  O  O410  1  0.12682847  0.92082752  0.31064771  1
  O  O411  1  0.12681339  0.91951929  0.80320693  1
  O  O412  1  0.44821208  0.40806497  0.31001268  1
  O  O413  1  0.45607513  0.41667752  0.80127792  1
  O  O414  1  0.45292096  0.91907109  0.30403993  1
  O  O415  1  0.45634418  0.91626670  0.80286885  1
  O  O416  1  0.79044192  0.41382105  0.29712312  1
  O  O417  1  0.78776362  0.41103448  0.80639991  1
  O  O418  1  0.78749414  0.91621545  0.30274296  1
  O  O419  1  0.79044325  0.91830520  0.80387448  1
  O  O420  1  0.28737451  0.16424623  0.30369432  1
  O  O421  1  0.28876563  0.16243484  0.80116232  1
  O  O422  1  0.28649074  0.66734014  0.31214008  1
  O  O423  1  0.28510625  0.67233213  0.80627883  1
  O  O424  1  0.62249618  0.16591556  0.30572406  1
  O  O425  1  0.62541340  0.16402531  0.80230459  1
  O  O426  1  0.63322099  0.66951811  0.31037483  1
  O  O427  1  0.62083898  0.67053137  0.80542442  1
  O  O428  1  0.95909894  0.16635622  0.30353869  1
  O  O429  1  0.95751696  0.16420553  0.80096623  1
  O  O430  1  0.96213178  0.66515542  0.31068597  1
  O  O431  1  0.95034987  0.67780077  0.80385698  1
  F  F432  1  0.04719246  0.00461843  0.19945615  1
  F  F433  1  0.04688121  -0.00106361  0.70071424  1
  F  F434  1  0.04574695  0.49973545  0.20442145  1
  F  F435  1  0.05097403  0.49278905  0.69891740  1
  F  F436  1  0.37618737  -0.00129291  0.20084685  1
  F  F437  1  0.37706943  -0.00214183  0.69953692  1
  F  F438  1  0.36363129  0.50042030  0.20161034  1
  F  F439  1  0.38068762  0.49997774  0.69979470  1
  F  F440  1  0.70301206  0.00134390  0.19928912  1
  F  F441  1  0.71283054  -0.00130462  0.70066150  1
  F  F442  1  0.71522509  0.50099010  0.20233096  1
  F  F443  1  0.70817279  0.49750301  0.70334558  1
  F  F444  1  0.20998011  0.24740053  0.20197213  1
  F  F445  1  0.20872243  0.24972404  0.69805458  1
  F  F446  1  0.21105240  0.74978169  0.20638417  1
  F  F447  1  0.21264010  0.75286788  0.70135777  1
  F  F448  1  0.54501396  0.24814300  0.20362012  1
  F  F449  1  0.54635471  0.25016375  0.70046560  1
  F  F450  1  0.55073164  0.76181650  0.20110066  1
  F  F451  1  0.54362770  0.75093888  0.70254727  1
  F  F452  1  0.87905699  0.24724830  0.20239828  1
  F  F453  1  0.87844410  0.24700219  0.69895489  1
  F  F454  1  0.88130044  0.74911396  0.20606392  1
  F  F455  1  0.87764168  0.75653793  0.70100808  1
  F  F456  1  0.28685571  0.00182008  0.29665515  1
  F  F457  1  0.28980558  0.00019691  0.79567318  1
  F  F458  1  0.28366845  0.49641740  0.30167579  1
  F  F459  1  0.28679389  0.49728903  0.79713342  1
  F  F460  1  0.61935647  -0.00014645  0.30062805  1
  F  F461  1  0.62209645  -0.00171150  0.79653970  1
  F  F462  1  0.63817706  0.50102929  0.30482133  1
  F  F463  1  0.62029354  0.49885680  0.79886774  1
  F  F464  1  0.96044696  0.00530978  0.30748472  1
  F  F465  1  0.95637366  0.00174717  0.79670468  1
  F  F466  1  0.95892972  0.49536054  0.30061328  1
  F  F467  1  0.95184993  0.48829039  0.80295805  1
  F  F468  1  0.12313911  0.24544954  0.29811237  1
  F  F469  1  0.12099861  0.24380261  0.79638374  1
  F  F470  1  0.12058461  0.74437105  0.30587355  1
  F  F471  1  0.12313745  0.75465380  0.79912898  1
  F  F472  1  0.45299306  0.24840269  0.29857102  1
  F  F473  1  0.45949656  0.24555147  0.79713146  1
  F  F474  1  0.44912767  0.76400540  0.30383808  1
  F  F475  1  0.45340512  0.75356863  0.79802125  1
  F  F476  1  0.78854332  0.24852972  0.29632890  1
  F  F477  1  0.78865844  0.24660526  0.79461643  1
  F  F478  1  0.79066723  0.75372355  0.30149209  1
  F  F479  1  0.78479756  0.75480486  0.79836898  1
