# generated using pymatgen
data_K24Na3Li5Mg64Fe17Si79(O5F)48
_symmetry_space_group_name_H-M   'P 1'
_cell_length_a   16.08827878
_cell_length_b   18.59411634
_cell_length_c   20.55761903
_cell_angle_alpha   89.98459640
_cell_angle_beta   100.01698924
_cell_angle_gamma   89.99757842
_symmetry_Int_Tables_number   1
_chemical_formula_structural   K24Na3Li5Mg64Fe17Si79(O5F)48
_chemical_formula_sum   'K24 Na3 Li5 Mg64 Fe17 Si79 O240 F48'
_cell_volume   6056.01100312
_cell_formula_units_Z   1
loop_
 _symmetry_equiv_pos_site_id
 _symmetry_equiv_pos_as_xyz
  1  'x, y, z'
loop_
 _atom_site_type_symbol
 _atom_site_label
 _atom_site_symmetry_multiplicity
 _atom_site_fract_x
 _atom_site_fract_y
 _atom_site_fract_z
 _atom_site_occupancy
  K  K0  1  -0.01903072  0.01269777  0.00018212  1
  K  K1  1  0.00707196  0.00052089  0.50177554  1
  K  K2  1  0.00348430  0.49905545  0.00161710  1
  K  K3  1  0.00330620  0.48965309  0.49865214  1
  K  K4  1  0.33727809  0.01108228  0.00175781  1
  K  K5  1  0.33080119  0.01207866  0.49991267  1
  K  K6  1  0.33847429  0.49335105  0.00716024  1
  K  K7  1  0.33670781  0.48942698  0.49377039  1
  K  K8  1  0.66877448  0.01434797  0.00045598  1
  K  K9  1  0.66796101  0.00288527  0.50224453  1
  K  K10  1  0.67684666  0.49199671  -0.00190735  1
  K  K11  1  0.66501323  0.49715706  0.50021056  1
  K  K12  1  0.16333164  0.24221284  0.00418679  1
  K  K13  1  0.15594147  0.25442010  0.49738259  1
  K  K14  1  0.16669624  0.74432588  0.00660495  1
  K  K15  1  0.15491729  0.75327157  0.49456614  1
  K  K16  1  0.49699812  0.25291466  0.00014849  1
  K  K17  1  0.50813757  0.25346745  0.50497716  1
  K  K18  1  0.50086341  0.75407300  0.00307269  1
  K  K19  1  0.50316382  0.74530045  0.50046678  1
  K  K20  1  0.83089460  0.24836112  -0.00701833  1
  K  K21  1  0.83500432  0.24706605  0.50284471  1
  K  K22  1  0.84091452  0.75656494  0.00681592  1
  K  K23  1  0.83818869  0.75519254  0.50454535  1
  Na  Na24  1  -0.00075748  0.75122772  0.24871044  1
  Na  Na25  1  0.66499313  0.08089055  0.24861392  1
  Na  Na26  1  0.82859422  0.17298805  0.75493777  1
  Li  Li27  1  0.66187337  0.25419086  0.74487694  1
  Li  Li28  1  0.49100683  0.49445373  0.24342492  1
  Li  Li29  1  0.33228322  0.08619123  0.24940966  1
  Li  Li30  1  0.33831554  0.41683620  0.23899239  1
  Li  Li31  1  0.51086848  0.33086423  0.74253693  1
  Mg  Mg32  1  0.16967467  0.49881559  0.74792814  1
  Mg  Mg33  1  0.83473799  0.50039491  0.74439590  1
  Mg  Mg34  1  0.33215984  0.74863162  0.24954820  1
  Mg  Mg35  1  0.00146080  0.74925442  0.74508884  1
  Mg  Mg36  1  0.83242461  -0.00182381  0.24969667  1
  Mg  Mg37  1  0.66585404  0.25147385  0.24890782  1
  Mg  Mg38  1  0.17182828  0.49852843  0.24607074  1
  Mg  Mg39  1  0.16740240  -0.00061210  0.75121183  1
  Mg  Mg40  1  0.33590210  0.74969355  0.75145154  1
  Mg  Mg41  1  0.83314692  0.49921958  0.24992724  1
  Mg  Mg42  1  0.49615291  0.00160475  0.25100244  1
  Mg  Mg43  1  0.00117497  0.25211772  0.25175895  1
  Mg  Mg44  1  0.66806349  0.74861294  0.74717013  1
  Mg  Mg45  1  0.16749589  -0.00071770  0.25461265  1
  Mg  Mg46  1  0.00085106  0.25145994  0.75283681  1
  Mg  Mg47  1  0.33354987  0.25081433  0.24734060  1
  Mg  Mg48  1  0.50108688  0.00360218  0.75321696  1
  Mg  Mg49  1  0.50325046  0.49553827  0.74689716  1
  Mg  Mg50  1  0.66421022  0.74864400  0.25005835  1
  Mg  Mg51  1  0.83149857  0.00246278  0.75309949  1
  Mg  Mg52  1  0.33688552  0.25020539  0.74992952  1
  Mg  Mg53  1  0.16871430  0.16509208  0.25128349  1
  Mg  Mg54  1  0.33516001  0.08564205  0.75130529  1
  Mg  Mg55  1  0.49667207  0.16634011  0.24832979  1
  Mg  Mg56  1  0.83230242  0.66647112  0.25093849  1
  Mg  Mg57  1  0.00009703  0.41488206  0.74693146  1
  Mg  Mg58  1  0.33658080  0.58247784  0.75018872  1
  Mg  Mg59  1  0.50187315  0.66392153  0.74871311  1
  Mg  Mg60  1  0.33590039  0.91641127  0.75280066  1
  Mg  Mg61  1  0.00086738  0.58476269  0.24852057  1
  Mg  Mg62  1  0.66676823  0.58383531  0.74437785  1
  Mg  Mg63  1  0.16594848  0.83338630  0.74808115  1
  Mg  Mg64  1  0.49775521  0.83456202  0.25085668  1
  Mg  Mg65  1  0.83290371  0.33363732  0.75096109  1
  Mg  Mg66  1  0.66595053  0.41286532  0.74649240  1
  Mg  Mg67  1  0.49674422  0.33670163  0.24597086  1
  Mg  Mg68  1  0.66309793  0.41667601  0.24881511  1
  Mg  Mg69  1  0.50354608  0.16882337  0.75376808  1
  Mg  Mg70  1  0.16490766  0.16544894  0.75259761  1
  Mg  Mg71  1  0.49694063  0.66326428  0.24867522  1
  Mg  Mg72  1  0.66665738  0.91747268  0.75219889  1
  Mg  Mg73  1  0.16662187  0.66522990  0.24727486  1
  Mg  Mg74  1  0.16959021  0.33548088  0.24679239  1
  Mg  Mg75  1  0.00166911  0.41470697  0.24895849  1
  Mg  Mg76  1  0.66449580  0.91553560  0.25007700  1
  Mg  Mg77  1  -0.00064207  0.91441385  0.74731818  1
  Mg  Mg78  1  -0.00038036  0.91531388  0.25209265  1
  Mg  Mg79  1  0.16820585  0.33362313  0.74974945  1
  Mg  Mg80  1  0.83040056  0.16619804  0.25127779  1
  Mg  Mg81  1  0.50193509  0.83425223  0.75275293  1
  Mg  Mg82  1  0.33137957  0.91805612  0.25275902  1
  Mg  Mg83  1  0.83267120  0.83430465  0.74815992  1
  Mg  Mg84  1  0.33346246  0.57868282  0.24706957  1
  Mg  Mg85  1  -0.00104237  0.08437081  0.25267595  1
  Mg  Mg86  1  -0.00246971  0.08444963  0.75293071  1
  Mg  Mg87  1  0.66586249  0.09103392  0.75280527  1
  Mg  Mg88  1  0.83287360  0.83371159  0.25072218  1
  Mg  Mg89  1  0.16734370  0.66525433  0.74638484  1
  Mg  Mg90  1  0.66247772  0.58095721  0.25147709  1
  Mg  Mg91  1  0.33897926  0.41374647  0.74791144  1
  Mg  Mg92  1  -0.00129065  0.58358292  0.74411050  1
  Mg  Mg93  1  0.16485881  0.83384891  0.25190303  1
  Mg  Mg94  1  0.83177776  0.66523386  0.74460393  1
  Mg  Mg95  1  0.83304969  0.33485859  0.24964354  1
  Fe  Fe96  1  0.68966456  0.67011023  0.60517249  1
  Fe  Fe97  1  0.18945234  0.58359879  0.10666474  1
  Fe  Fe98  1  0.80196422  0.08120232  0.89537190  1
  Fe  Fe99  1  0.97374718  0.33598907  0.39093123  1
  Fe  Fe100  1  0.02583961  0.83177331  0.60754441  1
  Fe  Fe101  1  0.85946472  0.58118110  0.60503025  1
  Fe  Fe102  1  0.85510615  0.91524393  0.11091865  1
  Fe  Fe103  1  0.02846541  0.33181719  0.11007955  1
  Fe  Fe104  1  0.52032574  0.08520658  0.61159624  1
  Fe  Fe105  1  0.36294104  0.33104063  0.10695724  1
  Fe  Fe106  1  0.47361050  0.08620446  0.89301319  1
  Fe  Fe107  1  0.02799703  0.33229014  0.61150246  1
  Fe  Fe108  1  0.52224997  0.41630549  0.60597872  1
  Fe  Fe109  1  0.69504370  0.32852089  0.60803971  1
  Fe  Fe110  1  0.14199104  0.91441151  0.39350692  1
  Fe  Fe111  1  0.97673753  0.16981688  0.89430968  1
  Fe  Fe112  1  0.69481782  0.33801747  0.10977022  1
  Si  Si113  1  0.14247709  0.58752275  0.38482013  1
  Si  Si114  1  0.64387150  0.33959243  0.88340976  1
  Si  Si115  1  0.85423584  0.91838512  0.61263188  1
  Si  Si116  1  0.35548645  0.16185796  0.11163029  1
  Si  Si117  1  0.51849830  0.58424978  0.60944764  1
  Si  Si118  1  0.36340361  0.83215655  0.61821112  1
  Si  Si119  1  0.68821961  0.17062064  0.11412770  1
  Si  Si120  1  0.86409120  0.42317219  0.11047752  1
  Si  Si121  1  0.19211392  0.08131760  0.61647458  1
  Si  Si122  1  0.47832141  0.91354211  0.89032019  1
  Si  Si123  1  0.02270051  0.66890276  0.11040304  1
  Si  Si124  1  0.64149611  0.82612761  0.88607226  1
  Si  Si125  1  0.85901935  0.08054127  0.61708008  1
  Si  Si126  1  0.85199555  0.08479153  0.11599336  1
  Si  Si127  1  0.30813837  0.33443696  0.88456828  1
  Si  Si128  1  0.20116943  0.91571951  0.61496708  1
  Si  Si129  1  0.68629458  0.82791576  0.11419816  1
  Si  Si130  1  0.19996656  0.58386883  0.61427385  1
  Si  Si131  1  0.31021619  0.83099977  0.88672075  1
  Si  Si132  1  0.81035179  0.42131301  0.88425334  1
  Si  Si133  1  0.31076589  0.66618859  0.88515690  1
  Si  Si134  1  0.35064492  0.17108283  0.61265044  1
  Si  Si135  1  0.96697506  0.83187045  0.39000977  1
  Si  Si136  1  0.35928937  0.83564119  0.11536309  1
  Si  Si137  1  0.47438746  0.08576498  0.38517055  1
  Si  Si138  1  0.18953474  0.07883414  0.11795296  1
  Si  Si139  1  0.31261031  0.82922109  0.38860844  1
  Si  Si140  1  0.85557776  0.58831046  0.11442073  1
  Si  Si141  1  0.30957234  0.33492047  0.38278254  1
  Si  Si142  1  0.30933150  0.17147469  0.38475748  1
  Si  Si143  1  0.64139562  0.66183573  0.88494401  1
  Si  Si144  1  0.03151331  0.66009426  0.60847607  1
  Si  Si145  1  0.97116837  0.66306559  0.38588982  1
  Si  Si146  1  0.52037723  0.91742610  0.61676765  1
  Si  Si147  1  0.19330262  0.91437630  0.11540656  1
  Si  Si148  1  0.52915089  0.42169120  0.10961350  1
  Si  Si149  1  0.52473477  0.58508366  0.11535998  1
  Si  Si150  1  0.14545228  0.42152744  0.88493514  1
  Si  Si151  1  0.47273493  0.91923133  0.38663679  1
  Si  Si152  1  0.63690077  0.66797719  0.38525672  1
  Si  Si153  1  0.47340511  0.58051368  0.38327988  1
  Si  Si154  1  0.63728770  0.17477018  0.89341738  1
  Si  Si155  1  0.14546166  0.08622417  0.38980932  1
  Si  Si156  1  0.80760265  0.08065216  0.38622499  1
  Si  Si157  1  0.36195095  0.66975603  0.11088153  1
  Si  Si158  1  0.13974879  0.07866949  0.88845945  1
  Si  Si159  1  0.47467517  0.41579897  0.38040571  1
  Si  Si160  1  0.68980271  0.16026305  0.61035625  1
  Si  Si161  1  0.63585143  0.83368698  0.38599698  1
  Si  Si162  1  0.19883514  0.41837136  0.61260352  1
  Si  Si163  1  0.80360479  0.58546279  0.38590697  1
  Si  Si164  1  0.02404323  0.16036006  0.61385202  1
  Si  Si165  1  0.36032596  0.66976351  0.61607301  1
  Si  Si166  1  0.81060863  0.58542481  0.88411953  1
  Si  Si167  1  0.80139222  0.42027376  0.38782052  1
  Si  Si168  1  0.64027057  0.16808921  0.38475721  1
  Si  Si169  1  0.35683597  0.33142193  0.61335624  1
  Si  Si170  1  0.80908160  0.90847571  0.88869123  1
  Si  Si171  1  0.97815076  0.83137100  0.88451709  1
  Si  Si172  1  0.19325335  0.41471160  0.10785471  1
  Si  Si173  1  0.68764198  0.66396545  0.11621619  1
  Si  Si174  1  0.85982282  0.41451159  0.61119993  1
  Si  Si175  1  0.97373886  0.16296616  0.38954900  1
  Si  Si176  1  0.02800852  0.83716739  0.11205071  1
  Si  Si177  1  0.68528182  0.83994369  0.61361769  1
  Si  Si178  1  0.52309796  0.08111009  0.11535406  1
  Si  Si179  1  0.14752530  0.42136663  0.38652064  1
  Si  Si180  1  0.14547430  0.91404863  0.88603900  1
  Si  Si181  1  0.31174819  0.66479016  0.38445471  1
  Si  Si182  1  0.52488227  0.91625307  0.11518179  1
  Si  Si183  1  0.97772361  0.66680033  0.88270310  1
  Si  Si184  1  0.80176124  0.91455212  0.38757523  1
  Si  Si185  1  0.97928114  0.34150368  0.88865996  1
  Si  Si186  1  0.63750861  0.33249428  0.38448108  1
  Si  Si187  1  0.30085809  0.16770873  0.88773326  1
  Si  Si188  1  0.47511317  0.41658378  0.88489776  1
  Si  Si189  1  0.14417915  0.58531270  0.88281431  1
  Si  Si190  1  0.02199579  0.16142287  0.11616882  1
  Si  Si191  1  0.47520230  0.58026433  0.88578146  1
  O  O192  1  0.27048253  0.10998080  0.08738773  1
  O  O193  1  0.26865760  0.11765511  0.58513419  1
  O  O194  1  0.28312783  0.62416383  0.07277879  1
  O  O195  1  0.28357804  0.61434929  0.58671899  1
  O  O196  1  0.60741777  0.11379625  0.09082672  1
  O  O197  1  0.61829981  0.10171131  0.57595935  1
  O  O198  1  0.60901121  0.61118465  0.08468677  1
  O  O199  1  0.59752172  0.60816427  0.57506439  1
  O  O200  1  0.94027794  0.10841408  0.09143515  1
  O  O201  1  0.94308553  0.10666804  0.58697632  1
  O  O202  1  0.93158956  0.62665796  0.08300122  1
  O  O203  1  0.96644049  0.59735283  0.57973793  1
  O  O204  1  0.12673463  0.35161309  0.07708629  1
  O  O205  1  0.12342726  0.36708454  0.57833258  1
  O  O206  1  0.11511140  0.86141336  0.08334639  1
  O  O207  1  0.12574818  0.86465023  0.57982264  1
  O  O208  1  0.45614901  0.36807380  0.07277820  1
  O  O209  1  0.43554632  0.34775852  0.57686817  1
  O  O210  1  0.43757969  0.87232257  0.08516077  1
  O  O211  1  0.45067528  0.85168399  0.59136420  1
  O  O212  1  0.78973721  0.37002909  0.07528754  1
  O  O213  1  0.79899706  0.34836462  0.58135414  1
  O  O214  1  0.76312907  0.85282025  0.07895069  1
  O  O215  1  0.76819532  0.87106449  0.58517753  1
  O  O216  1  0.27958624  0.39926842  0.07853671  1
  O  O217  1  0.28488629  0.39378606  0.58576794  1
  O  O218  1  0.27518055  0.88283733  0.08526026  1
  O  O219  1  0.28961525  0.89028617  0.59019007  1
  O  O220  1  0.61456993  0.40911012  0.07861869  1
  O  O221  1  0.61286863  0.39232780  0.56644670  1
  O  O222  1  0.60019617  0.87526979  0.08533520  1
  O  O223  1  0.60816424  0.89814324  0.58941489  1
  O  O224  1  0.95007589  0.40597937  0.08254650  1
  O  O225  1  0.94959427  0.40444379  0.58461852  1
  O  O226  1  0.95096698  0.88632759  0.07512446  1
  O  O227  1  0.93005745  0.88879669  0.57713619  1
  O  O228  1  0.10346858  0.12433565  0.08803738  1
  O  O229  1  0.10409497  0.12202713  0.58522018  1
  O  O230  1  0.09330584  0.63972114  0.06966402  1
  O  O231  1  0.12378282  0.63912332  0.58578240  1
  O  O232  1  0.43475418  0.12134783  0.08222572  1
  O  O233  1  0.42775191  0.14643618  0.57677260  1
  O  O234  1  0.44934916  0.64280486  0.08512125  1
  O  O235  1  0.44452170  0.64849369  0.58707564  1
  O  O236  1  0.77341114  0.13982662  0.08777325  1
  O  O237  1  0.78144614  0.13422019  0.58759617  1
  O  O238  1  0.77084959  0.63736252  0.08637480  1
  O  O239  1  0.78314436  0.65081816  0.56751907  1
  O  O240  1  0.06382809  0.12117554  0.41768325  1
  O  O241  1  0.06385984  0.10101209  0.92533201  1
  O  O242  1  0.06368356  0.62500737  0.41561102  1
  O  O243  1  0.06404208  0.62071653  0.91167630  1
  O  O244  1  0.39644296  0.12519729  0.41425247  1
  O  O245  1  0.37858717  0.12075238  0.92556055  1
  O  O246  1  0.39444295  0.61516477  0.41560442  1
  O  O247  1  0.39864947  0.62314833  0.91482522  1
  O  O248  1  0.72922882  0.12342516  0.41257576  1
  O  O249  1  0.71469696  0.12530154  0.93072098  1
  O  O250  1  0.72916731  0.63201795  0.41320795  1
  O  O251  1  0.73224697  0.62334774  0.91468759  1
  O  O252  1  0.23680963  0.37841406  0.41509306  1
  O  O253  1  0.23237890  0.37682086  0.91411944  1
  O  O254  1  0.23774211  0.85671262  0.42518051  1
  O  O255  1  0.22950473  0.86458021  0.91582773  1
  O  O256  1  0.55889345  0.36916575  0.41373569  1
  O  O257  1  0.56562680  0.37873129  0.91527855  1
  O  O258  1  0.56114375  0.87610635  0.41580678  1
  O  O259  1  0.56282429  0.86258440  0.91583794  1
  O  O260  1  0.88760880  0.38400656  0.42503136  1
  O  O261  1  0.89924017  0.38132239  0.91602664  1
  O  O262  1  0.88529708  0.86767145  0.41894621  1
  O  O263  1  0.89756929  0.86177256  0.91477012  1
  O  O264  1  0.07568044  0.38552811  0.42202065  1
  O  O265  1  0.06346456  0.39387197  0.91453940  1
  O  O266  1  0.05032320  0.87287666  0.42753046  1
  O  O267  1  0.06463026  0.87762860  0.91390784  1
  O  O268  1  0.39667183  0.37951042  0.41155683  1
  O  O269  1  0.39831112  0.37464413  0.91410124  1
  O  O270  1  0.39848310  0.87744258  0.41698267  1
  O  O271  1  0.39798609  0.87251035  0.91753768  1
  O  O272  1  0.72177081  0.37966657  0.41368278  1
  O  O273  1  0.73056875  0.38681365  0.91411638  1
  O  O274  1  0.72354594  0.87551878  0.41689380  1
  O  O275  1  0.73334449  0.86110985  0.91531829  1
  O  O276  1  0.23028530  0.13647066  0.41605552  1
  O  O277  1  0.21806229  0.13431837  0.91493154  1
  O  O278  1  0.22858169  0.63477905  0.41364976  1
  O  O279  1  0.22957709  0.63223135  0.91293098  1
  O  O280  1  0.56436783  0.12643785  0.41578298  1
  O  O281  1  0.55606122  0.15248027  0.92754253  1
  O  O282  1  0.56083291  0.62600721  0.41396192  1
  O  O283  1  0.56564353  0.62027584  0.91520235  1
  O  O284  1  0.89860673  0.11718145  0.41891332  1
  O  O285  1  0.89403612  0.13331740  0.93635797  1
  O  O286  1  0.89589937  0.62130294  0.41690202  1
  O  O287  1  0.89794825  0.63155814  0.91261971  1
  O  O288  1  0.17498329  -0.00367283  0.08701899  1
  O  O289  1  0.18339698  -0.00145189  0.58794900  1
  O  O290  1  0.15744433  0.49221457  0.07531037  1
  O  O291  1  0.18033647  0.50267031  0.58555049  1
  O  O292  1  0.51459754  -0.00219897  0.08538239  1
  O  O293  1  0.48135558  -0.00926847  0.58311477  1
  O  O294  1  0.49734355  0.50581715  0.08605471  1
  O  O295  1  0.47751511  0.50966749  0.57912676  1
  O  O296  1  0.82408713  0.00818230  0.08180536  1
  O  O297  1  0.83230983  0.00054161  0.58466491  1
  O  O298  1  0.83682095  0.50758228  0.08447041  1
  O  O299  1  0.81647443  0.48987786  0.58089153  1
  O  O300  1  -0.00121708  0.23749328  0.08047025  1
  O  O301  1  0.00559529  0.23766226  0.57876893  1
  O  O302  1  0.00535434  0.75367156  0.08673303  1
  O  O303  1  0.00508294  0.73780840  0.57484433  1
  O  O304  1  0.33727119  0.23675102  0.07200243  1
  O  O305  1  0.31638960  0.25199733  0.58738106  1
  O  O306  1  0.34859133  0.75452761  0.08368198  1
  O  O307  1  0.33240046  0.75168747  0.59004824  1
  O  O308  1  0.66079397  0.24559619  0.07677885  1
  O  O309  1  0.66673977  0.23637449  0.57244504  1
  O  O310  1  0.66048177  0.74479380  0.08793381  1
  O  O311  1  0.65484915  0.76519387  0.57774438  1
  O  O312  1  0.16375836  0.00898976  0.42609783  1
  O  O313  1  0.16796944  -0.00502810  0.91480940  1
  O  O314  1  0.15997499  0.50594744  0.41477948  1
  O  O315  1  0.16223621  0.50463744  0.91306283  1
  O  O316  1  0.48125129  0.00212724  0.41504395  1
  O  O317  1  0.49330623  -0.01013079  0.92653569  1
  O  O318  1  0.48688694  0.49834323  0.41206942  1
  O  O319  1  0.47892891  0.49939161  0.91724648  1
  O  O320  1  0.80844179  -0.00247222  0.41651472  1
  O  O321  1  0.81684353  -0.01644699  0.92700668  1
  O  O322  1  0.79952494  0.50436525  0.41504608  1
  O  O323  1  0.82158880  0.50452318  0.91589335  1
  O  O324  1  0.32202409  0.25334130  0.41605903  1
  O  O325  1  0.31110707  0.25239459  0.91338809  1
  O  O326  1  0.33555225  0.74566992  0.41462190  1
  O  O327  1  0.32284510  0.74810232  0.91532282  1
  O  O328  1  0.65130505  0.25024025  0.41566101  1
  O  O329  1  0.65844140  0.25990623  0.91671715  1
  O  O330  1  0.63938426  0.75084749  0.41466019  1
  O  O331  1  0.64529403  0.74341922  0.91572615  1
  O  O332  1  0.98027228  0.24104490  0.42398365  1
  O  O333  1  1.00070241  0.26565058  0.92526523  1
  O  O334  1  0.97345091  0.74597605  0.41433551  1
  O  O335  1  0.99474136  0.74845804  0.91368210  1
  O  O336  1  0.20566053  0.07966437  0.19772299  1
  O  O337  1  0.20997224  0.08176703  0.69716915  1
  O  O338  1  0.21180672  0.58529459  0.19824277  1
  O  O339  1  0.21558150  0.58400696  0.69521049  1
  O  O340  1  0.53171333  0.08065410  0.19437399  1
  O  O341  1  0.54443144  0.08235923  0.70284721  1
  O  O342  1  0.54540085  0.58880022  0.19480860  1
  O  O343  1  0.54036411  0.58535500  0.69156650  1
  O  O344  1  0.87286117  0.08339826  0.19714026  1
  O  O345  1  0.88177857  0.07439438  0.69612197  1
  O  O346  1  0.87496402  0.58633343  0.19484931  1
  O  O347  1  0.87931076  0.58524974  0.69827299  1
  O  O348  1  0.04759301  0.33270386  0.20193739  1
  O  O349  1  0.05001255  0.33278871  0.70312429  1
  O  O350  1  0.04725386  0.84171138  0.19174169  1
  O  O351  1  0.04666671  0.83241184  0.69971904  1
  O  O352  1  0.37945631  0.32866746  0.19709020  1
  O  O353  1  0.37233420  0.33252890  0.69364373  1
  O  O354  1  0.37640495  0.83375556  0.19572615  1
  O  O355  1  0.37904680  0.83190623  0.69913761  1
  O  O356  1  0.71307385  0.33581893  0.20183602  1
  O  O357  1  0.71517144  0.33583340  0.69846641  1
  O  O358  1  0.70434930  0.83045616  0.19516655  1
  O  O359  1  0.70747259  0.83492453  0.69493833  1
  O  O360  1  0.20528807  0.41683070  0.18917608  1
  O  O361  1  0.21384891  0.41840126  0.69389631  1
  O  O362  1  0.21236073  0.91408007  0.19560029  1
  O  O363  1  0.21424180  0.91474085  0.69619607  1
  O  O364  1  0.54600853  0.41532374  0.19006319  1
  O  O365  1  0.54676132  0.42028126  0.69670793  1
  O  O366  1  0.54099745  0.91458923  0.19543148  1
  O  O367  1  0.54041055  0.91547960  0.69803236  1
  O  O368  1  0.87587105  0.42128212  0.19201465  1
  O  O369  1  0.87890941  0.41814360  0.69360725  1
  O  O370  1  0.87781084  0.91460517  0.20264605  1
  O  O371  1  0.87549309  0.91490623  0.69380212  1
  O  O372  1  0.04284260  0.16439699  0.19739633  1
  O  O373  1  0.04644438  0.16276946  0.69449169  1
  O  O374  1  0.04634342  0.66003088  0.18987428  1
  O  O375  1  0.04757341  0.66551104  0.69074194  1
  O  O376  1  0.37628319  0.16714870  0.19154721  1
  O  O377  1  0.37045850  0.16667024  0.69331080  1
  O  O378  1  0.37635715  0.66943887  0.19166486  1
  O  O379  1  0.37737489  0.66754719  0.69697940  1
  O  O380  1  0.71160958  0.17463607  0.19396513  1
  O  O381  1  0.69971019  0.16336118  0.68961288  1
  O  O382  1  0.70655519  0.66458706  0.19663959  1
  O  O383  1  0.71020444  0.66791147  0.69846138  1
  O  O384  1  0.12492402  0.08381070  0.30903025  1
  O  O385  1  0.12396208  0.07855991  0.80729359  1
  O  O386  1  0.12182327  0.58694463  0.30501609  1
  O  O387  1  0.12651250  0.58543660  0.80253975  1
  O  O388  1  0.45898328  0.08365016  0.30577358  1
  O  O389  1  0.45161628  0.08249952  0.80185736  1
  O  O390  1  0.45352971  0.58777588  0.30426580  1
  O  O391  1  0.45751338  0.58388245  0.80557139  1
  O  O392  1  0.79725684  0.08021953  0.30709656  1
  O  O393  1  0.78211551  0.07478686  0.80500655  1
  O  O394  1  0.78769956  0.58545236  0.30540773  1
  O  O395  1  0.79121431  0.58570084  0.80451324  1
  O  O396  1  0.28641765  0.32960217  0.30385983  1
  O  O397  1  0.29067526  0.33548518  0.80422731  1
  O  O398  1  0.29351386  0.83192674  0.30757182  1
  O  O399  1  0.29160685  0.83165012  0.80629753  1
  O  O400  1  0.62037743  0.33287667  0.30435795  1
  O  O401  1  0.62368016  0.34080902  0.80518219  1
  O  O402  1  0.61987490  0.83190179  0.30564556  1
  O  O403  1  0.62354029  0.82904463  0.80564523  1
  O  O404  1  0.95289830  0.33547015  0.29978460  1
  O  O405  1  0.96114263  0.33946304  0.80828691  1
  O  O406  1  0.95026663  0.83789970  0.31053138  1
  O  O407  1  0.95867099  0.83155825  0.80433304  1
  O  O408  1  0.12746259  0.42031085  0.30609463  1
  O  O409  1  0.12913121  0.42033160  0.80477032  1
  O  O410  1  0.12186097  0.91518949  0.30205501  1
  O  O411  1  0.12745106  0.91377940  0.80575190  1
  O  O412  1  0.45995843  0.41604380  0.30185053  1
  O  O413  1  0.45365935  0.42312884  0.80601691  1
  O  O414  1  0.45511282  0.91568134  0.30635621  1
  O  O415  1  0.45714572  0.91350754  0.80939243  1
  O  O416  1  0.79006120  0.41995483  0.30711095  1
  O  O417  1  0.79340485  0.42431698  0.80455905  1
  O  O418  1  0.78422570  0.91384708  0.30752065  1
  O  O419  1  0.79104904  0.91098766  0.80769624  1
  O  O420  1  0.28976886  0.16967129  0.30525634  1
  O  O421  1  0.28710131  0.16537866  0.80686676  1
  O  O422  1  0.29340386  0.66653175  0.30438333  1
  O  O423  1  0.29280801  0.66626016  0.80483657  1
  O  O424  1  0.61835819  0.17205813  0.30573924  1
  O  O425  1  0.62048387  0.16503244  0.81366723  1
  O  O426  1  0.62000602  0.66782482  0.30496027  1
  O  O427  1  0.62227946  0.66472760  0.80494096  1
  O  O428  1  0.95590209  0.16476671  0.30861328  1
  O  O429  1  0.96945305  0.16752543  0.80421345  1
  O  O430  1  0.95145243  0.65900744  0.30649395  1
  O  O431  1  0.96037412  0.66817177  0.80268463  1
  F  F432  1  0.04484268  0.00258958  0.20525570  1
  F  F433  1  0.04805399  -0.00235536  0.70356072  1
  F  F434  1  0.04597525  0.50098814  0.20396791  1
  F  F435  1  0.05077715  0.50100230  0.70199445  1
  F  F436  1  0.37875651  -0.00703765  0.20156781  1
  F  F437  1  0.37642896  -0.00330097  0.70401429  1
  F  F438  1  0.37721505  0.50539488  0.19602312  1
  F  F439  1  0.37878539  0.50211523  0.70223861  1
  F  F440  1  0.71414047  -0.01210050  0.19923701  1
  F  F441  1  0.71116399  -0.00534867  0.70340378  1
  F  F442  1  0.71321041  0.50274974  0.20240592  1
  F  F443  1  0.71243496  0.50187242  0.70149371  1
  F  F444  1  0.21039677  0.24689106  0.20118734  1
  F  F445  1  0.21254257  0.24805041  0.70461209  1
  F  F446  1  0.21368744  0.75193664  0.20034016  1
  F  F447  1  0.21590544  0.74967892  0.70281678  1
  F  F448  1  0.54428229  0.24900565  0.20106367  1
  F  F449  1  0.54089430  0.24588349  0.70192523  1
  F  F450  1  0.54272196  0.75113111  0.20226618  1
  F  F451  1  0.54382292  0.75003858  0.70427142  1
  F  F452  1  0.87887184  0.24755955  0.20422073  1
  F  F453  1  0.88716135  0.26001398  0.70149827  1
  F  F454  1  0.86310703  0.74915793  0.19986885  1
  F  F455  1  0.87946645  0.75170465  0.70104544  1
  F  F456  1  0.28650974  -0.00579743  0.30322327  1
  F  F457  1  0.28783571  -0.00242206  0.79997828  1
  F  F458  1  0.28670493  0.50402680  0.30079747  1
  F  F459  1  0.28992603  0.50132900  0.79840655  1
  F  F460  1  0.61380152  -0.01165566  0.30236516  1
  F  F461  1  0.61953491  -0.00748514  0.80364141  1
  F  F462  1  0.62666710  0.49989414  0.29988531  1
  F  F463  1  0.62213527  0.50687226  0.79830163  1
  F  F464  1  0.95495524  0.00125395  0.30103843  1
  F  F465  1  0.95664058  -0.00603765  0.79906661  1
  F  F466  1  0.95432790  0.50113593  0.29697837  1
  F  F467  1  0.95940549  0.50159771  0.79686422  1
  F  F468  1  0.12306732  0.24721467  0.30025641  1
  F  F469  1  0.12724742  0.24961789  0.80139337  1
  F  F470  1  0.13394203  0.74797553  0.30011513  1
  F  F471  1  0.12511875  0.74667596  0.79804724  1
  F  F472  1  0.45469953  0.24770556  0.29868340  1
  F  F473  1  0.44863284  0.24468171  0.80253823  1
  F  F474  1  0.45433031  0.75002568  0.29763670  1
  F  F475  1  0.45637378  0.74779664  0.80098526  1
  F  F476  1  0.78857975  0.24887180  0.30149203  1
  F  F477  1  0.79878257  0.26596963  0.81355525  1
  F  F478  1  0.78353054  0.74939365  0.30030153  1
  F  F479  1  0.79035985  0.75059887  0.79765910  1
