# generated using pymatgen
data_K24Na3Li5Mg64Fe17Si79(O5F)48
_symmetry_space_group_name_H-M   'P 1'
_cell_length_a   16.11652830
_cell_length_b   18.60886033
_cell_length_c   20.59032567
_cell_angle_alpha   90.02174705
_cell_angle_beta   100.03103808
_cell_angle_gamma   89.99692789
_symmetry_Int_Tables_number   1
_chemical_formula_structural   K24Na3Li5Mg64Fe17Si79(O5F)48
_chemical_formula_sum   'K24 Na3 Li5 Mg64 Fe17 Si79 O240 F48'
_cell_volume   6080.85105106
_cell_formula_units_Z   1
loop_
 _symmetry_equiv_pos_site_id
 _symmetry_equiv_pos_as_xyz
  1  'x, y, z'
loop_
 _atom_site_type_symbol
 _atom_site_label
 _atom_site_symmetry_multiplicity
 _atom_site_fract_x
 _atom_site_fract_y
 _atom_site_fract_z
 _atom_site_occupancy
  K  K0  1  0.01215765  0.00381488  -0.00286239  1
  K  K1  1  -0.00239916  0.00564453  0.50753258  1
  K  K2  1  -0.00535643  0.48665552  -0.00389774  1
  K  K3  1  -0.00443661  0.49617501  0.50528783  1
  K  K4  1  0.33093481  -0.00177649  -0.00413775  1
  K  K5  1  0.32816984  0.01103323  0.50237609  1
  K  K6  1  0.33256728  0.49305580  -0.00287873  1
  K  K7  1  0.34085773  0.49924248  0.50768708  1
  K  K8  1  0.66021491  0.00089858  0.00029973  1
  K  K9  1  0.66863580  0.00370392  0.49947995  1
  K  K10  1  0.66969518  0.50246169  -0.00153121  1
  K  K11  1  0.66618561  0.48458661  0.50702400  1
  K  K12  1  0.15533431  0.23773676  -0.01374895  1
  K  K13  1  0.17682259  0.24001891  0.50541251  1
  K  K14  1  0.17647698  0.75542525  0.00180474  1
  K  K15  1  0.17077992  0.76712775  0.50151877  1
  K  K16  1  0.49081592  0.24777540  0.00385472  1
  K  K17  1  0.50782653  0.24075476  0.49933021  1
  K  K18  1  0.49804637  0.77129330  -0.00579493  1
  K  K19  1  0.49426130  0.75565363  0.50399469  1
  K  K20  1  0.84406704  0.24139956  -0.01132774  1
  K  K21  1  0.82295282  0.24083006  0.50971102  1
  K  K22  1  0.82943859  0.75479732  -0.00064375  1
  K  K23  1  0.83186491  0.76014775  0.50782099  1
  Na  Na24  1  0.16603112  0.00063797  0.24591855  1
  Na  Na25  1  0.66897775  0.07804516  0.25459094  1
  Na  Na26  1  0.16265268  0.32880184  0.75575145  1
  Li  Li27  1  0.82981973  0.00068075  0.25059457  1
  Li  Li28  1  0.16047772  0.00369111  0.74473557  1
  Li  Li29  1  0.83497174  0.32480158  0.75051775  1
  Li  Li30  1  0.50130573  0.83600827  0.24823216  1
  Li  Li31  1  0.00653642  0.08343259  0.75249550  1
  Mg  Mg32  1  0.16576324  0.50058548  0.24801169  1
  Mg  Mg33  1  0.50132817  -0.00360671  0.25328541  1
  Mg  Mg34  1  -0.00384375  0.24712977  0.75463350  1
  Mg  Mg35  1  0.83749747  0.00088751  0.75134073  1
  Mg  Mg36  1  -0.00070395  0.24802899  0.25148043  1
  Mg  Mg37  1  0.66612429  0.75226102  0.24703916  1
  Mg  Mg38  1  0.50002866  0.49930880  0.74777540  1
  Mg  Mg39  1  0.33214964  0.24880464  0.74952728  1
  Mg  Mg40  1  0.33461031  0.75204078  0.75003885  1
  Mg  Mg41  1  0.67413745  0.24886688  0.74993513  1
  Mg  Mg42  1  0.16534158  0.49801452  0.75306704  1
  Mg  Mg43  1  0.66580028  0.75151857  0.74918951  1
  Mg  Mg44  1  0.50121187  0.50008899  0.24843476  1
  Mg  Mg45  1  0.33602611  0.75251272  0.24747558  1
  Mg  Mg46  1  0.49843658  0.00049633  0.75029666  1
  Mg  Mg47  1  0.33266737  0.24964662  0.24668467  1
  Mg  Mg48  1  0.83348893  0.49540830  0.75068644  1
  Mg  Mg49  1  0.66306175  0.24850742  0.25219559  1
  Mg  Mg50  1  -0.00016331  0.75225218  0.24529206  1
  Mg  Mg51  1  0.00194769  0.75169495  0.75079041  1
  Mg  Mg52  1  0.83358291  0.50093263  0.24675551  1
  Mg  Mg53  1  0.83280105  0.66611237  0.74884574  1
  Mg  Mg54  1  -0.00317022  0.41253904  0.75309253  1
  Mg  Mg55  1  0.66632796  0.41501144  0.24954504  1
  Mg  Mg56  1  0.32934224  0.08431400  0.75022235  1
  Mg  Mg57  1  0.33216128  0.91768473  0.75318020  1
  Mg  Mg58  1  0.49613017  0.66689972  0.74783025  1
  Mg  Mg59  1  0.66847872  0.91707748  0.25151026  1
  Mg  Mg60  1  0.33419993  0.41602456  0.24964411  1
  Mg  Mg61  1  0.33087587  0.41481233  0.75007107  1
  Mg  Mg62  1  -0.00267920  0.41532110  0.24836273  1
  Mg  Mg63  1  0.16768116  0.16494357  0.24938623  1
  Mg  Mg64  1  0.16315266  0.16398578  0.75240138  1
  Mg  Mg65  1  0.83117706  0.33250173  0.25046015  1
  Mg  Mg66  1  0.17099435  0.83738580  0.75159942  1
  Mg  Mg67  1  0.83003154  0.16238333  0.25312428  1
  Mg  Mg68  1  0.49602335  0.83674994  0.74978869  1
  Mg  Mg69  1  0.83375818  0.83709425  0.24870075  1
  Mg  Mg70  1  -0.00357408  0.08164985  0.25100231  1
  Mg  Mg71  1  0.33429833  0.58515451  0.24924596  1
  Mg  Mg72  1  0.66583904  0.58405378  0.74785254  1
  Mg  Mg73  1  0.83208413  0.83450559  0.74835302  1
  Mg  Mg74  1  0.66765473  0.08310047  0.75034470  1
  Mg  Mg75  1  0.49993381  0.33292877  0.25007323  1
  Mg  Mg76  1  0.66541030  0.91488475  0.74892593  1
  Mg  Mg77  1  0.00356600  0.91988077  0.75030159  1
  Mg  Mg78  1  0.50030078  0.16631985  0.74973168  1
  Mg  Mg79  1  0.67057018  0.41382087  0.74999852  1
  Mg  Mg80  1  0.16898743  0.66584978  0.75227225  1
  Mg  Mg81  1  0.16583492  0.66710632  0.24717516  1
  Mg  Mg82  1  0.50045883  0.33320049  0.74727887  1
  Mg  Mg83  1  0.66776009  0.58596464  0.24652019  1
  Mg  Mg84  1  0.83560697  0.16488057  0.75197783  1
  Mg  Mg85  1  0.00012317  0.58306048  0.75237505  1
  Mg  Mg86  1  0.50032141  0.16353616  0.25163701  1
  Mg  Mg87  1  0.33260757  0.08302290  0.24967179  1
  Mg  Mg88  1  -0.00099190  0.91940779  0.24675656  1
  Mg  Mg89  1  0.33436990  0.91535462  0.24636979  1
  Mg  Mg90  1  0.50137484  0.66942010  0.24867839  1
  Mg  Mg91  1  -0.00284748  0.58458884  0.24545944  1
  Mg  Mg92  1  0.16669737  0.83572512  0.24518779  1
  Mg  Mg93  1  0.83347355  0.66661947  0.24443632  1
  Mg  Mg94  1  0.16688827  0.33489207  0.24931966  1
  Mg  Mg95  1  0.33240653  0.58433723  0.74915697  1
  Fe  Fe96  1  0.35376869  0.66480970  0.60835969  1
  Fe  Fe97  1  0.64207709  0.33741075  0.39049476  1
  Fe  Fe98  1  0.69043952  0.83571854  0.60925005  1
  Fe  Fe99  1  0.35364264  0.83742031  0.60735788  1
  Fe  Fe100  1  0.47758903  0.92735672  0.89327671  1
  Fe  Fe101  1  0.30797052  0.16878218  0.38818810  1
  Fe  Fe102  1  0.64430474  0.16286649  0.39188246  1
  Fe  Fe103  1  0.69145827  0.33124981  0.61190651  1
  Fe  Fe104  1  0.69358562  0.15598446  0.61183526  1
  Fe  Fe105  1  0.18818637  0.92485352  0.61159298  1
  Fe  Fe106  1  0.97674409  0.15592228  0.89296379  1
  Fe  Fe107  1  0.31105044  0.83003242  0.89437518  1
  Fe  Fe108  1  0.35989552  0.33853411  0.10864608  1
  Fe  Fe109  1  0.19356270  0.91434991  0.10482107  1
  Fe  Fe110  1  0.85498236  0.58012200  0.10580028  1
  Fe  Fe111  1  0.35826780  0.16925187  0.61194921  1
  Fe  Fe112  1  0.97401296  0.33158451  0.89373587  1
  Si  Si113  1  0.69318493  0.32674339  0.11438780  1
  Si  Si114  1  0.52199409  0.07957623  0.11617994  1
  Si  Si115  1  0.85971771  0.91955552  0.11476677  1
  Si  Si116  1  0.47613241  0.58908663  0.38358854  1
  Si  Si117  1  0.30642779  0.34076503  0.38616332  1
  Si  Si118  1  0.64360221  0.33525479  0.88551824  1
  Si  Si119  1  0.47535337  0.90959913  0.38224325  1
  Si  Si120  1  0.18644088  0.41721245  0.61801473  1
  Si  Si121  1  0.36510825  0.82896154  0.11174829  1
  Si  Si122  1  0.85435666  0.40939324  0.11228635  1
  Si  Si123  1  0.47986480  0.09610181  0.89020838  1
  Si  Si124  1  0.19055332  0.58795897  0.11401733  1
  Si  Si125  1  0.13742664  0.41728382  0.38424035  1
  Si  Si126  1  0.68981333  0.16438173  0.11605902  1
  Si  Si127  1  0.02477935  0.33423357  0.11593719  1
  Si  Si128  1  0.86280882  0.41871490  0.61298445  1
  Si  Si129  1  0.14261095  0.42157668  0.89051597  1
  Si  Si130  1  0.30620728  0.66759565  0.38311665  1
  Si  Si131  1  0.35937547  0.16579430  0.11008769  1
  Si  Si132  1  0.02504680  0.66488244  0.61677868  1
  Si  Si133  1  0.18540586  0.08997473  0.61297839  1
  Si  Si134  1  0.52870604  0.58581764  0.11323848  1
  Si  Si135  1  0.18619020  0.57820404  0.61426851  1
  Si  Si136  1  0.30761219  0.16929971  0.88717725  1
  Si  Si137  1  0.69413220  0.83895729  0.11427748  1
  Si  Si138  1  0.01959790  0.83189256  0.10898046  1
  Si  Si139  1  0.52398858  0.07823640  0.61501989  1
  Si  Si140  1  0.64479539  0.17183142  0.88583358  1
  Si  Si141  1  0.02353980  0.16851439  0.11543985  1
  Si  Si142  1  0.02262158  0.33399002  0.61678318  1
  Si  Si143  1  0.97734070  0.83285223  0.38387887  1
  Si  Si144  1  0.13908576  0.91110288  0.88702726  1
  Si  Si145  1  0.36097682  0.66235231  0.11333699  1
  Si  Si146  1  0.81395304  0.07665654  0.38825347  1
  Si  Si147  1  0.35259440  0.34006765  0.61284917  1
  Si  Si148  1  0.30877045  0.33505280  0.88572917  1
  Si  Si149  1  0.13896457  0.91689509  0.38169876  1
  Si  Si150  1  0.97251676  0.83606648  0.88505849  1
  Si  Si151  1  0.68876456  0.67393376  0.10925889  1
  Si  Si152  1  0.64517787  0.66740333  0.38387624  1
  Si  Si153  1  0.69276215  0.66325816  0.61255624  1
  Si  Si154  1  0.19087792  0.08857660  0.11027633  1
  Si  Si155  1  0.97503740  0.66980553  0.88580326  1
  Si  Si156  1  0.80181561  0.07477397  0.89020771  1
  Si  Si157  1  0.31326012  0.66008931  0.88951066  1
  Si  Si158  1  0.63971590  0.82980578  0.88765261  1
  Si  Si159  1  0.18685757  0.42262666  0.11239189  1
  Si  Si160  1  0.64545637  0.83230843  0.38380731  1
  Si  Si161  1  0.02879117  0.82881790  0.61503359  1
  Si  Si162  1  0.13420301  0.08566687  0.38557463  1
  Si  Si163  1  0.14045446  0.58302215  0.38298647  1
  Si  Si164  1  0.86033786  0.58266220  0.61549273  1
  Si  Si165  1  0.52806149  0.58482985  0.61313180  1
  Si  Si166  1  0.81189724  0.58784725  0.38240968  1
  Si  Si167  1  0.97048229  0.16656435  0.38765283  1
  Si  Si168  1  0.52108068  0.41988223  0.61329273  1
  Si  Si169  1  0.81152830  0.42373871  0.38502082  1
  Si  Si170  1  0.46981140  0.42393782  0.38648356  1
  Si  Si171  1  0.85800511  0.08593714  0.11587604  1
  Si  Si172  1  0.47236508  0.07519605  0.38889723  1
  Si  Si173  1  0.14179006  0.58581755  0.88825182  1
  Si  Si174  1  0.80714925  0.58814914  0.88498442  1
  Si  Si175  1  0.80405707  0.42389660  0.88963430  1
  Si  Si176  1  0.02670075  0.17348227  0.61789089  1
  Si  Si177  1  0.63721388  0.66465110  0.88390179  1
  Si  Si178  1  0.97262941  0.33324582  0.38533487  1
  Si  Si179  1  0.14997559  0.07669009  0.88687743  1
  Si  Si180  1  0.53436980  0.42082295  0.11054124  1
  Si  Si181  1  0.02490271  0.66649924  0.11043962  1
  Si  Si182  1  0.80374226  0.91044741  0.88553426  1
  Si  Si183  1  0.52882089  0.91644219  0.11710834  1
  Si  Si184  1  0.86785728  0.08136791  0.61582517  1
  Si  Si185  1  0.86635056  0.91563851  0.61369970  1
  Si  Si186  1  0.30625354  0.83312987  0.38314217  1
  Si  Si187  1  0.81199027  0.91249513  0.38574362  1
  Si  Si188  1  0.47652823  0.41044448  0.88534726  1
  Si  Si189  1  0.52445025  0.91792862  0.61305808  1
  Si  Si190  1  0.47618855  0.57509364  0.88494409  1
  Si  Si191  1  0.97748257  0.66939848  0.38238871  1
  O  O192  1  0.26916518  0.12603629  0.07984085  1
  O  O193  1  0.26439995  0.11329616  0.57725561  1
  O  O194  1  0.27314675  0.61795699  0.08517332  1
  O  O195  1  0.26509317  0.59702417  0.57905561  1
  O  O196  1  0.60395920  0.11681444  0.08949308  1
  O  O197  1  0.61023035  0.08629614  0.58563261  1
  O  O198  1  0.59567918  0.63668286  0.08322190  1
  O  O199  1  0.61834482  0.60310098  0.58826436  1
  O  O200  1  0.93508238  0.12597705  0.08540103  1
  O  O201  1  0.95047061  0.11728919  0.58936707  1
  O  O202  1  0.95434235  0.61015322  0.07625944  1
  O  O203  1  0.94162366  0.61612748  0.58687378  1
  O  O204  1  0.10054295  0.37522344  0.08705735  1
  O  O205  1  0.10926902  0.36117483  0.59004797  1
  O  O206  1  0.09437417  0.85947179  0.07298368  1
  O  O207  1  0.10546096  0.85312786  0.58001708  1
  O  O208  1  0.44815775  0.38479339  0.07347683  1
  O  O209  1  0.43165941  0.37831774  0.58480933  1
  O  O210  1  0.45031567  0.86268051  0.08826167  1
  O  O211  1  0.45772706  0.85707708  0.58126455  1
  O  O212  1  0.77820451  0.35147958  0.08629151  1
  O  O213  1  0.78419712  0.37167781  0.57755841  1
  O  O214  1  0.77123345  0.87681480  0.08377910  1
  O  O215  1  0.78540578  0.87031753  0.57721529  1
  O  O216  1  0.26246815  0.39499459  0.07727701  1
  O  O217  1  0.27011141  0.39373420  0.58712610  1
  O  O218  1  0.28446366  0.87079163  0.07200190  1
  O  O219  1  0.27586531  0.90359354  0.56740079  1
  O  O220  1  0.61519794  0.38121346  0.08473165  1
  O  O221  1  0.59689785  0.39138358  0.57950281  1
  O  O222  1  0.60917236  0.88468452  0.08555938  1
  O  O223  1  0.60858369  0.90492030  0.58018258  1
  O  O224  1  0.93876937  0.37859921  0.08643880  1
  O  O225  1  0.94804514  0.39097532  0.58396454  1
  O  O226  1  0.93306163  0.87894387  0.08145510  1
  O  O227  1  0.94627113  0.87808207  0.58587352  1
  O  O228  1  0.10265053  0.13598653  0.08477513  1
  O  O229  1  0.11009343  0.15092742  0.58698982  1
  O  O230  1  0.11486896  0.64470301  0.08627692  1
  O  O231  1  0.10419914  0.63102972  0.58642744  1
  O  O232  1  0.43591005  0.12203102  0.08158594  1
  O  O233  1  0.45555285  0.13787026  0.58202595  1
  O  O234  1  0.43381051  0.61636481  0.08449497  1
  O  O235  1  0.45574064  0.63845656  0.57785552  1
  O  O236  1  0.76805758  0.12705680  0.08487248  1
  O  O237  1  0.78738553  0.12413896  0.57629045  1
  O  O238  1  0.75860595  0.63632191  0.07282052  1
  O  O239  1  0.77796210  0.63214277  0.58615182  1
  O  O240  1  0.05337296  0.11823408  0.41699872  1
  O  O241  1  0.07921379  0.10841574  0.92653312  1
  O  O242  1  0.06198852  0.62137524  0.41173109  1
  O  O243  1  0.06264382  0.62616857  0.91578741  1
  O  O244  1  0.39116270  0.10198542  0.41939502  1
  O  O245  1  0.40195622  0.13848384  0.91751026  1
  O  O246  1  0.39731271  0.62870288  0.41143136  1
  O  O247  1  0.39405903  0.60403829  0.91446665  1
  O  O248  1  0.73432457  0.09871648  0.42096020  1
  O  O249  1  0.72291617  0.11817252  0.91667364  1
  O  O250  1  0.73085074  0.61984559  0.41252928  1
  O  O251  1  0.72954876  0.62846316  0.91347159  1
  O  O252  1  0.22295912  0.37380653  0.41439678  1
  O  O253  1  0.23727190  0.38383505  0.91320632  1
  O  O254  1  0.22888087  0.87488353  0.41051877  1
  O  O255  1  0.20998904  0.85580805  0.92240928  1
  O  O256  1  0.54579144  0.37492033  0.42219593  1
  O  O257  1  0.56030175  0.36283641  0.91585630  1
  O  O258  1  0.56258481  0.86349076  0.41126034  1
  O  O259  1  0.57861035  0.87457239  0.92634124  1
  O  O260  1  0.89639385  0.37466330  0.41353039  1
  O  O261  1  0.88575113  0.38202998  0.92699457  1
  O  O262  1  0.89573408  0.86175340  0.41442929  1
  O  O263  1  0.89412624  0.87146074  0.91563217  1
  O  O264  1  0.05895826  0.37983320  0.41331817  1
  O  O265  1  0.07638254  0.38254157  0.92876905  1
  O  O266  1  0.06292029  0.87785928  0.41451679  1
  O  O267  1  0.05246154  0.88596130  0.91615544  1
  O  O268  1  0.38006612  0.40176671  0.40976093  1
  O  O269  1  0.39956737  0.37450949  0.91744213  1
  O  O270  1  0.39805340  0.86908423  0.41264901  1
  O  O271  1  0.39733680  0.88794320  0.93671145  1
  O  O272  1  0.73261056  0.40351511  0.41841178  1
  O  O273  1  0.71942459  0.39091012  0.91634314  1
  O  O274  1  0.73158765  0.87766822  0.41632260  1
  O  O275  1  0.73703969  0.85786725  0.91468454  1
  O  O276  1  0.21413682  0.13185242  0.42082784  1
  O  O277  1  0.23938888  0.12115539  0.91850698  1
  O  O278  1  0.23028592  0.62359773  0.41126985  1
  O  O279  1  0.23004662  0.62742407  0.91805340  1
  O  O280  1  0.55309731  0.12107752  0.42411014  1
  O  O281  1  0.56174022  0.14969545  0.91739616  1
  O  O282  1  0.56399006  0.63294571  0.41199858  1
  O  O283  1  0.56380252  0.61963100  0.91406551  1
  O  O284  1  0.89454868  0.13056542  0.42004516  1
  O  O285  1  0.88919471  0.10706555  0.92881369  1
  O  O286  1  0.89518787  0.63780210  0.41078055  1
  O  O287  1  0.89516548  0.63234710  0.91387764  1
  O  O288  1  0.17400463  0.01040944  0.07621946  1
  O  O289  1  0.14593192  0.01491555  0.58059135  1
  O  O290  1  0.16430028  0.50686213  0.08656707  1
  O  O291  1  0.15346291  0.49665889  0.58782298  1
  O  O292  1  0.51286466  -0.00254466  0.08512887  1
  O  O293  1  0.48398984  -0.00194438  0.59223433  1
  O  O294  1  0.53746197  0.50503430  0.08356885  1
  O  O295  1  0.50097563  0.50327771  0.58706936  1
  O  O296  1  0.85003824  0.00279996  0.08699491  1
  O  O297  1  0.86335169  -0.00179708  0.58573909  1
  O  O298  1  0.82811928  0.48536332  0.07691237  1
  O  O299  1  0.84722644  0.50266702  0.58272380  1
  O  O300  1  0.01186170  0.25202551  0.08837690  1
  O  O301  1  -0.00064403  0.25388162  0.58472058  1
  O  O302  1  -0.00325992  0.74776549  0.08397561  1
  O  O303  1  0.00301809  0.74550165  0.58767519  1
  O  O304  1  0.35515714  0.24454444  0.07568742  1
  O  O305  1  0.33190889  0.26338261  0.57833724  1
  O  O306  1  0.35809188  0.74364143  0.08394318  1
  O  O307  1  0.31891793  0.74940626  0.56763134  1
  O  O308  1  0.67020324  0.24590435  0.08369885  1
  O  O309  1  0.65980148  0.24377734  0.57457201  1
  O  O310  1  0.67993302  0.75770219  0.08266420  1
  O  O311  1  0.66818672  0.73938160  0.57686073  1
  O  O312  1  0.14587960  -0.00021672  0.40858306  1
  O  O313  1  0.16573457  -0.00734625  0.91428858  1
  O  O314  1  0.14631474  0.50069045  0.41239541  1
  O  O315  1  0.15342461  0.50546228  0.92076432  1
  O  O316  1  0.48896409  -0.01014507  0.41368238  1
  O  O317  1  0.49944164  0.02121560  0.92919017  1
  O  O318  1  0.48567428  0.50816208  0.41421921  1
  O  O319  1  0.49294473  0.49293503  0.91491055  1
  O  O320  1  0.83763303  -0.00736374  0.41528006  1
  O  O321  1  0.79536924  -0.00960547  0.91719035  1
  O  O322  1  0.83901778  0.50729997  0.41004880  1
  O  O323  1  0.81319367  0.50849209  0.91861718  1
  O  O324  1  0.33116805  0.26446848  0.42025281  1
  O  O325  1  0.30673494  0.25317810  0.91612198  1
  O  O326  1  0.30824897  0.74957772  0.41201743  1
  O  O327  1  0.33835835  0.73451925  0.92666835  1
  O  O328  1  0.67629441  0.25179260  0.42898519  1
  O  O329  1  0.66937851  0.25414640  0.91408154  1
  O  O330  1  0.66121973  0.74894549  0.41358724  1
  O  O331  1  0.63969799  0.74533032  0.91491874  1
  O  O332  1  0.98408067  0.25114047  0.41465467  1
  O  O333  1  0.98546392  0.24421284  0.93708828  1
  O  O334  1  0.99510111  0.75017318  0.41289054  1
  O  O335  1  0.98503169  0.75243067  0.91473123  1
  O  O336  1  0.21244474  0.09159896  0.18990209  1
  O  O337  1  0.21012423  0.08876550  0.69319057  1
  O  O338  1  0.20980916  0.58524935  0.19465840  1
  O  O339  1  0.20622655  0.58196643  0.69537391  1
  O  O340  1  0.53292003  0.07985040  0.19505212  1
  O  O341  1  0.54308457  0.08281701  0.69689158  1
  O  O342  1  0.54483927  0.58519513  0.19381703  1
  O  O343  1  0.54347592  0.58478874  0.69438545  1
  O  O344  1  0.87722017  0.08914014  0.19507815  1
  O  O345  1  0.87328234  0.08017413  0.69503410  1
  O  O346  1  0.87722761  0.58315421  0.19800525  1
  O  O347  1  0.87716773  0.58376896  0.69597636  1
  O  O348  1  0.04238923  0.33475758  0.19652586  1
  O  O349  1  0.03356908  0.33446805  0.69547248  1
  O  O350  1  0.04063791  0.83270715  0.19009407  1
  O  O351  1  0.04461133  0.82973089  0.69567628  1
  O  O352  1  0.37773109  0.33668046  0.20048021  1
  O  O353  1  0.37485510  0.33676663  0.69371055  1
  O  O354  1  0.37550464  0.82909653  0.19152515  1
  O  O355  1  0.37764311  0.83250269  0.69955984  1
  O  O356  1  0.71111524  0.33236673  0.19454401  1
  O  O357  1  0.71182631  0.33378385  0.70293677  1
  O  O358  1  0.71261332  0.83265967  0.19405539  1
  O  O359  1  0.71150490  0.83138616  0.70108650  1
  O  O360  1  0.20747655  0.42050329  0.19358207  1
  O  O361  1  0.21079640  0.42235553  0.69710437  1
  O  O362  1  0.21677049  0.90748537  0.19465948  1
  O  O363  1  0.21273728  0.91741461  0.70157940  1
  O  O364  1  0.54492161  0.42111261  0.19111862  1
  O  O365  1  0.54120619  0.41765507  0.69449464  1
  O  O366  1  0.54782787  0.91754841  0.19624636  1
  O  O367  1  0.54564508  0.91540267  0.69466987  1
  O  O368  1  0.87463220  0.41456657  0.19352596  1
  O  O369  1  0.87967585  0.42415895  0.69259698  1
  O  O370  1  0.87944361  0.91263024  0.19385824  1
  O  O371  1  0.87817669  0.91369914  0.69441096  1
  O  O372  1  0.04115477  0.16788097  0.19576058  1
  O  O373  1  0.04587270  0.17463164  0.69684835  1
  O  O374  1  0.04247914  0.66565527  0.19184481  1
  O  O375  1  0.04303126  0.66424268  0.69717266  1
  O  O376  1  0.37753358  0.16673040  0.19083464  1
  O  O377  1  0.37990313  0.16742419  0.70337189  1
  O  O378  1  0.37743075  0.66375050  0.19370019  1
  O  O379  1  0.37600608  0.66512540  0.70128448  1
  O  O380  1  0.71413890  0.17262661  0.19458600  1
  O  O381  1  0.71355892  0.16332530  0.70355950  1
  O  O382  1  0.70960504  0.66838574  0.19024636  1
  O  O383  1  0.71076729  0.66593040  0.69384548  1
  O  O384  1  0.11535018  0.09206022  0.30582202  1
  O  O385  1  0.13022813  0.08199571  0.80815849  1
  O  O386  1  0.12195865  0.58372166  0.30245714  1
  O  O387  1  0.12326137  0.58509770  0.80784964  1
  O  O388  1  0.45648363  0.08013680  0.30729921  1
  O  O389  1  0.46258763  0.08799277  0.81026785  1
  O  O390  1  0.45827599  0.58610270  0.30306702  1
  O  O391  1  0.45887473  0.57865265  0.80507082  1
  O  O392  1  0.80279731  0.08176380  0.30949368  1
  O  O393  1  0.78885581  0.07685423  0.81017834  1
  O  O394  1  0.79001369  0.58701461  0.30213818  1
  O  O395  1  0.78982474  0.58616795  0.80477417  1
  O  O396  1  0.28546682  0.33882041  0.30514708  1
  O  O397  1  0.30038799  0.33391433  0.80698909  1
  O  O398  1  0.28944842  0.82997236  0.30325034  1
  O  O399  1  0.29041573  0.82970609  0.80311156  1
  O  O400  1  0.62052068  0.33701785  0.29762020  1
  O  O401  1  0.62207060  0.33605773  0.80583134  1
  O  O402  1  0.63149725  0.82984832  0.30448989  1
  O  O403  1  0.62140431  0.83122490  0.80722954  1
  O  O404  1  0.95613936  0.33418866  0.30478559  1
  O  O405  1  0.95580476  0.33376351  0.80362213  1
  O  O406  1  0.95742101  0.83153506  0.30358187  1
  O  O407  1  0.95430029  0.83108508  0.80499944  1
  O  O408  1  0.12052881  0.41856259  0.30369707  1
  O  O409  1  0.11794605  0.42598186  0.81114707  1
  O  O410  1  0.11677836  0.90789213  0.30285972  1
  O  O411  1  0.11792028  0.90679103  0.80778240  1
  O  O412  1  0.45689261  0.42303513  0.30534270  1
  O  O413  1  0.45815054  0.41488810  0.80531296  1
  O  O414  1  0.45441485  0.91149071  0.30279551  1
  O  O415  1  0.45830440  0.91914555  0.80188041  1
  O  O416  1  0.79320804  0.41986575  0.30379452  1
  O  O417  1  0.78641372  0.42617923  0.81013605  1
  O  O418  1  0.79068987  0.90975602  0.30652648  1
  O  O419  1  0.78921408  0.91317930  0.80577284  1
  O  O420  1  0.28787021  0.16923483  0.29641288  1
  O  O421  1  0.29006751  0.16875471  0.80767462  1
  O  O422  1  0.28849355  0.66576367  0.30280105  1
  O  O423  1  0.29061595  0.66165275  0.80897703  1
  O  O424  1  0.61610317  0.17345274  0.30177160  1
  O  O425  1  0.62382448  0.16844008  0.80612974  1
  O  O426  1  0.62675067  0.66606698  0.30346714  1
  O  O427  1  0.62166779  0.66438553  0.80378077  1
  O  O428  1  0.95460883  0.16884867  0.30721662  1
  O  O429  1  0.95292969  0.16356691  0.80361317  1
  O  O430  1  0.95935732  0.66822564  0.30218396  1
  O  O431  1  0.95699451  0.66717867  0.80550833  1
  F  F432  1  0.03085377  0.00209364  0.19499979  1
  F  F433  1  0.04104959  -0.00210670  0.70247043  1
  F  F434  1  0.04429273  0.49954221  0.20081225  1
  F  F435  1  0.04435732  0.50163818  0.70516220  1
  F  F436  1  0.38083746  -0.00118818  0.20041683  1
  F  F437  1  0.37888591  0.00389472  0.70355761  1
  F  F438  1  0.37855171  0.50249642  0.20141192  1
  F  F439  1  0.37822833  0.49897537  0.70368951  1
  F  F440  1  0.71532271  -0.01195602  0.19789020  1
  F  F441  1  0.71493150  -0.00235833  0.70549649  1
  F  F442  1  0.71194319  0.50085347  0.20078726  1
  F  F443  1  0.71253595  0.50167821  0.70241762  1
  F  F444  1  0.20777702  0.25550338  0.19935006  1
  F  F445  1  0.21572360  0.24339604  0.70242815  1
  F  F446  1  0.21272046  0.74661684  0.20016636  1
  F  F447  1  0.21013985  0.74566896  0.70400987  1
  F  F448  1  0.54146013  0.25152927  0.19729554  1
  F  F449  1  0.54711071  0.25095549  0.70380200  1
  F  F450  1  0.54861021  0.74469861  0.19911914  1
  F  F451  1  0.54583286  0.74905997  0.70381072  1
  F  F452  1  0.87946069  0.25081989  0.20392311  1
  F  F453  1  0.87730791  0.24502160  0.70105690  1
  F  F454  1  0.87861711  0.75061585  0.19921753  1
  F  F455  1  0.87967010  0.74811158  0.70228847  1
  F  F456  1  0.29906414  -0.00178735  0.29860330  1
  F  F457  1  0.30106817  0.00332778  0.80417829  1
  F  F458  1  0.28640667  0.50285941  0.29636599  1
  F  F459  1  0.28894588  0.50053899  0.79960262  1
  F  F460  1  0.61725547  -0.01325581  0.30561921  1
  F  F461  1  0.62195811  -0.00119006  0.79816828  1
  F  F462  1  0.62265814  0.50362056  0.29539913  1
  F  F463  1  0.62050691  0.50126292  0.79642705  1
  F  F464  1  0.96112059  -0.00220726  0.29991470  1
  F  F465  1  0.94998843  -0.01065194  0.80430702  1
  F  F466  1  0.95632588  0.49952144  0.29723245  1
  F  F467  1  0.95269586  0.50351855  0.80091693  1
  F  F468  1  0.12001774  0.25352253  0.29745243  1
  F  F469  1  0.11662400  0.23986942  0.80831360  1
  F  F470  1  0.12031578  0.74854413  0.29412509  1
  F  F471  1  0.12016798  0.74581060  0.79977813  1
  F  F472  1  0.45241895  0.24984624  0.29657939  1
  F  F473  1  0.45716967  0.25446538  0.79882039  1
  F  F474  1  0.45208276  0.74280237  0.29909511  1
  F  F475  1  0.45870330  0.74764498  0.80152563  1
  F  F476  1  0.78922277  0.25184765  0.29914916  1
  F  F477  1  0.78827841  0.24350673  0.80659805  1
  F  F478  1  0.78992943  0.74769974  0.29453135  1
  F  F479  1  0.78930931  0.74636679  0.79940589  1
