# generated using pymatgen
data_K24Na3Li5Mg64Fe17Si79(O5F)48
_symmetry_space_group_name_H-M   'P 1'
_cell_length_a   16.10515434
_cell_length_b   18.58610108
_cell_length_c   20.55944386
_cell_angle_alpha   90.01305906
_cell_angle_beta   99.99348401
_cell_angle_gamma   89.97423576
_symmetry_Int_Tables_number   1
_chemical_formula_structural   K24Na3Li5Mg64Fe17Si79(O5F)48
_chemical_formula_sum   'K24 Na3 Li5 Mg64 Fe17 Si79 O240 F48'
_cell_volume   6060.72619827
_cell_formula_units_Z   1
loop_
 _symmetry_equiv_pos_site_id
 _symmetry_equiv_pos_as_xyz
  1  'x, y, z'
loop_
 _atom_site_type_symbol
 _atom_site_label
 _atom_site_symmetry_multiplicity
 _atom_site_fract_x
 _atom_site_fract_y
 _atom_site_fract_z
 _atom_site_occupancy
  K  K0  1  0.00307996  0.00603285  0.00283905  1
  K  K1  1  0.00690530  -0.00243036  0.49396273  1
  K  K2  1  -0.01076305  0.49844905  -0.00297577  1
  K  K3  1  -0.00454507  0.49928855  0.50222128  1
  K  K4  1  0.32705930  -0.00659939  -0.00027743  1
  K  K5  1  0.31945052  -0.00033712  0.49749164  1
  K  K6  1  0.32832554  0.49821225  -0.00530016  1
  K  K7  1  0.32110985  0.50569129  0.49428827  1
  K  K8  1  0.68096217  0.00160688  0.00113460  1
  K  K9  1  0.66499101  -0.00755367  0.50330508  1
  K  K10  1  0.67586966  0.50587530  -0.01023495  1
  K  K11  1  0.67529417  0.50068706  0.50655066  1
  K  K12  1  0.15398576  0.24441717  0.00338996  1
  K  K13  1  0.17101134  0.24479496  0.49856059  1
  K  K14  1  0.15923806  0.75698099  0.00108806  1
  K  K15  1  0.15530384  0.75059525  0.49357719  1
  K  K16  1  0.50026957  0.25041362  -0.00447432  1
  K  K17  1  0.49224710  0.25342549  0.50086328  1
  K  K18  1  0.50721198  0.75169181  -0.00739847  1
  K  K19  1  0.50759751  0.75172664  0.50127372  1
  K  K20  1  0.84846107  0.25056775  0.00479454  1
  K  K21  1  0.84904239  0.25177120  0.50582577  1
  K  K22  1  0.82579458  0.74519697  -0.00587348  1
  K  K23  1  0.83535538  0.74786916  0.49971308  1
  Na  Na24  1  -0.00100608  0.25475914  0.74491628  1
  Na  Na25  1  0.82958218  0.83390049  0.25730196  1
  Na  Na26  1  0.83387391  0.83175421  0.76015760  1
  Li  Li27  1  0.33183266  0.74972625  0.75176435  1
  Li  Li28  1  0.32897986  0.24877856  0.25439037  1
  Li  Li29  1  0.00233554  0.08273622  0.24801023  1
  Li  Li30  1  0.67083539  0.91357996  0.25654427  1
  Li  Li31  1  -0.00353900  0.41461179  0.74270925  1
  Mg  Mg32  1  0.00221691  0.24683749  0.24572601  1
  Mg  Mg33  1  0.33428783  0.75092744  0.25524608  1
  Mg  Mg34  1  0.16345622  0.49928885  0.74335692  1
  Mg  Mg35  1  0.83357959  -0.00134185  0.25057998  1
  Mg  Mg36  1  0.83530133  0.49976376  0.24365060  1
  Mg  Mg37  1  0.33221694  0.25147460  0.74337225  1
  Mg  Mg38  1  -0.00090573  0.75169159  0.25265663  1
  Mg  Mg39  1  0.66570968  0.74947133  0.75405071  1
  Mg  Mg40  1  0.49627943  0.00009884  0.74968910  1
  Mg  Mg41  1  0.66695873  0.24795466  0.24714864  1
  Mg  Mg42  1  0.83154779  0.00120175  0.75552034  1
  Mg  Mg43  1  -0.00143594  0.74999324  0.75137008  1
  Mg  Mg44  1  0.66667558  0.75347043  0.25197894  1
  Mg  Mg45  1  0.50113327  0.50197455  0.75009941  1
  Mg  Mg46  1  0.16668972  0.49944018  0.25348312  1
  Mg  Mg47  1  0.50263849  -0.00154972  0.25392361  1
  Mg  Mg48  1  0.16416609  0.00067322  0.25267524  1
  Mg  Mg49  1  0.50122558  0.49820413  0.24963162  1
  Mg  Mg50  1  0.16455333  -0.00098848  0.75168494  1
  Mg  Mg51  1  0.83889901  0.49693712  0.74932964  1
  Mg  Mg52  1  0.66679769  0.25004282  0.75213380  1
  Mg  Mg53  1  0.49867555  0.66780348  0.75231526  1
  Mg  Mg54  1  0.17033122  0.33115892  0.24934525  1
  Mg  Mg55  1  -0.00253650  0.58172622  0.74512878  1
  Mg  Mg56  1  0.83344157  0.66607324  0.24752362  1
  Mg  Mg57  1  0.16450013  0.16756103  0.74622255  1
  Mg  Mg58  1  0.66867149  0.07983737  0.25110821  1
  Mg  Mg59  1  0.16200360  0.33641168  0.74131995  1
  Mg  Mg60  1  0.49910179  0.16701675  0.25103449  1
  Mg  Mg61  1  0.33407932  0.08566131  0.25106068  1
  Mg  Mg62  1  0.16695647  0.66802147  0.74645504  1
  Mg  Mg63  1  0.33019676  0.08490668  0.74570554  1
  Mg  Mg64  1  0.16828760  0.83518283  0.25505878  1
  Mg  Mg65  1  0.33197752  0.58629225  0.74825355  1
  Mg  Mg66  1  0.66761303  0.08331305  0.75446472  1
  Mg  Mg67  1  0.33451527  0.91568787  0.25620744  1
  Mg  Mg68  1  0.50238033  0.66624392  0.25151530  1
  Mg  Mg69  1  0.66765870  0.58469639  0.24699128  1
  Mg  Mg70  1  0.49933258  0.33541806  0.74707046  1
  Mg  Mg71  1  -0.00000916  0.58474198  0.24846528  1
  Mg  Mg72  1  0.83722268  0.33576065  0.74808745  1
  Mg  Mg73  1  0.32988151  0.41814115  0.74312308  1
  Mg  Mg74  1  0.83700671  0.16371593  0.24707772  1
  Mg  Mg75  1  0.33024400  0.91268956  0.75223021  1
  Mg  Mg76  1  0.83380711  0.16735462  0.75382813  1
  Mg  Mg77  1  0.66736948  0.41441894  0.24468803  1
  Mg  Mg78  1  0.66708371  0.91670180  0.75637433  1
  Mg  Mg79  1  -0.00063920  0.41504874  0.24529454  1
  Mg  Mg80  1  0.33525865  0.58335654  0.25295349  1
  Mg  Mg81  1  -0.00062441  0.91576459  0.75622607  1
  Mg  Mg82  1  0.49841792  0.33177194  0.25088270  1
  Mg  Mg83  1  0.83369038  0.66392288  0.74904665  1
  Mg  Mg84  1  -0.00042631  0.08465740  0.75244637  1
  Mg  Mg85  1  0.16787502  0.66543500  0.25239540  1
  Mg  Mg86  1  0.50406122  0.83548155  0.25391125  1
  Mg  Mg87  1  0.49695459  0.16628406  0.74878861  1
  Mg  Mg88  1  0.49760517  0.83228899  0.75522703  1
  Mg  Mg89  1  0.67013087  0.41611832  0.74935433  1
  Mg  Mg90  1  0.66937567  0.58530171  0.75131449  1
  Mg  Mg91  1  0.16751323  0.16541467  0.25096752  1
  Mg  Mg92  1  0.16629446  0.83320030  0.75360282  1
  Mg  Mg93  1  0.00072224  0.91931553  0.25402551  1
  Mg  Mg94  1  0.33459618  0.41308528  0.25164382  1
  Mg  Mg95  1  0.83406237  0.33305346  0.24354116  1
  Fe  Fe96  1  0.14096138  0.58590320  0.39075443  1
  Fe  Fe97  1  0.31524066  0.83266786  0.39515343  1
  Fe  Fe98  1  0.86074377  0.40835850  0.60369733  1
  Fe  Fe99  1  0.18959882  0.42224776  0.60321907  1
  Fe  Fe100  1  0.14121279  0.91628757  0.89367907  1
  Fe  Fe101  1  0.81284776  0.41016775  0.88908836  1
  Fe  Fe102  1  0.64058127  0.66707906  0.89045831  1
  Fe  Fe103  1  0.13925531  0.91434811  0.39529217  1
  Fe  Fe104  1  0.81300136  0.91734935  0.89623476  1
  Fe  Fe105  1  0.64517755  0.83355876  0.39358461  1
  Fe  Fe106  1  0.85419773  0.41559401  0.10486879  1
  Fe  Fe107  1  0.85753348  0.58304347  0.60566959  1
  Fe  Fe108  1  0.02648911  0.16266485  0.11024494  1
  Fe  Fe109  1  0.30919126  0.33116243  0.38952860  1
  Fe  Fe110  1  0.35644555  0.17005306  0.60683793  1
  Fe  Fe111  1  0.85523559  0.59130832  0.10658977  1
  Fe  Fe112  1  0.81427097  0.09016639  0.89500433  1
  Si  Si113  1  0.68910878  0.67117532  0.61194252  1
  Si  Si114  1  0.47675786  0.92115410  0.39182973  1
  Si  Si115  1  0.51966790  0.91897114  0.11591136  1
  Si  Si116  1  0.80621324  0.92624546  0.38996517  1
  Si  Si117  1  0.80349964  0.57793359  0.38084994  1
  Si  Si118  1  0.19583271  0.91544620  0.11738853  1
  Si  Si119  1  0.19818597  0.41987501  0.11439372  1
  Si  Si120  1  0.19154632  0.91108300  0.61681524  1
  Si  Si121  1  0.68390548  0.83794324  0.11745555  1
  Si  Si122  1  0.02739292  0.67340307  0.61258384  1
  Si  Si123  1  0.63259964  0.16597211  0.88821219  1
  Si  Si124  1  0.97056541  0.33399645  0.38061993  1
  Si  Si125  1  0.52590551  0.58375340  0.61424064  1
  Si  Si126  1  0.20028871  0.08052652  0.11291470  1
  Si  Si127  1  0.02485476  0.15722519  0.61267562  1
  Si  Si128  1  0.30720412  0.82879117  0.88930875  1
  Si  Si129  1  0.30479884  0.33408742  0.88000564  1
  Si  Si130  1  0.80526004  0.41420771  0.37989804  1
  Si  Si131  1  0.52668121  0.41530522  0.11200824  1
  Si  Si132  1  0.02003972  0.83738251  0.61699616  1
  Si  Si133  1  0.14254274  0.41791453  0.88036978  1
  Si  Si134  1  0.03306009  0.32530840  0.60206107  1
  Si  Si135  1  0.46707864  0.91833956  0.88727733  1
  Si  Si136  1  0.14366559  0.08701009  0.88716701  1
  Si  Si137  1  0.68688365  0.16024557  0.11402489  1
  Si  Si138  1  0.35960186  0.83096078  0.61836700  1
  Si  Si139  1  0.96620044  0.66713242  0.38812044  1
  Si  Si140  1  0.81456848  0.58288719  0.88713289  1
  Si  Si141  1  0.98146355  0.33481379  0.88423011  1
  Si  Si142  1  0.85580499  0.91387747  0.11732553  1
  Si  Si143  1  0.03235199  0.33652156  0.10939963  1
  Si  Si144  1  0.46551320  0.08360558  0.88485797  1
  Si  Si145  1  0.68729575  0.83618668  0.61988380  1
  Si  Si146  1  0.36219391  0.16942996  0.11609248  1
  Si  Si147  1  0.81236922  0.08824602  0.38676268  1
  Si  Si148  1  0.46853622  0.41625770  0.88216619  1
  Si  Si149  1  0.96867835  0.83388556  0.39053676  1
  Si  Si150  1  0.69011663  0.32576492  0.61218756  1
  Si  Si151  1  0.14230775  0.58170162  0.88192488  1
  Si  Si152  1  0.03157557  0.67121034  0.11233776  1
  Si  Si153  1  0.52164496  0.08234514  0.11532043  1
  Si  Si154  1  0.63666923  0.83975569  0.89322113  1
  Si  Si155  1  0.85576641  0.92021970  0.61927817  1
  Si  Si156  1  0.64395950  0.66282210  0.38627788  1
  Si  Si157  1  0.19686099  0.58522343  0.11542680  1
  Si  Si158  1  0.31933827  0.66421542  0.39019460  1
  Si  Si159  1  0.18893469  0.07665895  0.61111744  1
  Si  Si160  1  0.52196544  0.91638252  0.61789917  1
  Si  Si161  1  0.36219499  0.33566089  0.11429435  1
  Si  Si162  1  0.48042727  0.08376617  0.38562134  1
  Si  Si163  1  0.97592457  0.17148164  0.38321601  1
  Si  Si164  1  0.48054866  0.57995120  0.38469886  1
  Si  Si165  1  0.36270882  0.34254911  0.60844432  1
  Si  Si166  1  0.13711730  0.41230878  0.38585815  1
  Si  Si167  1  0.97846919  0.82641514  0.89280096  1
  Si  Si168  1  0.14395761  0.08668892  0.38839100  1
  Si  Si169  1  0.36260395  0.66501204  0.11612182  1
  Si  Si170  1  0.19019713  0.59254966  0.61097899  1
  Si  Si171  1  0.68744197  0.32507630  0.10943950  1
  Si  Si172  1  0.68464573  0.67513234  0.11174072  1
  Si  Si173  1  0.85570093  0.08381316  0.61613897  1
  Si  Si174  1  0.02596776  0.83719900  0.11679932  1
  Si  Si175  1  0.53291311  0.41785169  0.61422288  1
  Si  Si176  1  0.98056405  0.66347625  0.88443268  1
  Si  Si177  1  0.85299542  0.07892060  0.11275917  1
  Si  Si178  1  0.52691080  0.08139707  0.61397015  1
  Si  Si179  1  0.52678399  0.58189175  0.11360512  1
  Si  Si180  1  0.36033841  0.83039911  0.11686533  1
  Si  Si181  1  0.46907234  0.58113498  0.88753496  1
  Si  Si182  1  0.31367445  0.16173724  0.38739703  1
  Si  Si183  1  0.30495741  0.66412304  0.88341349  1
  Si  Si184  1  0.68942888  0.16316662  0.61709317  1
  Si  Si185  1  0.64395591  0.16810068  0.38457503  1
  Si  Si186  1  0.64200241  0.33284888  0.38266106  1
  Si  Si187  1  0.36206536  0.66543472  0.61563184  1
  Si  Si188  1  0.98039652  0.17215939  0.88567115  1
  Si  Si189  1  0.30364365  0.17078133  0.88202703  1
  Si  Si190  1  0.47954938  0.41733192  0.38689853  1
  Si  Si191  1  0.63416171  0.33302280  0.88634219  1
  O  O192  1  0.27969927  0.12112360  0.08486843  1
  O  O193  1  0.25915786  0.11503178  0.57585119  1
  O  O194  1  0.27611223  0.62126795  0.08530474  1
  O  O195  1  0.27504179  0.62339445  0.58433751  1
  O  O196  1  0.60341737  0.11092164  0.08493711  1
  O  O197  1  0.61494799  0.10522352  0.58827418  1
  O  O198  1  0.60094024  0.62329759  0.08375684  1
  O  O199  1  0.59997149  0.62635641  0.58413920  1
  O  O200  1  0.92530275  0.11341612  0.07734375  1
  O  O201  1  0.93373610  0.11727121  0.58374127  1
  O  O202  1  0.95055195  0.62870344  0.07437253  1
  O  O203  1  0.95288805  0.62323379  0.57506651  1
  O  O204  1  0.11692413  0.37188803  0.08343222  1
  O  O205  1  0.11148617  0.35208193  0.56679909  1
  O  O206  1  0.10204742  0.88165588  0.08861274  1
  O  O207  1  0.10117643  0.87164959  0.58841561  1
  O  O208  1  0.43910272  0.37221589  0.08082394  1
  O  O209  1  0.45219660  0.36784282  0.58476917  1
  O  O210  1  0.43415622  0.87161150  0.08415260  1
  O  O211  1  0.43592220  0.87113220  0.58758444  1
  O  O212  1  0.76526224  0.34862523  0.07568312  1
  O  O213  1  0.76681122  0.34538163  0.57502367  1
  O  O214  1  0.76850675  0.86749710  0.08963031  1
  O  O215  1  0.76888301  0.87321272  0.59327047  1
  O  O216  1  0.27857647  0.38447450  0.08466177  1
  O  O217  1  0.29513934  0.40365408  0.57915723  1
  O  O218  1  0.26780143  0.86687322  0.08798125  1
  O  O219  1  0.26868128  0.86994271  0.58884194  1
  O  O220  1  0.60196239  0.37457692  0.08205630  1
  O  O221  1  0.61131576  0.38207234  0.58424289  1
  O  O222  1  0.60152276  0.88938066  0.08561671  1
  O  O223  1  0.60229479  0.88302424  0.58791461  1
  O  O224  1  0.95534502  0.38873561  0.07813481  1
  O  O225  1  0.94690861  0.36449692  0.56539453  1
  O  O226  1  0.93473397  0.87559366  0.08698256  1
  O  O227  1  0.93428818  0.88433704  0.58745544  1
  O  O228  1  0.11486753  0.11667941  0.07488259  1
  O  O229  1  0.09556398  0.11097986  0.58083725  1
  O  O230  1  0.11513200  0.63472466  0.08625135  1
  O  O231  1  0.11759188  0.65446409  0.58821941  1
  O  O232  1  0.44239728  0.13575894  0.08476796  1
  O  O233  1  0.45234658  0.13230873  0.57691967  1
  O  O234  1  0.43740582  0.62353617  0.08524023  1
  O  O235  1  0.43728401  0.62511216  0.58352966  1
  O  O236  1  0.76417008  0.12452179  0.08351430  1
  O  O237  1  0.77282280  0.13437688  0.58768585  1
  O  O238  1  0.76197637  0.65251018  0.07653094  1
  O  O239  1  0.76097168  0.64139170  0.57362007  1
  O  O240  1  0.06362718  0.12952994  0.41346253  1
  O  O241  1  0.06133557  0.11870902  0.91482963  1
  O  O242  1  0.04887514  0.62487516  0.42514112  1
  O  O243  1  0.06082530  0.60965027  0.91304765  1
  O  O244  1  0.39573017  0.10735791  0.41431349  1
  O  O245  1  0.38589542  0.12083988  0.91321084  1
  O  O246  1  0.39552701  0.60246735  0.41278946  1
  O  O247  1  0.38316354  0.60991828  0.91405448  1
  O  O248  1  0.72995833  0.12278676  0.41521383  1
  O  O249  1  0.71342299  0.12227157  0.92433103  1
  O  O250  1  0.71864774  0.60188539  0.40967849  1
  O  O251  1  0.73879349  0.61535403  0.92163632  1
  O  O252  1  0.20732837  0.35381996  0.41785567  1
  O  O253  1  0.22690775  0.36883278  0.91149758  1
  O  O254  1  0.22578280  0.85542940  0.43587070  1
  O  O255  1  0.23379136  0.85569383  0.92814519  1
  O  O256  1  0.56230242  0.36498526  0.41311961  1
  O  O257  1  0.55036078  0.36768732  0.91272747  1
  O  O258  1  0.54923634  0.86603079  0.42672554  1
  O  O259  1  0.55166318  0.87461980  0.91839067  1
  O  O260  1  0.88565182  0.36259885  0.40779925  1
  O  O261  1  0.90694595  0.35378703  0.92567106  1
  O  O262  1  0.88655016  0.87184527  0.41515990  1
  O  O263  1  0.89042135  0.84051923  0.91862839  1
  O  O264  1  0.04655140  0.38895425  0.40921987  1
  O  O265  1  0.06396867  0.38784519  0.91304038  1
  O  O266  1  0.04922795  0.87496104  0.43231833  1
  O  O267  1  0.05184204  0.87969157  0.93142584  1
  O  O268  1  0.40205905  0.39414250  0.42182415  1
  O  O269  1  0.38838656  0.38194026  0.91159954  1
  O  O270  1  0.39159850  0.90880656  0.42206910  1
  O  O271  1  0.39131273  0.87895334  0.91788944  1
  O  O272  1  0.72450004  0.38289084  0.41067254  1
  O  O273  1  0.71519914  0.37740339  0.92115195  1
  O  O274  1  0.73151245  0.89905601  0.42793742  1
  O  O275  1  0.71243754  0.89164527  0.92643895  1
  O  O276  1  0.23151673  0.13207134  0.41805139  1
  O  O277  1  0.22262256  0.14376826  0.91332547  1
  O  O278  1  0.23939319  0.63989116  0.42323941  1
  O  O279  1  0.22308263  0.63342010  0.91401064  1
  O  O280  1  0.56175642  0.13723460  0.41375235  1
  O  O281  1  0.54861493  0.13126682  0.91493496  1
  O  O282  1  0.55870204  0.63372012  0.41395419  1
  O  O283  1  0.54857661  0.62592131  0.92487501  1
  O  O284  1  0.89633633  0.13747458  0.41528850  1
  O  O285  1  0.90292850  0.15629103  0.92403150  1
  O  O286  1  0.88220903  0.62973681  0.41163711  1
  O  O287  1  0.89814464  0.63524739  0.91296889  1
  O  O288  1  0.20327142  -0.00404374  0.08630530  1
  O  O289  1  0.18336951  -0.00790228  0.58553267  1
  O  O290  1  0.18709504  0.50293280  0.08449921  1
  O  O291  1  0.16081976  0.51777990  0.57443903  1
  O  O292  1  0.49891545  0.00114380  0.08558135  1
  O  O293  1  0.50823277  -0.00209772  0.58768173  1
  O  O294  1  0.51724978  0.49884226  0.08412679  1
  O  O295  1  0.52064439  0.50073185  0.58486360  1
  O  O296  1  0.83683558  -0.00507745  0.08546109  1
  O  O297  1  0.83743309  0.00151983  0.58619858  1
  O  O298  1  0.82075613  0.50365944  0.06910437  1
  O  O299  1  0.83503839  0.49635610  0.56183876  1
  O  O300  1  0.02055373  0.25735340  0.07568948  1
  O  O301  1  0.01894459  0.23756117  0.58067062  1
  O  O302  1  0.02840194  0.75579545  0.08545460  1
  O  O303  1  0.00520515  0.75682683  0.58554558  1
  O  O304  1  0.34914592  0.25243824  0.08605118  1
  O  O305  1  0.33844502  0.26439228  0.57531014  1
  O  O306  1  0.35538825  0.74753607  0.08700275  1
  O  O307  1  0.35556743  0.74887510  0.58827585  1
  O  O308  1  0.66132593  0.24154408  0.08515228  1
  O  O309  1  0.65935965  0.24271155  0.58668459  1
  O  O310  1  0.65678229  0.75750694  0.08590157  1
  O  O311  1  0.67068448  0.75583092  0.58707988  1
  O  O312  1  0.15174549  0.01057887  0.42718019  1
  O  O313  1  0.17088726  0.01114342  0.92311411  1
  O  O314  1  0.16256199  0.49066340  0.41828207  1
  O  O315  1  0.16524254  0.49993935  0.91108533  1
  O  O316  1  0.51088111  0.00433002  0.41396940  1
  O  O317  1  0.47396039  0.00175081  0.91585188  1
  O  O318  1  0.51077849  0.49936816  0.41170708  1
  O  O319  1  0.48014945  0.49688000  0.91427390  1
  O  O320  1  0.83242828  0.00895506  0.42037112  1
  O  O321  1  0.84916101  0.00416448  0.93577406  1
  O  O322  1  0.82556367  0.49563209  0.40841038  1
  O  O323  1  0.83960088  0.50411996  0.91837585  1
  O  O324  1  0.34196879  0.23833667  0.42115938  1
  O  O325  1  0.32486391  0.25272617  0.91088025  1
  O  O326  1  0.35943208  0.73979535  0.41961331  1
  O  O327  1  0.33052343  0.74458300  0.91391895  1
  O  O328  1  0.66007939  0.25107040  0.41220272  1
  O  O329  1  0.63537227  0.24986215  0.91469942  1
  O  O330  1  0.67189306  0.73742916  0.42331238  1
  O  O331  1  0.64841251  0.76017822  0.92620110  1
  O  O332  1  0.98860560  0.25380849  0.41377573  1
  O  O333  1  1.01819305  0.25317764  0.90613840  1
  O  O334  1  0.96728865  0.74964407  0.41765765  1
  O  O335  1  1.00851030  0.74239029  0.91636413  1
  O  O336  1  0.21425588  0.08220561  0.19345006  1
  O  O337  1  0.20809879  0.08067460  0.69220449  1
  O  O338  1  0.21564197  0.58361313  0.19556319  1
  O  O339  1  0.21085403  0.58659078  0.69187290  1
  O  O340  1  0.54161049  0.08390073  0.19539870  1
  O  O341  1  0.54067254  0.08319370  0.69506196  1
  O  O342  1  0.54317664  0.58147478  0.19403655  1
  O  O343  1  0.54181050  0.58291068  0.69439212  1
  O  O344  1  0.86932171  0.08211092  0.19265924  1
  O  O345  1  0.87588846  0.08389200  0.69600566  1
  O  O346  1  0.87890408  0.58434606  0.19892739  1
  O  O347  1  0.87578129  0.58281685  0.69767837  1
  O  O348  1  0.04740934  0.33416750  0.19104782  1
  O  O349  1  0.05107539  0.33535199  0.68113820  1
  O  O350  1  0.04399464  0.83387374  0.19679814  1
  O  O351  1  0.03990113  0.83513152  0.69697106  1
  O  O352  1  0.38361048  0.33885776  0.19335173  1
  O  O353  1  0.37895067  0.33690167  0.69038775  1
  O  O354  1  0.37948986  0.83181286  0.19680342  1
  O  O355  1  0.37811144  0.83518057  0.69799127  1
  O  O356  1  0.70596633  0.33000563  0.19052536  1
  O  O357  1  0.70464431  0.32963494  0.69275293  1
  O  O358  1  0.69888747  0.83386674  0.19573605  1
  O  O359  1  0.69755549  0.83372423  0.69886178  1
  O  O360  1  0.21376222  0.42047557  0.19435727  1
  O  O361  1  0.21187494  0.41877957  0.69516218  1
  O  O362  1  0.21377699  0.91629706  0.19706907  1
  O  O363  1  0.21015776  0.91460472  0.69691678  1
  O  O364  1  0.54346583  0.41520833  0.19249399  1
  O  O365  1  0.54620472  0.41838353  0.69488756  1
  O  O366  1  0.53309141  0.91858259  0.19503686  1
  O  O367  1  0.53924059  0.91629994  0.69835204  1
  O  O368  1  0.87675949  0.41544332  0.19746015  1
  O  O369  1  0.87466592  0.41592127  0.69354062  1
  O  O370  1  0.88047811  0.91992324  0.19613145  1
  O  O371  1  0.88036161  0.92443994  0.69810498  1
  O  O372  1  0.04836741  0.16570470  0.20036248  1
  O  O373  1  0.04657844  0.15598247  0.69211476  1
  O  O374  1  0.04568742  0.66901164  0.19303792  1
  O  O375  1  0.04334494  0.66973672  0.69341397  1
  O  O376  1  0.38097947  0.16575888  0.19552279  1
  O  O377  1  0.37755967  0.16655271  0.69883269  1
  O  O378  1  0.37905745  0.66464327  0.19635265  1
  O  O379  1  0.38093782  0.66311024  0.69530306  1
  O  O380  1  0.70701227  0.16391550  0.19437308  1
  O  O381  1  0.70561025  0.16554109  0.69719778  1
  O  O382  1  0.70451153  0.66803385  0.19239062  1
  O  O383  1  0.70849289  0.66706146  0.69236527  1
  O  O384  1  0.13132218  0.08332199  0.30864609  1
  O  O385  1  0.12635316  0.08470473  0.80612265  1
  O  O386  1  0.12197124  0.58404560  0.29858311  1
  O  O387  1  0.12542053  0.58397640  0.80191049  1
  O  O388  1  0.45983692  0.08502615  0.30515833  1
  O  O389  1  0.45190075  0.08224366  0.80468704  1
  O  O390  1  0.46070682  0.58145241  0.30376182  1
  O  O391  1  0.45521039  0.58258850  0.80677509  1
  O  O392  1  0.79137258  0.08822482  0.30664696  1
  O  O393  1  0.78719630  0.08640966  0.80241355  1
  O  O394  1  0.78662038  0.57892740  0.30052982  1
  O  O395  1  0.79080128  0.58224840  0.80597634  1
  O  O396  1  0.28942802  0.33518822  0.29879847  1
  O  O397  1  0.29171797  0.33370119  0.80017446  1
  O  O398  1  0.29030430  0.83263800  0.30217307  1
  O  O399  1  0.28700328  0.83555661  0.80954803  1
  O  O400  1  0.62406890  0.33267976  0.30198141  1
  O  O401  1  0.61932081  0.33351634  0.80519679  1
  O  O402  1  0.62006131  0.83049821  0.30341074  1
  O  O403  1  0.61939437  0.83612096  0.81152669  1
  O  O404  1  0.95528231  0.33089376  0.30031187  1
  O  O405  1  0.95273701  0.34051692  0.80590716  1
  O  O406  1  0.96695941  0.83366555  0.31144981  1
  O  O407  1  0.97111575  0.83138819  0.81266296  1
  O  O408  1  0.12221733  0.41448111  0.30394196  1
  O  O409  1  0.12816938  0.41771473  0.80123153  1
  O  O410  1  0.12402808  0.91664363  0.30306443  1
  O  O411  1  0.12344397  0.91716222  0.80204868  1
  O  O412  1  0.46086055  0.41637601  0.30556543  1
  O  O413  1  0.45382540  0.41751347  0.80182896  1
  O  O414  1  0.45854018  0.91731326  0.30995354  1
  O  O415  1  0.45162338  0.91830705  0.80689663  1
  O  O416  1  0.78566659  0.41390659  0.29963629  1
  O  O417  1  0.78675135  0.41493411  0.79775909  1
  O  O418  1  0.78552521  0.93020474  0.31116248  1
  O  O419  1  0.78261063  0.92671538  0.80613975  1
  O  O420  1  0.29158821  0.16195991  0.30714573  1
  O  O421  1  0.28830752  0.16733827  0.80203089  1
  O  O422  1  0.29549015  0.66431247  0.30809973  1
  O  O423  1  0.28669588  0.66335386  0.80390082  1
  O  O424  1  0.62554305  0.16694003  0.30412128  1
  O  O425  1  0.61756727  0.16580763  0.80700767  1
  O  O426  1  0.62260919  0.66344263  0.30511309  1
  O  O427  1  0.61867917  0.66523216  0.79889932  1
  O  O428  1  0.95330731  0.17154858  0.30402098  1
  O  O429  1  0.95461252  0.16124792  0.80645737  1
  O  O430  1  0.95674868  0.66688683  0.30755630  1
  O  O431  1  0.96163972  0.66547740  0.80436046  1
  F  F432  1  0.04812552  -0.00286280  0.20082523  1
  F  F433  1  0.04382756  0.00022957  0.70367175  1
  F  F434  1  0.04747791  0.49912349  0.19994636  1
  F  F435  1  0.04759730  0.50701359  0.69545668  1
  F  F436  1  0.38020167  -0.00051083  0.20557288  1
  F  F437  1  0.37569269  -0.00192634  0.70149295  1
  F  F438  1  0.38061837  0.49979794  0.20232372  1
  F  F439  1  0.38131051  0.50299025  0.70107612  1
  F  F440  1  0.71306392  0.00495459  0.20043288  1
  F  F441  1  0.70503029  0.00059122  0.70161727  1
  F  F442  1  0.70848162  0.49913081  0.19728110  1
  F  F443  1  0.70752587  0.50240025  0.70054106  1
  F  F444  1  0.20952215  0.24711763  0.20007997  1
  F  F445  1  0.21401772  0.24763654  0.69548133  1
  F  F446  1  0.21415874  0.74719695  0.20320930  1
  F  F447  1  0.20877414  0.75333941  0.70225629  1
  F  F448  1  0.54524726  0.24939798  0.20013869  1
  F  F449  1  0.54469787  0.24972996  0.70298778  1
  F  F450  1  0.54136951  0.74726437  0.20116265  1
  F  F451  1  0.54185410  0.75289137  0.70325045  1
  F  F452  1  0.87755449  0.24815333  0.19736184  1
  F  F453  1  0.86297291  0.24745665  0.69865921  1
  F  F454  1  0.88397717  0.74380355  0.20110635  1
  F  F455  1  0.88180836  0.74384799  0.70161400  1
  F  F456  1  0.28909047  0.00164038  0.29827628  1
  F  F457  1  0.28792067  0.00160093  0.79699154  1
  F  F458  1  0.29092668  0.49971259  0.29827101  1
  F  F459  1  0.28896776  0.50180709  0.79535789  1
  F  F460  1  0.61866028  0.00694683  0.30130548  1
  F  F461  1  0.61390292  0.00202723  0.79941636  1
  F  F462  1  0.62253628  0.49756642  0.29408784  1
  F  F463  1  0.62013020  0.49970684  0.79836053  1
  F  F464  1  0.95264948  -0.00021233  0.30056146  1
  F  F465  1  0.95644443  0.00161979  0.80128684  1
  F  F466  1  0.95634635  0.49848519  0.29698791  1
  F  F467  1  0.95791917  0.50479396  0.79876120  1
  F  F468  1  0.12158641  0.25142079  0.29833363  1
  F  F469  1  0.13581012  0.25217891  0.79507974  1
  F  F470  1  0.12240505  0.74853435  0.29846369  1
  F  F471  1  0.12223537  0.74794017  0.79842270  1
  F  F472  1  0.46483596  0.25010582  0.30079210  1
  F  F473  1  0.45286224  0.25337023  0.79687185  1
  F  F474  1  0.45621314  0.74807310  0.29828926  1
  F  F475  1  0.45666069  0.74946746  0.80228649  1
  F  F476  1  0.78729379  0.25009096  0.29319312  1
  F  F477  1  0.78452535  0.25088325  0.79989521  1
  F  F478  1  0.78245416  0.73611763  0.30154668  1
  F  F479  1  0.78146596  0.73664758  0.80231592  1
