# generated using pymatgen
data_K24Na3Li5Mg64Fe17Si79(O5F)48
_symmetry_space_group_name_H-M   'P 1'
_cell_length_a   16.10771371
_cell_length_b   18.60280801
_cell_length_c   20.57045051
_cell_angle_alpha   90.00683951
_cell_angle_beta   100.01880855
_cell_angle_gamma   89.97593093
_symmetry_Int_Tables_number   1
_chemical_formula_structural   K24Na3Li5Mg64Fe17Si79(O5F)48
_chemical_formula_sum   'K24 Na3 Li5 Mg64 Fe17 Si79 O240 F48'
_cell_volume   6069.91300684
_cell_formula_units_Z   1
loop_
 _symmetry_equiv_pos_site_id
 _symmetry_equiv_pos_as_xyz
  1  'x, y, z'
loop_
 _atom_site_type_symbol
 _atom_site_label
 _atom_site_symmetry_multiplicity
 _atom_site_fract_x
 _atom_site_fract_y
 _atom_site_fract_z
 _atom_site_occupancy
  K  K0  1  -0.00819987  0.01171371  0.01034436  1
  K  K1  1  0.00422818  0.00340509  0.49441257  1
  K  K2  1  0.00844510  0.49209723  0.01303545  1
  K  K3  1  0.00276755  0.49299757  0.49864724  1
  K  K4  1  0.34859772  0.01221506  0.00881786  1
  K  K5  1  0.33140727  0.00610814  0.49471639  1
  K  K6  1  0.32683136  0.49792352  0.00789973  1
  K  K7  1  0.33951172  0.49440647  0.49124796  1
  K  K8  1  0.67056850  0.00041521  0.00840040  1
  K  K9  1  0.66236417  0.00112897  0.49530640  1
  K  K10  1  0.65953868  0.49611595  0.00423750  1
  K  K11  1  0.65257869  0.50525773  0.48597959  1
  K  K12  1  0.17282673  0.26175720  0.00798115  1
  K  K13  1  0.16738432  0.25770225  0.49963949  1
  K  K14  1  0.16927680  0.74927185  0.00327934  1
  K  K15  1  0.16863003  0.74594872  0.49014069  1
  K  K16  1  0.50026659  0.25274897  0.00401774  1
  K  K17  1  0.50066949  0.24940919  0.49467350  1
  K  K18  1  0.51185072  0.74005974  0.00932324  1
  K  K19  1  0.50954726  0.73748903  0.49166075  1
  K  K20  1  0.82344447  0.25786851  0.00720233  1
  K  K21  1  0.82853983  0.25774453  0.48716771  1
  K  K22  1  0.82380382  0.74526237  0.01322367  1
  K  K23  1  0.81593957  0.74978660  0.49575773  1
  Na  Na24  1  0.49806104  0.50367966  0.24791246  1
  Na  Na25  1  0.50061413  0.66737508  0.24597634  1
  Na  Na26  1  0.82918873  0.32821254  0.25312847  1
  Li  Li27  1  0.16898266  0.49683439  0.24811105  1
  Li  Li28  1  0.66628995  0.25119713  0.25604130  1
  Li  Li29  1  0.17604432  0.33629585  0.74489232  1
  Li  Li30  1  0.66580712  0.91566303  0.74117407  1
  Li  Li31  1  0.49763934  0.16912185  0.74937927  1
  Mg  Mg32  1  0.16379386  0.00071391  0.25313820  1
  Mg  Mg33  1  0.33321909  0.74816462  0.25250889  1
  Mg  Mg34  1  0.83419478  0.49758455  0.24762702  1
  Mg  Mg35  1  0.83339936  -0.00112637  0.25314983  1
  Mg  Mg36  1  0.83101088  -0.00037869  0.74763626  1
  Mg  Mg37  1  0.33514695  0.25023211  0.24974989  1
  Mg  Mg38  1  0.33373567  0.25113969  0.74963293  1
  Mg  Mg39  1  -0.00038586  0.25095169  0.25236823  1
  Mg  Mg40  1  -0.00016841  0.75053478  0.75042080  1
  Mg  Mg41  1  0.50067032  0.00269397  0.25173541  1
  Mg  Mg42  1  0.33619012  0.75075291  0.74874950  1
  Mg  Mg43  1  -0.00015185  0.74765663  0.24804106  1
  Mg  Mg44  1  0.16859003  -0.00006165  0.75224396  1
  Mg  Mg45  1  0.16872639  0.49632833  0.75000383  1
  Mg  Mg46  1  0.66722254  0.74859917  0.24602548  1
  Mg  Mg47  1  0.00397620  0.25106470  0.75041840  1
  Mg  Mg48  1  0.50424883  0.00164628  0.74840880  1
  Mg  Mg49  1  0.49847070  0.49713166  0.74922063  1
  Mg  Mg50  1  0.66217956  0.24867297  0.75472241  1
  Mg  Mg51  1  0.83336253  0.49892936  0.74821035  1
  Mg  Mg52  1  0.66968549  0.75229871  0.74282333  1
  Mg  Mg53  1  0.32727964  0.58227742  0.24546177  1
  Mg  Mg54  1  0.50080410  0.16788531  0.25267960  1
  Mg  Mg55  1  0.66809492  0.08708104  0.25412823  1
  Mg  Mg56  1  0.83272956  0.83471060  0.24854094  1
  Mg  Mg57  1  0.82878463  0.83561616  0.74470651  1
  Mg  Mg58  1  0.00300212  0.41619717  0.24815807  1
  Mg  Mg59  1  0.66555700  0.41536937  0.25239098  1
  Mg  Mg60  1  0.33314253  0.08432004  0.25428205  1
  Mg  Mg61  1  0.00251360  0.58046602  0.24335841  1
  Mg  Mg62  1  -0.00114645  0.91666783  0.74960199  1
  Mg  Mg63  1  0.83237152  0.16656554  0.75141194  1
  Mg  Mg64  1  0.83091454  0.16792672  0.25657668  1
  Mg  Mg65  1  0.16807720  0.33476735  0.25008519  1
  Mg  Mg66  1  0.33283757  0.41892350  0.25033349  1
  Mg  Mg67  1  0.50271155  0.33336103  0.25202398  1
  Mg  Mg68  1  0.16760334  0.66618690  0.74923112  1
  Mg  Mg69  1  0.50618220  0.83643524  0.74554886  1
  Mg  Mg70  1  0.83286746  0.66366170  0.24523782  1
  Mg  Mg71  1  0.66505566  0.58344763  0.24678841  1
  Mg  Mg72  1  0.16768418  0.83412957  0.75125474  1
  Mg  Mg73  1  0.00052025  0.58308232  0.74773893  1
  Mg  Mg74  1  0.33711707  0.91600271  0.75019946  1
  Mg  Mg75  1  0.66923918  0.91638115  0.25007989  1
  Mg  Mg76  1  0.33413119  0.58417742  0.74859447  1
  Mg  Mg77  1  0.33785850  0.08489315  0.75202778  1
  Mg  Mg78  1  0.49753107  0.33067478  0.75243447  1
  Mg  Mg79  1  0.16656790  0.16455322  0.25299391  1
  Mg  Mg80  1  0.66371811  0.41369676  0.75241471  1
  Mg  Mg81  1  0.50081323  0.83468830  0.25110588  1
  Mg  Mg82  1  0.00059961  0.08482333  0.75102516  1
  Mg  Mg83  1  -0.00090429  0.08506156  0.25312062  1
  Mg  Mg84  1  0.16436500  0.66323911  0.24687294  1
  Mg  Mg85  1  0.00390016  0.41374862  0.74824234  1
  Mg  Mg86  1  0.83123095  0.66609088  0.74425678  1
  Mg  Mg87  1  0.50270341  0.66628875  0.74691804  1
  Mg  Mg88  1  0.17010036  0.16786212  0.75396358  1
  Mg  Mg89  1  -0.00259588  0.91515025  0.25183008  1
  Mg  Mg90  1  0.83247159  0.33394226  0.75156278  1
  Mg  Mg91  1  0.33265749  0.41130864  0.74979992  1
  Mg  Mg92  1  0.16320631  0.83334750  0.25033582  1
  Mg  Mg93  1  0.66663232  0.58471421  0.74432533  1
  Mg  Mg94  1  0.33223456  0.91602366  0.25138026  1
  Mg  Mg95  1  0.66456558  0.08272539  0.75126589  1
  Fe  Fe96  1  0.47186252  0.58420221  0.38866924  1
  Fe  Fe97  1  0.64359507  0.16538977  0.39333355  1
  Fe  Fe98  1  0.85817293  0.92294599  0.11064693  1
  Fe  Fe99  1  0.35709486  0.33110633  0.60610650  1
  Fe  Fe100  1  0.81488746  0.91445803  0.39186933  1
  Fe  Fe101  1  0.69015576  0.66081722  0.60336077  1
  Fe  Fe102  1  0.19133011  0.42583499  0.60668687  1
  Fe  Fe103  1  0.46821146  0.42247411  0.89180453  1
  Fe  Fe104  1  0.68903359  0.83672007  0.60384371  1
  Fe  Fe105  1  0.19331631  0.42459561  0.11269219  1
  Fe  Fe106  1  0.52266389  0.41536577  0.11111379  1
  Fe  Fe107  1  0.13538017  0.08499797  0.39318886  1
  Fe  Fe108  1  0.35565520  0.16197969  0.11370400  1
  Fe  Fe109  1  0.63849544  0.32818632  0.89432125  1
  Fe  Fe110  1  0.02088153  0.66837863  0.10743126  1
  Fe  Fe111  1  0.68712630  0.65936071  0.10683192  1
  Fe  Fe112  1  0.30028015  0.33194769  0.89140479  1
  Si  Si113  1  0.52042957  0.92511367  0.60953697  1
  Si  Si114  1  0.68803019  0.83310048  0.10907502  1
  Si  Si115  1  0.97774633  0.65851322  0.38265197  1
  Si  Si116  1  0.02360010  0.83728906  0.11191003  1
  Si  Si117  1  0.81355017  0.08246440  0.39142917  1
  Si  Si118  1  0.19186809  0.07685611  0.61758199  1
  Si  Si119  1  0.35141878  0.16328229  0.61433767  1
  Si  Si120  1  0.47402349  0.41225790  0.38918198  1
  Si  Si121  1  0.30925682  0.83415745  0.88551673  1
  Si  Si122  1  0.80531721  0.41926713  0.88713301  1
  Si  Si123  1  0.81343684  0.08003427  0.88645374  1
  Si  Si124  1  0.63967276  0.83610165  0.38571383  1
  Si  Si125  1  0.14157930  0.91649651  0.88645161  1
  Si  Si126  1  0.02613359  0.33125787  0.11282112  1
  Si  Si127  1  0.53073617  0.08456051  0.11429384  1
  Si  Si128  1  0.64763547  0.15770407  0.89003354  1
  Si  Si129  1  0.47933929  0.91141828  0.88482794  1
  Si  Si130  1  0.85896496  0.57347021  0.10719795  1
  Si  Si131  1  0.69363821  0.17040077  0.11980494  1
  Si  Si132  1  0.81091044  0.58522544  0.38462857  1
  Si  Si133  1  0.51953899  0.58400072  0.10595649  1
  Si  Si134  1  0.96992890  0.17439360  0.39110953  1
  Si  Si135  1  0.80750142  0.42282168  0.38620474  1
  Si  Si136  1  0.30756719  0.66828598  0.88423792  1
  Si  Si137  1  0.69479838  0.33629784  0.61643937  1
  Si  Si138  1  0.47045724  0.91299209  0.38545441  1
  Si  Si139  1  0.13905288  0.91344086  0.38908262  1
  Si  Si140  1  0.86303385  0.41194032  0.61465581  1
  Si  Si141  1  0.96851304  0.33489272  0.88466396  1
  Si  Si142  1  0.64730402  0.83472635  0.88058972  1
  Si  Si143  1  0.02533145  0.67287791  0.61528868  1
  Si  Si144  1  0.64602180  0.67150975  0.88063334  1
  Si  Si145  1  0.14148915  0.08207978  0.88728736  1
  Si  Si146  1  0.81436161  0.91621770  0.88304702  1
  Si  Si147  1  0.31250627  0.15985130  0.88979640  1
  Si  Si148  1  0.97509153  0.66653153  0.88288666  1
  Si  Si149  1  0.85572540  0.09111965  0.11664897  1
  Si  Si150  1  0.30167279  0.66657000  0.38719456  1
  Si  Si151  1  0.97649872  0.83180990  0.88473066  1
  Si  Si152  1  0.69074290  0.16990943  0.61722049  1
  Si  Si153  1  0.86730110  0.57895499  0.61030023  1
  Si  Si154  1  0.02660247  0.32861045  0.61323913  1
  Si  Si155  1  0.64479995  0.33585116  0.39133308  1
  Si  Si156  1  0.97875989  0.82209861  0.38790831  1
  Si  Si157  1  0.18881424  0.59520984  0.61127333  1
  Si  Si158  1  0.35809701  0.83888075  0.11508031  1
  Si  Si159  1  0.14085038  0.57797801  0.38157895  1
  Si  Si160  1  0.52719384  0.41141259  0.61345857  1
  Si  Si161  1  0.47280981  0.07908354  0.39085977  1
  Si  Si162  1  0.35776808  0.67399060  0.11283137  1
  Si  Si163  1  0.86360343  0.92107218  0.61158936  1
  Si  Si164  1  0.35713086  0.33077341  0.11398735  1
  Si  Si165  1  0.97649032  0.16858780  0.88614200  1
  Si  Si166  1  0.30407172  0.83236557  0.38509350  1
  Si  Si167  1  0.13114452  0.41800117  0.88630671  1
  Si  Si168  1  0.52270373  0.08924571  0.61634897  1
  Si  Si169  1  0.81019835  0.58408499  0.88241373  1
  Si  Si170  1  0.19382452  0.59471355  0.10655378  1
  Si  Si171  1  0.68939475  0.33392534  0.11725020  1
  Si  Si172  1  0.19205836  0.91186141  0.61620387  1
  Si  Si173  1  0.47789841  0.07599314  0.88541321  1
  Si  Si174  1  0.18678478  0.07676262  0.11464012  1
  Si  Si175  1  0.18966940  0.91353672  0.11708190  1
  Si  Si176  1  0.02745768  0.16315538  0.61619677  1
  Si  Si177  1  0.02515999  0.83590626  0.61608286  1
  Si  Si178  1  0.51943122  0.57580800  0.61161982  1
  Si  Si179  1  0.14145984  0.58308170  0.88370045  1
  Si  Si180  1  0.30982504  0.32982783  0.38648826  1
  Si  Si181  1  0.85761404  0.08682988  0.61569198  1
  Si  Si182  1  0.52528861  0.91914007  0.11585188  1
  Si  Si183  1  0.36027162  0.66927233  0.61315703  1
  Si  Si184  1  0.85889513  0.40980956  0.11649188  1
  Si  Si185  1  0.97657711  0.33964773  0.38623006  1
  Si  Si186  1  0.64748961  0.66944997  0.38440565  1
  Si  Si187  1  0.36084280  0.83581387  0.61290549  1
  Si  Si188  1  0.02558256  0.16662264  0.11723844  1
  Si  Si189  1  0.14367485  0.41380490  0.38487898  1
  Si  Si190  1  0.47976512  0.59314567  0.88504358  1
  Si  Si191  1  0.30689499  0.16487127  0.39041526  1
  O  O192  1  0.26350270  0.10012783  0.07858221  1
  O  O193  1  0.27438745  0.10307288  0.58797467  1
  O  O194  1  0.27729690  0.62674087  0.07646207  1
  O  O195  1  0.26982737  0.63180326  0.58337919  1
  O  O196  1  0.61639502  0.11459275  0.08870503  1
  O  O197  1  0.60391409  0.12544192  0.58779411  1
  O  O198  1  0.59058259  0.61162970  0.06298179  1
  O  O199  1  0.59554793  0.60070095  0.57566908  1
  O  O200  1  0.93867954  0.12309996  0.08790597  1
  O  O201  1  0.93850217  0.12113472  0.58719838  1
  O  O202  1  0.94080455  0.59759242  0.07558252  1
  O  O203  1  0.95240915  0.61453491  0.58629460  1
  O  O204  1  0.09715402  0.36690148  0.07691126  1
  O  O205  1  0.09490792  0.36667649  0.57666294  1
  O  O206  1  0.11636364  0.85551645  0.08827527  1
  O  O207  1  0.11091697  0.86003908  0.58818097  1
  O  O208  1  0.44291506  0.34348769  0.08384688  1
  O  O209  1  0.46091613  0.35276774  0.57854780  1
  O  O210  1  0.43585012  0.87754464  0.08567505  1
  O  O211  1  0.43167838  0.87951896  0.58129928  1
  O  O212  1  0.77986776  0.35524260  0.09199639  1
  O  O213  1  0.77471033  0.36986484  0.58609050  1
  O  O214  1  0.76175430  0.86957963  0.07473976  1
  O  O215  1  0.78953267  0.87092693  0.57545709  1
  O  O216  1  0.28700178  0.38965736  0.08105296  1
  O  O217  1  0.27858777  0.39731098  0.56529177  1
  O  O218  1  0.27404226  0.88836496  0.08694391  1
  O  O219  1  0.27047793  0.87706891  0.58562740  1
  O  O220  1  0.61962754  0.38722116  0.07680378  1
  O  O221  1  0.61704284  0.39028166  0.58773182  1
  O  O222  1  0.60007130  0.88121659  0.08408738  1
  O  O223  1  0.59507967  0.89716316  0.57353186  1
  O  O224  1  0.93632010  0.37301390  0.08443117  1
  O  O225  1  0.93386291  0.36636955  0.58414022  1
  O  O226  1  0.95974056  0.90104066  0.08104130  1
  O  O227  1  0.95356669  0.89553457  0.58838529  1
  O  O228  1  0.10133055  0.12542227  0.08706900  1
  O  O229  1  0.10530492  0.12220592  0.58850573  1
  O  O230  1  0.11930438  0.65015969  0.07386367  1
  O  O231  1  0.11237239  0.65565746  0.58774467  1
  O  O232  1  0.45011139  0.12931110  0.07747207  1
  O  O233  1  0.43773096  0.13566542  0.58723837  1
  O  O234  1  0.44119382  0.64499181  0.08596510  1
  O  O235  1  0.43514995  0.62688005  0.58502869  1
  O  O236  1  0.77787573  0.14683327  0.08890668  1
  O  O237  1  0.77148580  0.13341032  0.58880415  1
  O  O238  1  0.77927660  0.62175407  0.07241237  1
  O  O239  1  0.78606584  0.62070165  0.57291312  1
  O  O240  1  0.04920576  0.12905390  0.43010346  1
  O  O241  1  0.06445897  0.12443028  0.91526479  1
  O  O242  1  0.05815719  0.60639312  0.41236806  1
  O  O243  1  0.06333436  0.62400435  0.91139291  1
  O  O244  1  0.39000850  0.11387351  0.41704066  1
  O  O245  1  0.39792043  0.10971823  0.91552182  1
  O  O246  1  0.38443409  0.62805156  0.42712352  1
  O  O247  1  0.39889445  0.63245901  0.91296907  1
  O  O248  1  0.73322864  0.10247344  0.42582820  1
  O  O249  1  0.73214153  0.10598243  0.91782440  1
  O  O250  1  0.73750879  0.62788020  0.41513212  1
  O  O251  1  0.72862460  0.62043737  0.90899600  1
  O  O252  1  0.22834345  0.36581580  0.41432095  1
  O  O253  1  0.20098218  0.36309669  0.92159279  1
  O  O254  1  0.22908722  0.87159454  0.41648595  1
  O  O255  1  0.23351505  0.87789637  0.91404812  1
  O  O256  1  0.56339697  0.37022564  0.42059435  1
  O  O257  1  0.54625869  0.35461406  0.92878271  1
  O  O258  1  0.55303902  0.86358890  0.41255862  1
  O  O259  1  0.56688093  0.86710027  0.91259350  1
  O  O260  1  0.89801810  0.38025556  0.41438783  1
  O  O261  1  0.88648070  0.36513723  0.91324091  1
  O  O262  1  0.90325393  0.84870094  0.42434776  1
  O  O263  1  0.89902785  0.86872175  0.91481334  1
  O  O264  1  0.06452511  0.38240037  0.41914034  1
  O  O265  1  0.04343423  0.39151078  0.91252680  1
  O  O266  1  0.06637754  0.86649473  0.41741751  1
  O  O267  1  0.06679480  0.87237457  0.91452305  1
  O  O268  1  0.39557088  0.37258506  0.41950751  1
  O  O269  1  0.37234733  0.40431898  0.92583388  1
  O  O270  1  0.39167711  0.87525150  0.41439253  1
  O  O271  1  0.40064737  0.87175447  0.91395246  1
  O  O272  1  0.73139511  0.38576877  0.41902016  1
  O  O273  1  0.72983210  0.39353106  0.92289383  1
  O  O274  1  0.71478967  0.88726930  0.42185951  1
  O  O275  1  0.73116457  0.88373176  0.90969657  1
  O  O276  1  0.23416454  0.13470686  0.42836199  1
  O  O277  1  0.23339503  0.11605887  0.91668737  1
  O  O278  1  0.21882603  0.63133356  0.41412685  1
  O  O279  1  0.22971208  0.62741207  0.91162331  1
  O  O280  1  0.55366392  0.12166339  0.42894382  1
  O  O281  1  0.56692249  0.11638165  0.91541524  1
  O  O282  1  0.57518631  0.63341984  0.41903942  1
  O  O283  1  0.56105153  0.64814970  0.90882808  1
  O  O284  1  0.88499008  0.14571989  0.41679490  1
  O  O285  1  0.89885021  0.12857580  0.91550415  1
  O  O286  1  0.89897926  0.62794758  0.41559580  1
  O  O287  1  0.89490814  0.63221697  0.91127432  1
  O  O288  1  0.15996439  -0.00646929  0.08847218  1
  O  O289  1  0.17218863  -0.00615146  0.58896896  1
  O  O290  1  0.17250838  0.51609580  0.07349737  1
  O  O291  1  0.15908343  0.52139107  0.57479379  1
  O  O292  1  0.51690174  0.00077046  0.08502740  1
  O  O293  1  0.50155227  0.00897432  0.58373644  1
  O  O294  1  0.48288343  0.50646921  0.07798242  1
  O  O295  1  0.49551522  0.49286467  0.58703109  1
  O  O296  1  0.83209617  0.01637791  0.07758121  1
  O  O297  1  0.84641992  0.00511035  0.58633518  1
  O  O298  1  0.83799526  0.48892338  0.08198810  1
  O  O299  1  0.86445808  0.49400449  0.58555528  1
  O  O300  1  0.01390889  0.24709840  0.08503688  1
  O  O301  1  0.01743839  0.24412712  0.58615013  1
  O  O302  1  -0.01157780  0.76228973  0.07760057  1
  O  O303  1  -0.00314262  0.75485341  0.58884186  1
  O  O304  1  0.31773707  0.25250269  0.08678740  1
  O  O305  1  0.32111232  0.23687950  0.57679807  1
  O  O306  1  0.34337385  0.75824592  0.08279124  1
  O  O307  1  0.35429245  0.75285337  0.58469828  1
  O  O308  1  0.66903265  0.25018088  0.08898702  1
  O  O309  1  0.67940661  0.25292682  0.58853346  1
  O  O310  1  0.66896565  0.75479862  0.07529227  1
  O  O311  1  0.66494960  0.74834425  0.56332825  1
  O  O312  1  0.14628724  -0.01010255  0.42663944  1
  O  O313  1  0.14251202  -0.00153033  0.91560811  1
  O  O314  1  0.16119838  0.49675212  0.41260400  1
  O  O315  1  0.14851863  0.50224874  0.91437867  1
  O  O316  1  0.47963884  -0.00604099  0.41780621  1
  O  O317  1  0.48831425  -0.00740159  0.91621369  1
  O  O318  1  0.48422064  0.49049218  0.42419985  1
  O  O319  1  0.50376294  0.51773691  0.91970264  1
  O  O320  1  0.85326849  0.00619376  0.42167707  1
  O  O321  1  0.83443172  -0.00244166  0.91404305  1
  O  O322  1  0.82066217  0.50448921  0.41863329  1
  O  O323  1  0.83026395  0.50300620  0.91194447  1
  O  O324  1  0.32565224  0.24807355  0.41668592  1
  O  O325  1  0.32518681  0.23625431  0.92554872  1
  O  O326  1  0.30711636  0.75110477  0.41519458  1
  O  O327  1  0.30874922  0.75158470  0.91356505  1
  O  O328  1  0.66413120  0.25904696  0.42860959  1
  O  O329  1  0.66732982  0.23341656  0.92732421  1
  O  O330  1  0.65890690  0.75337684  0.41229044  1
  O  O331  1  0.66897618  0.75301264  0.91029742  1
  O  O332  1  0.98189204  0.25852832  0.41844536  1
  O  O333  1  0.98673358  0.25181062  0.91377875  1
  O  O334  1  1.00298253  0.73869494  0.41322466  1
  O  O335  1  0.98859342  0.74895657  0.91164140  1
  O  O336  1  0.20849056  0.07997740  0.19536518  1
  O  O337  1  0.20926114  0.07881590  0.69803135  1
  O  O338  1  0.21036135  0.59337914  0.18698537  1
  O  O339  1  0.20974536  0.59059157  0.69229093  1
  O  O340  1  0.54233667  0.08205275  0.19463374  1
  O  O341  1  0.54485444  0.08356993  0.69573237  1
  O  O342  1  0.55477263  0.58580417  0.18385318  1
  O  O343  1  0.54090922  0.58244377  0.69268241  1
  O  O344  1  0.87668280  0.08414275  0.19730029  1
  O  O345  1  0.87787334  0.08550799  0.69641925  1
  O  O346  1  0.87654001  0.57989728  0.18879316  1
  O  O347  1  0.87985787  0.58219640  0.69149804  1
  O  O348  1  0.04394901  0.33055725  0.19353655  1
  O  O349  1  0.04000959  0.33074606  0.69358028  1
  O  O350  1  0.04226206  0.83494013  0.19378632  1
  O  O351  1  0.04534793  0.83471095  0.69693893  1
  O  O352  1  0.37505161  0.33241573  0.19589965  1
  O  O353  1  0.37832938  0.33114557  0.69780406  1
  O  O354  1  0.37523242  0.83702551  0.19513107  1
  O  O355  1  0.37711080  0.83481514  0.69360907  1
  O  O356  1  0.70041266  0.33499004  0.19590616  1
  O  O357  1  0.71409911  0.33387367  0.69668200  1
  O  O358  1  0.70863080  0.83423292  0.19036165  1
  O  O359  1  0.71307117  0.83317158  0.69543120  1
  O  O360  1  0.21147820  0.41345282  0.20210071  1
  O  O361  1  0.21367078  0.42320297  0.69797463  1
  O  O362  1  0.20909003  0.91584251  0.19761143  1
  O  O363  1  0.21122973  0.91375219  0.69683577  1
  O  O364  1  0.54759371  0.41074865  0.20051139  1
  O  O365  1  0.54566528  0.41546981  0.69406136  1
  O  O366  1  0.54170299  0.91926028  0.19603932  1
  O  O367  1  0.53585867  0.91959551  0.68984399  1
  O  O368  1  0.88321892  0.41899372  0.19515189  1
  O  O369  1  0.87859320  0.41439914  0.69534048  1
  O  O370  1  0.87963880  0.91740148  0.20196539  1
  O  O371  1  0.88011615  0.91879499  0.69294767  1
  O  O372  1  0.04412829  0.16668597  0.19728992  1
  O  O373  1  0.04427239  0.16332399  0.69666123  1
  O  O374  1  0.04359450  0.66737323  0.19918830  1
  O  O375  1  0.04378655  0.67011088  0.69608679  1
  O  O376  1  0.37745305  0.16259039  0.20536953  1
  O  O377  1  0.36860323  0.16350327  0.69438924  1
  O  O378  1  0.36418232  0.67366148  0.19149959  1
  O  O379  1  0.37682141  0.66980254  0.69388277  1
  O  O380  1  0.71369701  0.16367060  0.19883161  1
  O  O381  1  0.71080636  0.16789908  0.69754951  1
  O  O382  1  0.71387424  0.66591912  0.19804305  1
  O  O383  1  0.71262531  0.66567250  0.69628481  1
  O  O384  1  0.12058378  0.08291420  0.30163537  1
  O  O385  1  0.12276015  0.08053864  0.80676708  1
  O  O386  1  0.12251489  0.58217464  0.30243212  1
  O  O387  1  0.12336123  0.58534716  0.80300304  1
  O  O388  1  0.45693564  0.07905911  0.31014767  1
  O  O389  1  0.45650113  0.07483883  0.80597017  1
  O  O390  1  0.44023055  0.58829214  0.30216406  1
  O  O391  1  0.45715582  0.59026882  0.80392555  1
  O  O392  1  0.79287310  0.08066965  0.30990282  1
  O  O393  1  0.79506838  0.08288447  0.80616064  1
  O  O394  1  0.79662571  0.58328244  0.30483448  1
  O  O395  1  0.79341358  0.58322527  0.80193343  1
  O  O396  1  0.29038476  0.32941704  0.30666716  1
  O  O397  1  0.28876022  0.33016822  0.80099340  1
  O  O398  1  0.28678275  0.83461323  0.30493622  1
  O  O399  1  0.29134988  0.83426563  0.80495166  1
  O  O400  1  0.62462047  0.33607976  0.31194773  1
  O  O401  1  0.62269650  0.33233722  0.80183171  1
  O  O402  1  0.62317054  0.83668587  0.30486839  1
  O  O403  1  0.62330935  0.83184206  0.80136620  1
  O  O404  1  0.96697659  0.33552646  0.30743423  1
  O  O405  1  0.95455526  0.33240372  0.80417509  1
  O  O406  1  0.95963658  0.82837201  0.30727802  1
  O  O407  1  0.95971745  0.83418134  0.80423492  1
  O  O408  1  0.12090848  0.41089636  0.30600638  1
  O  O409  1  0.11643187  0.42214007  0.80634251  1
  O  O410  1  0.12190553  0.91561201  0.30802700  1
  O  O411  1  0.12429362  0.91591655  0.80582199  1
  O  O412  1  0.45152057  0.40838354  0.30980672  1
  O  O413  1  0.45456651  0.41935958  0.79911431  1
  O  O414  1  0.45391266  0.91771196  0.30512998  1
  O  O415  1  0.45841459  0.91303569  0.80452291  1
  O  O416  1  0.78864961  0.42473604  0.30750522  1
  O  O417  1  0.79019409  0.41767991  0.80580970  1
  O  O418  1  0.78831845  0.91443163  0.30049022  1
  O  O419  1  0.80143981  0.91742807  0.80382416  1
  O  O420  1  0.28643529  0.16309581  0.30972243  1
  O  O421  1  0.29071674  0.16007543  0.80893890  1
  O  O422  1  0.28489645  0.66836441  0.30669917  1
  O  O423  1  0.28990786  0.67043414  0.80360548  1
  O  O424  1  0.61780668  0.16158188  0.30360621  1
  O  O425  1  0.63368176  0.16217382  0.81016300  1
  O  O426  1  0.63415032  0.66889440  0.30509088  1
  O  O427  1  0.62583596  0.66912789  0.80031243  1
  O  O428  1  0.95960930  0.16827647  0.31066809  1
  O  O429  1  0.95710187  0.16600773  0.80579685  1
  O  O430  1  0.95602170  0.66208795  0.30270931  1
  O  O431  1  0.95728668  0.66627088  0.80223940  1
  F  F432  1  0.04359481  -0.00117895  0.20378713  1
  F  F433  1  0.04736443  -0.00054884  0.70341123  1
  F  F434  1  0.04354777  0.49687184  0.19818991  1
  F  F435  1  0.04501606  0.50105485  0.70057581  1
  F  F436  1  0.37722473  -0.00030888  0.20432239  1
  F  F437  1  0.37732451  -0.00196727  0.70266699  1
  F  F438  1  0.36216904  0.49982945  0.19542227  1
  F  F439  1  0.37811246  0.50591238  0.70067163  1
  F  F440  1  0.71083638  0.00239290  0.20318919  1
  F  F441  1  0.71556701  0.00753056  0.69964066  1
  F  F442  1  0.71538934  0.50016183  0.20077264  1
  F  F443  1  0.71394905  0.49810158  0.70129024  1
  F  F444  1  0.21114221  0.24610853  0.20499740  1
  F  F445  1  0.21074021  0.24097850  0.70133518  1
  F  F446  1  0.21115668  0.75341331  0.20392444  1
  F  F447  1  0.21289358  0.75289198  0.70258231  1
  F  F448  1  0.53738608  0.24849726  0.20395627  1
  F  F449  1  0.54806608  0.24830010  0.70240903  1
  F  F450  1  0.54862748  0.76348195  0.19776366  1
  F  F451  1  0.54363549  0.75036387  0.69788079  1
  F  F452  1  0.88501689  0.23871787  0.20274641  1
  F  F453  1  0.87952967  0.24865495  0.70338446  1
  F  F454  1  0.87923636  0.74992411  0.20097386  1
  F  F455  1  0.88266477  0.75117847  0.70062234  1
  F  F456  1  0.28645625  -0.00177895  0.30022074  1
  F  F457  1  0.28861200  -0.00438961  0.80000016  1
  F  F458  1  0.28815592  0.50208366  0.29977392  1
  F  F459  1  0.28634522  0.50998168  0.79947906  1
  F  F460  1  0.62056578  -0.00130187  0.29824124  1
  F  F461  1  0.62153923  -0.00025133  0.79783070  1
  F  F462  1  0.63515509  0.50396895  0.30241912  1
  F  F463  1  0.62263939  0.50344297  0.79488988  1
  F  F464  1  0.95760460  0.00107518  0.30153702  1
  F  F465  1  0.95648281  0.00048921  0.79775320  1
  F  F466  1  0.95691380  0.50083259  0.29661329  1
  F  F467  1  0.95429544  0.50050863  0.79518509  1
  F  F468  1  0.12180213  0.24923133  0.29931731  1
  F  F469  1  0.11593080  0.23966540  0.80347205  1
  F  F470  1  0.12105485  0.75154516  0.29922044  1
  F  F471  1  0.12312210  0.75104936  0.79928231  1
  F  F472  1  0.45351850  0.24934328  0.30323561  1
  F  F473  1  0.45342772  0.24626397  0.79916882  1
  F  F474  1  0.44859152  0.76257581  0.30203600  1
  F  F475  1  0.45626889  0.75286060  0.79486868  1
  F  F476  1  0.78950599  0.23954333  0.31121862  1
  F  F477  1  0.79038807  0.24965212  0.79953851  1
  F  F478  1  0.79081523  0.75099192  0.29571344  1
  F  F479  1  0.79383113  0.75003399  0.79701439  1
