# generated using pymatgen
data_K24Na3Li5Mg64Fe17Si79(O5F)48
_symmetry_space_group_name_H-M   'P 1'
_cell_length_a   16.09660809
_cell_length_b   18.59257965
_cell_length_c   20.57077759
_cell_angle_alpha   90.01395000
_cell_angle_beta   100.04033082
_cell_angle_gamma   89.96918297
_symmetry_Int_Tables_number   1
_chemical_formula_structural   K24Na3Li5Mg64Fe17Si79(O5F)48
_chemical_formula_sum   'K24 Na3 Li5 Mg64 Fe17 Si79 O240 F48'
_cell_volume   6062.08618006
_cell_formula_units_Z   1
loop_
 _symmetry_equiv_pos_site_id
 _symmetry_equiv_pos_as_xyz
  1  'x, y, z'
loop_
 _atom_site_type_symbol
 _atom_site_label
 _atom_site_symmetry_multiplicity
 _atom_site_fract_x
 _atom_site_fract_y
 _atom_site_fract_z
 _atom_site_occupancy
  K  K0  1  -0.00935683  -0.00393827  0.00844805  1
  K  K1  1  0.00670755  -0.01766207  0.49547333  1
  K  K2  1  0.01042630  0.50189976  0.00915030  1
  K  K3  1  0.00217647  0.50917817  0.49154532  1
  K  K4  1  0.34042436  -0.00848417  -0.00183842  1
  K  K5  1  0.32046967  -0.00465842  0.50142276  1
  K  K6  1  0.33036759  0.50070788  -0.00057939  1
  K  K7  1  0.32033992  0.50688668  0.49608436  1
  K  K8  1  0.67383018  -0.01061036  0.00069994  1
  K  K9  1  0.66139609  -0.00602522  0.49733920  1
  K  K10  1  0.67038744  0.49939792  0.00492361  1
  K  K11  1  0.65582873  0.51565659  0.49916729  1
  K  K12  1  0.16868116  0.25334035  0.00447299  1
  K  K13  1  0.16989709  0.25043443  0.49625718  1
  K  K14  1  0.16760368  0.74111374  0.00398630  1
  K  K15  1  0.17712627  0.75735854  0.49415121  1
  K  K16  1  0.49749596  0.25731419  -0.00429637  1
  K  K17  1  0.48883868  0.25324284  0.50170568  1
  K  K18  1  0.49582919  0.74895117  0.00175168  1
  K  K19  1  0.50439984  0.74937357  0.49482370  1
  K  K20  1  0.83621057  0.25466888  0.00561062  1
  K  K21  1  0.83931987  0.25225639  0.49285986  1
  K  K22  1  0.83930753  0.75161379  0.01182389  1
  K  K23  1  0.82891423  0.75262346  0.49126096  1
  Na  Na24  1  -0.00354449  0.75296009  0.24511133  1
  Na  Na25  1  0.16977619  0.33577977  0.24558052  1
  Na  Na26  1  0.33202551  0.57929551  0.74921998  1
  Li  Li27  1  0.17450503  0.49450602  0.24818274  1
  Li  Li28  1  0.33608038  0.24919203  0.75879455  1
  Li  Li29  1  0.83857242  0.82865991  0.24102223  1
  Li  Li30  1  -0.00493440  0.90549233  0.24530483  1
  Li  Li31  1  0.32442799  0.42136778  0.25021009  1
  Mg  Mg32  1  0.83148254  0.50135748  0.74874163  1
  Mg  Mg33  1  0.33215615  0.74852608  0.25516774  1
  Mg  Mg34  1  0.83144307  0.00108386  0.75312592  1
  Mg  Mg35  1  0.49761303  0.49809822  0.25240176  1
  Mg  Mg36  1  0.49656885  -0.00004935  0.75370024  1
  Mg  Mg37  1  0.33266964  0.25327198  0.24880506  1
  Mg  Mg38  1  0.16337125  -0.00434808  0.24869822  1
  Mg  Mg39  1  0.66239974  0.24975549  0.75512999  1
  Mg  Mg40  1  0.83894307  -0.00544651  0.25153613  1
  Mg  Mg41  1  0.49744982  0.49899394  0.75086592  1
  Mg  Mg42  1  0.16586227  0.49698177  0.75236438  1
  Mg  Mg43  1  0.00347498  0.25124284  0.24566545  1
  Mg  Mg44  1  0.83488622  0.50253057  0.24473688  1
  Mg  Mg45  1  0.67058526  0.25174224  0.24698911  1
  Mg  Mg46  1  0.66770797  0.74920180  0.74833201  1
  Mg  Mg47  1  0.33392890  0.74948205  0.74881774  1
  Mg  Mg48  1  0.50296007  0.00043342  0.25452218  1
  Mg  Mg49  1  -0.00326268  0.25009545  0.75005380  1
  Mg  Mg50  1  0.66810575  0.74991162  0.25103695  1
  Mg  Mg51  1  -0.00072734  0.74872092  0.74907863  1
  Mg  Mg52  1  0.16719043  0.00033572  0.74758529  1
  Mg  Mg53  1  0.16912360  0.16807193  0.75095133  1
  Mg  Mg54  1  0.49743040  0.83480523  0.75131812  1
  Mg  Mg55  1  0.33535121  0.91574516  0.25478788  1
  Mg  Mg56  1  0.16727905  0.66450627  0.75034432  1
  Mg  Mg57  1  0.83344871  0.66645289  0.74842770  1
  Mg  Mg58  1  0.66557716  0.08441356  0.75595646  1
  Mg  Mg59  1  0.66544919  0.91570517  0.75252671  1
  Mg  Mg60  1  0.33320692  0.08472587  0.25083553  1
  Mg  Mg61  1  -0.00184254  0.41554738  0.74975019  1
  Mg  Mg62  1  0.49851972  0.33457159  0.24899136  1
  Mg  Mg63  1  0.67277710  0.91253490  0.25192673  1
  Mg  Mg64  1  0.83593679  0.33575514  0.24341521  1
  Mg  Mg65  1  0.83411201  0.83468225  0.75027219  1
  Mg  Mg66  1  0.00333912  0.58460870  0.24959681  1
  Mg  Mg67  1  0.50040994  0.66482235  0.25423768  1
  Mg  Mg68  1  -0.00133518  0.08516550  0.75087139  1
  Mg  Mg69  1  -0.00037632  0.58426221  0.74991387  1
  Mg  Mg70  1  0.66562242  0.58538718  0.25076208  1
  Mg  Mg71  1  0.49838441  0.66542590  0.74683792  1
  Mg  Mg72  1  0.83051555  0.16546638  0.75253334  1
  Mg  Mg73  1  0.33454151  0.08595972  0.75405072  1
  Mg  Mg74  1  0.16600362  0.16589727  0.24697933  1
  Mg  Mg75  1  0.50171794  0.16756566  0.24948247  1
  Mg  Mg76  1  0.66591129  0.58449090  0.74636869  1
  Mg  Mg77  1  0.49771525  0.33335418  0.75500712  1
  Mg  Mg78  1  0.33369227  0.91517245  0.75045930  1
  Mg  Mg79  1  0.82995670  0.33436502  0.74997223  1
  Mg  Mg80  1  0.66785353  0.41585288  0.24696804  1
  Mg  Mg81  1  0.66451587  0.41496261  0.75096205  1
  Mg  Mg82  1  0.83140227  0.67045522  0.24705730  1
  Mg  Mg83  1  -0.00052359  0.08080828  0.24519949  1
  Mg  Mg84  1  0.16922329  0.66352329  0.25324141  1
  Mg  Mg85  1  0.16785212  0.83453568  0.74850372  1
  Mg  Mg86  1  0.33113365  0.57792178  0.25577388  1
  Mg  Mg87  1  0.16677451  0.83181018  0.25141626  1
  Mg  Mg88  1  0.49686087  0.16681392  0.75711517  1
  Mg  Mg89  1  0.00563474  0.41885621  0.24354259  1
  Mg  Mg90  1  0.16839061  0.33083132  0.75022184  1
  Mg  Mg91  1  0.83462544  0.16549562  0.24583828  1
  Mg  Mg92  1  0.66987586  0.08332788  0.24944398  1
  Mg  Mg93  1  0.33342546  0.41204104  0.75414497  1
  Mg  Mg94  1  0.50408152  0.83395070  0.25660790  1
  Mg  Mg95  1  0.00083355  0.91605526  0.74844338  1
  Fe  Fe96  1  0.30615360  0.33020785  0.88960180  1
  Fe  Fe97  1  0.68963722  0.67166787  0.60790227  1
  Fe  Fe98  1  0.47920262  0.90972914  0.89492566  1
  Fe  Fe99  1  0.97869903  0.66757419  0.88935163  1
  Fe  Fe100  1  0.03278804  0.33628382  0.10540881  1
  Fe  Fe101  1  0.64227582  0.66306753  0.39257453  1
  Fe  Fe102  1  0.36540741  0.82948955  0.60855963  1
  Fe  Fe103  1  0.68970275  0.33586593  0.10759379  1
  Fe  Fe104  1  0.86004270  0.91052394  0.10962778  1
  Fe  Fe105  1  0.19027755  0.91847254  0.60829705  1
  Fe  Fe106  1  0.30849312  0.66336038  0.39363513  1
  Fe  Fe107  1  0.47524879  0.08216156  0.89513094  1
  Fe  Fe108  1  0.80635040  0.08182368  0.89281480  1
  Fe  Fe109  1  0.64465384  0.83809298  0.39487971  1
  Fe  Fe110  1  0.30985827  0.83832540  0.39205309  1
  Fe  Fe111  1  0.68480190  0.66538695  0.10877652  1
  Fe  Fe112  1  0.64291818  0.33652900  0.89171188  1
  Si  Si113  1  0.18700922  0.09013284  0.61235371  1
  Si  Si114  1  0.86282895  0.42173458  0.10718239  1
  Si  Si115  1  0.81018406  0.57759067  0.38613624  1
  Si  Si116  1  0.29898021  0.83181291  0.88979286  1
  Si  Si117  1  0.69010460  0.33139822  0.61365729  1
  Si  Si118  1  0.52212981  0.08757866  0.61722095  1
  Si  Si119  1  0.36291798  0.33036549  0.11448007  1
  Si  Si120  1  0.36059289  0.66952973  0.11844514  1
  Si  Si121  1  0.02080524  0.33443702  0.61357258  1
  Si  Si122  1  0.97132814  0.33522282  0.88281520  1
  Si  Si123  1  0.02546019  0.66301236  0.61340490  1
  Si  Si124  1  0.36514375  0.83421924  0.11896630  1
  Si  Si125  1  0.19860911  0.91508152  0.11390312  1
  Si  Si126  1  0.52525979  0.91985016  0.11845997  1
  Si  Si127  1  0.30362359  0.16072010  0.89022541  1
  Si  Si128  1  0.02076970  0.17022465  0.61422668  1
  Si  Si129  1  0.81469721  0.41485158  0.38310460  1
  Si  Si130  1  0.81056235  0.42061461  0.88508397  1
  Si  Si131  1  0.13578491  0.41249085  0.88506357  1
  Si  Si132  1  0.52136626  0.57782670  0.61158009  1
  Si  Si133  1  0.35897885  0.16660361  0.11508004  1
  Si  Si134  1  0.86143790  0.91818475  0.61535729  1
  Si  Si135  1  0.19495700  0.07966308  0.11430519  1
  Si  Si136  1  0.30667332  0.16861859  0.38589312  1
  Si  Si137  1  0.47866368  0.09344770  0.38659592  1
  Si  Si138  1  0.47274375  0.57340258  0.39157680  1
  Si  Si139  1  0.86005006  0.58167340  0.61045231  1
  Si  Si140  1  0.53080524  0.92271412  0.61536463  1
  Si  Si141  1  0.97875644  0.83522777  0.88494750  1
  Si  Si142  1  0.13385727  0.91601288  0.38483504  1
  Si  Si143  1  0.85436810  0.41631623  0.61254172  1
  Si  Si144  1  0.14606713  0.57737291  0.88745380  1
  Si  Si145  1  0.85768488  0.08412457  0.61435809  1
  Si  Si146  1  0.14065349  0.08260331  0.38278640  1
  Si  Si147  1  0.30648161  0.66765167  0.88486648  1
  Si  Si148  1  0.35634673  0.16965527  0.61786038  1
  Si  Si149  1  0.35671995  0.33430389  0.61694096  1
  Si  Si150  1  0.97303355  0.17090925  0.88670887  1
  Si  Si151  1  0.18752593  0.41475166  0.61386076  1
  Si  Si152  1  0.68973924  0.16614268  0.61535508  1
  Si  Si153  1  0.02232324  0.82834514  0.61167296  1
  Si  Si154  1  0.81134572  0.91061195  0.88683953  1
  Si  Si155  1  0.13636981  0.92140278  0.88418724  1
  Si  Si156  1  0.64015477  0.16830721  0.89202115  1
  Si  Si157  1  0.64799310  0.16969601  0.38484090  1
  Si  Si158  1  0.18689153  0.57954191  0.61523219  1
  Si  Si159  1  0.97900177  0.33315267  0.38284110  1
  Si  Si160  1  0.96753881  0.66727391  0.38420844  1
  Si  Si161  1  0.86134802  0.58891756  0.11124897  1
  Si  Si162  1  0.13400309  0.58547701  0.39000832  1
  Si  Si163  1  0.52419949  0.08289917  0.11668377  1
  Si  Si164  1  0.52066487  0.41785637  0.11409015  1
  Si  Si165  1  0.03443323  0.66293804  0.11506897  1
  Si  Si166  1  0.81389858  0.08688798  0.38470319  1
  Si  Si167  1  0.96656591  0.83447515  0.38160761  1
  Si  Si168  1  0.64745643  0.82373051  0.88648241  1
  Si  Si169  1  0.85718998  0.08321551  0.11141646  1
  Si  Si170  1  0.47386526  0.92834511  0.39238017  1
  Si  Si171  1  0.14080062  0.42006980  0.38409363  1
  Si  Si172  1  0.13626979  0.08606717  0.88424031  1
  Si  Si173  1  0.64540198  0.66120331  0.88288820  1
  Si  Si174  1  0.68872386  0.16396049  0.11204476  1
  Si  Si175  1  0.69265344  0.84305779  0.61519537  1
  Si  Si176  1  0.68333198  0.83373413  0.11102820  1
  Si  Si177  1  0.02711222  0.16352419  0.10991559  1
  Si  Si178  1  0.47111389  0.42353465  0.89184144  1
  Si  Si179  1  0.35535146  0.66080055  0.61254767  1
  Si  Si180  1  0.30885016  0.33422206  0.38534641  1
  Si  Si181  1  0.80979228  0.58298718  0.88473759  1
  Si  Si182  1  0.51719887  0.57864101  0.11467155  1
  Si  Si183  1  0.19891975  0.58349559  0.11505653  1
  Si  Si184  1  0.81063848  0.92430376  0.39038692  1
  Si  Si185  1  0.64740195  0.33372734  0.38539461  1
  Si  Si186  1  0.52217001  0.41253637  0.61456121  1
  Si  Si187  1  0.03638067  0.83112469  0.11041288  1
  Si  Si188  1  0.47856223  0.58923300  0.88469326  1
  Si  Si189  1  0.47938350  0.40862140  0.38698874  1
  Si  Si190  1  0.97773601  0.16914288  0.38119896  1
  Si  Si191  1  0.20444418  0.42091846  0.10970039  1
  O  O192  1  0.27428431  0.11862166  0.08614469  1
  O  O193  1  0.26770596  0.12885313  0.58499507  1
  O  O194  1  0.27198048  0.63021284  0.08508620  1
  O  O195  1  0.27119745  0.60826850  0.59025816  1
  O  O196  1  0.60846703  0.10781806  0.08823554  1
  O  O197  1  0.60029474  0.12548662  0.58534356  1
  O  O198  1  0.59469507  0.59991157  0.07809271  1
  O  O199  1  0.59468257  0.61399345  0.57830286  1
  O  O200  1  0.93891740  0.11910226  0.08394816  1
  O  O201  1  0.93329607  0.12553395  0.58360087  1
  O  O202  1  0.94578984  0.62133671  0.08438307  1
  O  O203  1  0.94778470  0.60769593  0.58524127  1
  O  O204  1  0.12279193  0.37760329  0.07061811  1
  O  O205  1  0.10070631  0.36857251  0.58339886  1
  O  O206  1  0.11768642  0.86702759  0.07934583  1
  O  O207  1  0.09567651  0.85819844  0.57537329  1
  O  O208  1  0.44701992  0.35785171  0.08634509  1
  O  O209  1  0.43452878  0.36910622  0.58357475  1
  O  O210  1  0.44376966  0.86887271  0.08821322  1
  O  O211  1  0.46288351  0.86623308  0.57933398  1
  O  O212  1  0.78194835  0.37269076  0.07505832  1
  O  O213  1  0.76756907  0.37051571  0.58317035  1
  O  O214  1  0.76075534  0.85937233  0.07517652  1
  O  O215  1  0.77591440  0.87393188  0.58667695  1
  O  O216  1  0.28626864  0.38327290  0.08156946  1
  O  O217  1  0.26745837  0.37728566  0.58549600  1
  O  O218  1  0.28126251  0.88134281  0.08688719  1
  O  O219  1  0.27942465  0.88992657  0.57082862  1
  O  O220  1  0.60091337  0.40063959  0.07957581  1
  O  O221  1  0.59956143  0.37099172  0.58476014  1
  O  O222  1  0.60560702  0.89423710  0.08668805  1
  O  O223  1  0.62230189  0.90628021  0.59224918  1
  O  O224  1  0.94068640  0.39545002  0.07222145  1
  O  O225  1  0.93345557  0.37860520  0.58315781  1
  O  O226  1  0.95182999  0.87087432  0.07287395  1
  O  O227  1  0.93725123  0.87835720  0.58555144  1
  O  O228  1  0.10579199  0.11931674  0.08384105  1
  O  O229  1  0.10304596  0.14220767  0.58496268  1
  O  O230  1  0.10858656  0.62197212  0.08212863  1
  O  O231  1  0.10594711  0.63067884  0.58251724  1
  O  O232  1  0.44176325  0.13364237  0.08766486  1
  O  O233  1  0.43613113  0.13400703  0.58700806  1
  O  O234  1  0.43649302  0.63257243  0.08609147  1
  O  O235  1  0.42975382  0.61510466  0.58413592  1
  O  O236  1  0.77325131  0.13444522  0.08544889  1
  O  O237  1  0.76717502  0.12518450  0.58590532  1
  O  O238  1  0.78177960  0.63604723  0.07516053  1
  O  O239  1  0.78385024  0.63195953  0.57594944  1
  O  O240  1  0.06515986  0.12596131  0.41213770  1
  O  O241  1  0.05273320  0.11565212  0.91224444  1
  O  O242  1  0.05065150  0.61943491  0.41799923  1
  O  O243  1  0.07227103  0.60889258  0.92338052  1
  O  O244  1  0.39969269  0.13179016  0.41605010  1
  O  O245  1  0.36960278  0.09855430  0.92109155  1
  O  O246  1  0.38945685  0.59191190  0.42216775  1
  O  O247  1  0.39887563  0.62944505  0.91147379  1
  O  O248  1  0.73245547  0.12160655  0.41498322  1
  O  O249  1  0.70518261  0.10328655  0.92056100  1
  O  O250  1  0.73132034  0.59692088  0.42101821  1
  O  O251  1  0.71873677  0.60096286  0.90878737  1
  O  O252  1  0.23214469  0.37782236  0.41368039  1
  O  O253  1  0.20408992  0.35512297  0.91907774  1
  O  O254  1  0.21395000  0.87277252  0.42369549  1
  O  O255  1  0.21405963  0.86731093  0.91488149  1
  O  O256  1  0.56667184  0.36159593  0.41795934  1
  O  O257  1  0.54969779  0.37310978  0.92476273  1
  O  O258  1  0.55210586  0.87995262  0.42770695  1
  O  O259  1  0.56864122  0.84270468  0.92177756  1
  O  O260  1  0.89752577  0.36448255  0.41391706  1
  O  O261  1  0.88692416  0.36151215  0.91042706  1
  O  O262  1  0.89367228  0.87328831  0.41846964  1
  O  O263  1  0.89071441  0.85492880  0.91097361  1
  O  O264  1  0.06592991  0.37558860  0.41616054  1
  O  O265  1  0.04486318  0.39398827  0.90923879  1
  O  O266  1  0.05201859  0.88165375  0.41276212  1
  O  O267  1  0.04986656  0.89833622  0.91109111  1
  O  O268  1  0.40188381  0.36952541  0.41857297  1
  O  O269  1  0.38761526  0.40076332  0.92132009  1
  O  O270  1  0.38754448  0.91326854  0.41939703  1
  O  O271  1  0.38061437  0.87481486  0.92651197  1
  O  O272  1  0.73360469  0.38079915  0.41356048  1
  O  O273  1  0.73084415  0.40285983  0.91913336  1
  O  O274  1  0.73587994  0.90054045  0.42892109  1
  O  O275  1  0.72910479  0.87630441  0.91331356  1
  O  O276  1  0.23118359  0.12390133  0.41394118  1
  O  O277  1  0.21244854  0.13972776  0.91542731  1
  O  O278  1  0.21435379  0.62867724  0.42939354  1
  O  O279  1  0.23598283  0.61962838  0.91497116  1
  O  O280  1  0.56438629  0.14186519  0.41435336  1
  O  O281  1  0.55177206  0.15839586  0.91933522  1
  O  O282  1  0.55134396  0.62220837  0.42644353  1
  O  O283  1  0.56214429  0.63837755  0.91478564  1
  O  O284  1  0.89697595  0.13789176  0.41270635  1
  O  O285  1  0.89480495  0.14866782  0.92143088  1
  O  O286  1  0.89033234  0.63046155  0.41699834  1
  O  O287  1  0.87863885  0.64086831  0.91891228  1
  O  O288  1  0.18819027  -0.00227258  0.08352845  1
  O  O289  1  0.16550173  0.01431968  0.57592752  1
  O  O290  1  0.19936107  0.50462878  0.07887247  1
  O  O291  1  0.17092956  0.49682011  0.58375021  1
  O  O292  1  0.49840577  0.00147132  0.09062984  1
  O  O293  1  0.50813772  0.00607498  0.58739020  1
  O  O294  1  0.48214575  0.49750183  0.08990570  1
  O  O295  1  0.51325696  0.49342234  0.58379252  1
  O  O296  1  0.84118201  0.00628404  0.07594814  1
  O  O297  1  0.85188790  0.00137202  0.58571487  1
  O  O298  1  0.84494759  0.50622405  0.08264506  1
  O  O299  1  0.84349807  0.49761219  0.58244866  1
  O  O300  1  0.01966716  0.23999815  0.07263666  1
  O  O301  1  0.00307594  0.25245079  0.58403066  1
  O  O302  1  0.03127431  0.74543056  0.08493369  1
  O  O303  1  -0.00013101  0.74440971  0.58584148  1
  O  O304  1  0.34229466  0.24772293  0.08457135  1
  O  O305  1  0.34528447  0.25197591  0.58615440  1
  O  O306  1  0.35127463  0.75252199  0.08895071  1
  O  O307  1  0.33674948  0.73613839  0.57466679  1
  O  O308  1  0.66126408  0.24077064  0.07890268  1
  O  O309  1  0.68378368  0.24846558  0.58400257  1
  O  O310  1  0.64701767  0.75725898  0.07869699  1
  O  O311  1  0.66485593  0.76713061  0.58103429  1
  O  O312  1  0.14258347  0.00154461  0.41325693  1
  O  O313  1  0.15819503  0.00363266  0.91215931  1
  O  O314  1  0.14338830  0.50018887  0.41908942  1
  O  O315  1  0.16385267  0.49369473  0.91220474  1
  O  O316  1  0.49926861  0.01374309  0.41684052  1
  O  O317  1  0.51330893  -0.00411611  0.93544901  1
  O  O318  1  0.49710349  0.48880822  0.41798628  1
  O  O319  1  0.49178702  0.50867177  0.91686204  1
  O  O320  1  0.83678051  0.00836482  0.41824725  1
  O  O321  1  0.83770133  -0.01276919  0.92097474  1
  O  O322  1  0.83930463  0.49456365  0.41376579  1
  O  O323  1  0.84381698  0.50187940  0.90959432  1
  O  O324  1  0.30918429  0.25055895  0.41776458  1
  O  O325  1  0.33394440  0.23763813  0.92377399  1
  O  O326  1  0.34637593  0.75135157  0.42920164  1
  O  O327  1  0.30531960  0.74782587  0.91896269  1
  O  O328  1  0.66898006  0.25130652  0.41475991  1
  O  O329  1  0.68345875  0.24496684  0.91865741  1
  O  O330  1  0.67040384  0.74986505  0.43421538  1
  O  O331  1  0.67901755  0.74085664  0.90974189  1
  O  O332  1  0.99192090  0.25062575  0.41302497  1
  O  O333  1  1.00135529  0.25452416  0.90987712  1
  O  O334  1  0.97844432  0.75086968  0.41260118  1
  O  O335  1  1.01510667  0.76050484  0.91796742  1
  O  O336  1  0.21269669  0.08100723  0.19461357  1
  O  O337  1  0.20544795  0.08669503  0.69308932  1
  O  O338  1  0.21480579  0.58468478  0.19409339  1
  O  O339  1  0.19523231  0.57899873  0.69422643  1
  O  O340  1  0.54352637  0.08505750  0.19745660  1
  O  O341  1  0.54435809  0.08708726  0.69703188  1
  O  O342  1  0.53919899  0.58083756  0.19534800  1
  O  O343  1  0.54156283  0.58003118  0.69250185  1
  O  O344  1  0.87588110  0.08394736  0.19252106  1
  O  O345  1  0.87663266  0.08514376  0.69439814  1
  O  O346  1  0.87684268  0.58579058  0.19202617  1
  O  O347  1  0.87587886  0.58044103  0.69128532  1
  O  O348  1  0.03570313  0.33215068  0.19473912  1
  O  O349  1  0.03792663  0.33400405  0.69351176  1
  O  O350  1  0.05564060  0.83856568  0.18897194  1
  O  O351  1  0.04170243  0.83187863  0.69277555  1
  O  O352  1  0.38141699  0.32666739  0.19384993  1
  O  O353  1  0.37888418  0.33606047  0.69572511  1
  O  O354  1  0.38209766  0.83614718  0.19880450  1
  O  O355  1  0.37664979  0.83196445  0.70082708  1
  O  O356  1  0.71310825  0.33357444  0.19965649  1
  O  O357  1  0.70998692  0.33275204  0.69351324  1
  O  O358  1  0.70230579  0.83396468  0.19147085  1
  O  O359  1  0.71234995  0.83703509  0.69615380  1
  O  O360  1  0.21693697  0.42180211  0.18769904  1
  O  O361  1  0.20348032  0.41501340  0.69336297  1
  O  O362  1  0.21426340  0.91854365  0.19377919  1
  O  O363  1  0.20960953  0.91686192  0.70069295  1
  O  O364  1  0.54279179  0.41482915  0.19513911  1
  O  O365  1  0.54167354  0.41394529  0.69442177  1
  O  O366  1  0.54233046  0.91993657  0.19871009  1
  O  O367  1  0.54463366  0.91984958  0.69627330  1
  O  O368  1  0.87736553  0.41842515  0.18900842  1
  O  O369  1  0.87347072  0.41517551  0.69285620  1
  O  O370  1  0.87689976  0.91840123  0.19764509  1
  O  O371  1  0.87826638  0.91937726  0.69586066  1
  O  O372  1  0.04476363  0.16532540  0.19093755  1
  O  O373  1  0.03654169  0.16784005  0.69426230  1
  O  O374  1  0.05253899  0.65956611  0.19403404  1
  O  O375  1  0.04432832  0.66453442  0.69375665  1
  O  O376  1  0.37819093  0.16530281  0.19561461  1
  O  O377  1  0.37484983  0.16688317  0.69692004  1
  O  O378  1  0.37932660  0.66738148  0.19815677  1
  O  O379  1  0.37928540  0.67018802  0.69201164  1
  O  O380  1  0.70912346  0.16565757  0.19358927  1
  O  O381  1  0.70763579  0.16818046  0.69520262  1
  O  O382  1  0.70855490  0.66411256  0.19968642  1
  O  O383  1  0.71268759  0.66680370  0.69956676  1
  O  O384  1  0.12499232  0.08342834  0.30284363  1
  O  O385  1  0.11955674  0.08483604  0.80330321  1
  O  O386  1  0.11940692  0.58808531  0.31058484  1
  O  O387  1  0.12330293  0.58161310  0.80646581  1
  O  O388  1  0.45808448  0.08966011  0.30637332  1
  O  O389  1  0.45477676  0.08249661  0.80201865  1
  O  O390  1  0.45866025  0.57857855  0.31036114  1
  O  O391  1  0.46635593  0.58456419  0.80536653  1
  O  O392  1  0.79167673  0.08759097  0.30480267  1
  O  O393  1  0.78875846  0.08393864  0.80019887  1
  O  O394  1  0.79145003  0.57813574  0.30574410  1
  O  O395  1  0.79180369  0.58268405  0.80341081  1
  O  O396  1  0.29928503  0.32875730  0.30750780  1
  O  O397  1  0.28449140  0.33103829  0.79862156  1
  O  O398  1  0.29008436  0.83500169  0.29996769  1
  O  O399  1  0.28583205  0.83175331  0.80924178  1
  O  O400  1  0.62619639  0.33251046  0.30555662  1
  O  O401  1  0.62107696  0.33479556  0.79926202  1
  O  O402  1  0.62392396  0.83513376  0.30259145  1
  O  O403  1  0.62576605  0.83024810  0.80526886  1
  O  O404  1  0.95711365  0.33346021  0.30326558  1
  O  O405  1  0.95258190  0.33366282  0.80173068  1
  O  O406  1  0.94792522  0.83764567  0.30407398  1
  O  O407  1  0.95933785  0.83457097  0.80347957  1
  O  O408  1  0.11768534  0.42104619  0.30623061  1
  O  O409  1  0.11834678  0.41307951  0.80368250  1
  O  O410  1  0.12606861  0.91727915  0.30534681  1
  O  O411  1  0.12022139  0.91876872  0.80370299  1
  O  O412  1  0.46537979  0.41078643  0.30789180  1
  O  O413  1  0.45711183  0.41930507  0.81004794  1
  O  O414  1  0.45943490  0.92292176  0.31063159  1
  O  O415  1  0.45547552  0.91636475  0.80249227  1
  O  O416  1  0.79427596  0.41516242  0.30326662  1
  O  O417  1  0.79053141  0.41761139  0.80342566  1
  O  O418  1  0.78609917  0.92727593  0.31121755  1
  O  O419  1  0.79155798  0.91548977  0.80548495  1
  O  O420  1  0.29127854  0.16656724  0.30594105  1
  O  O421  1  0.28426541  0.16202861  0.80900150  1
  O  O422  1  0.29042662  0.66464732  0.30182110  1
  O  O423  1  0.28485806  0.67245456  0.80562498  1
  O  O424  1  0.62762236  0.16822292  0.30478518  1
  O  O425  1  0.62350106  0.16692444  0.80898841  1
  O  O426  1  0.61963299  0.66539904  0.30102311  1
  O  O427  1  0.62310622  0.66388005  0.80245479  1
  O  O428  1  0.95785607  0.16812696  0.30136005  1
  O  O429  1  0.95417310  0.16823039  0.80514228  1
  O  O430  1  0.94986689  0.65994219  0.30527876  1
  O  O431  1  0.95540876  0.66603464  0.79705715  1
  F  F432  1  0.04966207  0.00650882  0.19650060  1
  F  F433  1  0.04251084  0.00204406  0.70045555  1
  F  F434  1  0.04070905  0.50313616  0.19790539  1
  F  F435  1  0.04258344  0.49788918  0.70194178  1
  F  F436  1  0.38139336  0.00183955  0.20584037  1
  F  F437  1  0.37493441  0.00204843  0.70102039  1
  F  F438  1  0.38198628  0.50245426  0.20487119  1
  F  F439  1  0.38136556  0.48760859  0.70001134  1
  F  F440  1  0.71264059  0.00104434  0.20400716  1
  F  F441  1  0.71096322  0.00044518  0.70331597  1
  F  F442  1  0.71219718  0.49945984  0.20173395  1
  F  F443  1  0.71121178  0.49743789  0.69952790  1
  F  F444  1  0.21851221  0.23730162  0.19639369  1
  F  F445  1  0.19495800  0.24845227  0.69480346  1
  F  F446  1  0.21464223  0.74990425  0.19913991  1
  F  F447  1  0.20981139  0.74855143  0.70116610  1
  F  F448  1  0.54730921  0.24948822  0.20312886  1
  F  F449  1  0.54296000  0.24766844  0.70221267  1
  F  F450  1  0.53908493  0.75077661  0.20314712  1
  F  F451  1  0.54597435  0.75052691  0.70276669  1
  F  F452  1  0.87874790  0.24883191  0.19958868  1
  F  F453  1  0.87504818  0.24948203  0.70026958  1
  F  F454  1  0.86465946  0.74513013  0.18982959  1
  F  F455  1  0.87804093  0.75327052  0.69944913  1
  F  F456  1  0.28731255  0.00298709  0.29820456  1
  F  F457  1  0.28547723  0.00149606  0.79773747  1
  F  F458  1  0.28933190  0.49862861  0.30403509  1
  F  F459  1  0.28078168  0.48979623  0.80096909  1
  F  F460  1  0.62257285  0.00544463  0.30045526  1
  F  F461  1  0.62142589  -0.00089054  0.79895507  1
  F  F462  1  0.62269397  0.49667451  0.29688755  1
  F  F463  1  0.62151650  0.50024184  0.79424614  1
  F  F464  1  0.95413569  0.01291242  0.30254862  1
  F  F465  1  0.95501860  0.00090857  0.79668971  1
  F  F466  1  0.95311228  0.49805115  0.29470226  1
  F  F467  1  0.95288286  0.49918598  0.79514106  1
  F  F468  1  0.11890561  0.23856639  0.30080097  1
  F  F469  1  0.11550852  0.24921635  0.79633689  1
  F  F470  1  0.13380042  0.74935624  0.30137023  1
  F  F471  1  0.12019955  0.74993784  0.79555271  1
  F  F472  1  0.45773339  0.24802270  0.29907762  1
  F  F473  1  0.45708020  0.25180436  0.80112724  1
  F  F474  1  0.45542661  0.75046234  0.30158909  1
  F  F475  1  0.45558835  0.74649506  0.79905558  1
  F  F476  1  0.79219234  0.24824265  0.29733840  1
  F  F477  1  0.78713080  0.25130960  0.79632481  1
  F  F478  1  0.78630748  0.74647759  0.30053126  1
  F  F479  1  0.79061916  0.75189213  0.79690524  1
