# generated using pymatgen
data_K24Na3Li5Mg64Fe17Si79(O5F)48
_symmetry_space_group_name_H-M   'P 1'
_cell_length_a   16.09710804
_cell_length_b   18.59059194
_cell_length_c   20.55558864
_cell_angle_alpha   89.99387672
_cell_angle_beta   100.01320718
_cell_angle_gamma   90.00748085
_symmetry_Int_Tables_number   1
_chemical_formula_structural   K24Na3Li5Mg64Fe17Si79(O5F)48
_chemical_formula_sum   'K24 Na3 Li5 Mg64 Fe17 Si79 O240 F48'
_cell_volume   6057.65848181
_cell_formula_units_Z   1
loop_
 _symmetry_equiv_pos_site_id
 _symmetry_equiv_pos_as_xyz
  1  'x, y, z'
loop_
 _atom_site_type_symbol
 _atom_site_label
 _atom_site_symmetry_multiplicity
 _atom_site_fract_x
 _atom_site_fract_y
 _atom_site_fract_z
 _atom_site_occupancy
  K  K0  1  -0.00547017  -0.00769522  0.01172512  1
  K  K1  1  -0.01108262  -0.00334862  0.48678611  1
  K  K2  1  -0.01399423  0.50238715  -0.00063000  1
  K  K3  1  -0.01117704  0.49922549  0.49488970  1
  K  K4  1  0.32703672  0.00106897  0.00567630  1
  K  K5  1  0.32862578  0.00063891  0.49755208  1
  K  K6  1  0.33203716  0.50059748  0.00176119  1
  K  K7  1  0.33734341  0.50541214  0.50146355  1
  K  K8  1  0.68365558  0.00118636  0.01933496  1
  K  K9  1  0.67708881  -0.00244888  0.49132986  1
  K  K10  1  0.67567450  0.51023653  0.00328174  1
  K  K11  1  0.67640658  0.50980849  0.50447357  1
  K  K12  1  0.16679778  0.24988856  0.00852760  1
  K  K13  1  0.16922111  0.23610064  0.49363201  1
  K  K14  1  0.16988831  0.75341375  0.00320453  1
  K  K15  1  0.15815163  0.75036648  0.49294945  1
  K  K16  1  0.50515951  0.24165620  0.00361910  1
  K  K17  1  0.50073295  0.24556875  0.49704542  1
  K  K18  1  0.50232271  0.75657556  0.00082491  1
  K  K19  1  0.50057915  0.75685939  0.49972257  1
  K  K20  1  0.83258723  0.23945955  0.01007518  1
  K  K21  1  0.84264265  0.24040960  0.49003968  1
  K  K22  1  0.82970800  0.74452563  0.00951572  1
  K  K23  1  0.83173799  0.75265870  0.49259881  1
  Na  Na24  1  -0.00099318  0.74769064  0.24768618  1
  Na  Na25  1  0.16740738  0.16579175  0.24449596  1
  Na  Na26  1  0.33066668  0.07969686  0.24716314  1
  Li  Li27  1  0.34010603  0.24736797  0.74899254  1
  Li  Li28  1  0.82816859  0.00151810  0.24844533  1
  Li  Li29  1  0.67671901  0.92404199  0.24155488  1
  Li  Li30  1  0.66830070  0.58821171  0.75310591  1
  Li  Li31  1  0.49211498  0.16980596  0.74672552  1
  Mg  Mg32  1  0.33403082  0.75155342  0.24940182  1
  Mg  Mg33  1  0.49969901  0.00431545  0.74634754  1
  Mg  Mg34  1  0.66715532  0.74980209  0.74878412  1
  Mg  Mg35  1  0.16770842  0.50083846  0.25436568  1
  Mg  Mg36  1  0.83341871  -0.00122861  0.74583595  1
  Mg  Mg37  1  0.16969475  0.00239514  0.74564869  1
  Mg  Mg38  1  0.66797784  0.75372457  0.25114590  1
  Mg  Mg39  1  0.66209159  0.24908500  0.75022012  1
  Mg  Mg40  1  0.16648895  0.50053120  0.75471566  1
  Mg  Mg41  1  0.00009410  0.24789613  0.25263152  1
  Mg  Mg42  1  0.50011270  0.49863299  0.24892253  1
  Mg  Mg43  1  0.50286257  0.49980936  0.75531775  1
  Mg  Mg44  1  0.82816015  0.50338662  0.74984339  1
  Mg  Mg45  1  0.00004609  0.24976806  0.74830917  1
  Mg  Mg46  1  0.83540356  0.49980473  0.25167917  1
  Mg  Mg47  1  0.16608139  -0.00316461  0.24590967  1
  Mg  Mg48  1  0.50290956  -0.00051346  0.24712217  1
  Mg  Mg49  1  0.33500086  0.74910645  0.75399604  1
  Mg  Mg50  1  0.33301060  0.24851074  0.24794704  1
  Mg  Mg51  1  0.00002866  0.75029706  0.74936621  1
  Mg  Mg52  1  0.66848533  0.24834766  0.25033161  1
  Mg  Mg53  1  0.49664268  0.32933738  0.75166844  1
  Mg  Mg54  1  -0.00297268  0.41689498  0.75065545  1
  Mg  Mg55  1  0.66594734  0.41754248  0.75371953  1
  Mg  Mg56  1  0.82808601  0.66435474  0.74852167  1
  Mg  Mg57  1  0.16674723  0.66554648  0.25165570  1
  Mg  Mg58  1  0.16858322  0.66602303  0.75431169  1
  Mg  Mg59  1  0.66412443  0.91643312  0.74601189  1
  Mg  Mg60  1  0.66568891  0.58423943  0.24867004  1
  Mg  Mg61  1  -0.00462589  0.91428907  0.24639256  1
  Mg  Mg62  1  0.83058039  0.83465569  0.74447305  1
  Mg  Mg63  1  -0.00075033  0.91687976  0.74607590  1
  Mg  Mg64  1  0.33201936  0.91747197  0.24649897  1
  Mg  Mg65  1  0.83098279  0.16576781  0.74865919  1
  Mg  Mg66  1  0.50355001  0.83610264  0.24795697  1
  Mg  Mg67  1  0.33541049  0.91725386  0.74844837  1
  Mg  Mg68  1  0.83280356  0.16201333  0.25059513  1
  Mg  Mg69  1  0.50027367  0.33427241  0.24769957  1
  Mg  Mg70  1  0.00014150  0.08517455  0.74557189  1
  Mg  Mg71  1  0.33431299  0.58446230  0.25236940  1
  Mg  Mg72  1  -0.00329864  0.58532738  0.75289124  1
  Mg  Mg73  1  0.00168688  0.58292780  0.25201383  1
  Mg  Mg74  1  0.16571488  0.83296040  0.24593789  1
  Mg  Mg75  1  0.16832858  0.33318564  0.75064164  1
  Mg  Mg76  1  0.83355327  0.66577288  0.24998329  1
  Mg  Mg77  1  0.00180178  0.41410659  0.25380744  1
  Mg  Mg78  1  0.16742381  0.33297444  0.25317361  1
  Mg  Mg79  1  0.50364740  0.66524251  0.75552116  1
  Mg  Mg80  1  0.33503909  0.58423410  0.75672516  1
  Mg  Mg81  1  0.83460097  0.33289152  0.25130407  1
  Mg  Mg82  1  -0.00121387  0.08079101  0.25003294  1
  Mg  Mg83  1  0.67050647  0.08004687  0.24665104  1
  Mg  Mg84  1  0.50066862  0.66682804  0.25053608  1
  Mg  Mg85  1  0.33388695  0.41445954  0.75278343  1
  Mg  Mg86  1  0.50032305  0.16539088  0.24922846  1
  Mg  Mg87  1  0.50177544  0.83668586  0.74833861  1
  Mg  Mg88  1  0.33290699  0.41439949  0.24943351  1
  Mg  Mg89  1  0.17045311  0.16814038  0.74471814  1
  Mg  Mg90  1  0.66556020  0.41574240  0.24895655  1
  Mg  Mg91  1  0.83075816  0.33464061  0.75074213  1
  Mg  Mg92  1  0.33404340  0.08936739  0.74616119  1
  Mg  Mg93  1  0.66174545  0.08520446  0.74719650  1
  Mg  Mg94  1  0.83162676  0.83621478  0.24707861  1
  Mg  Mg95  1  0.16885141  0.83481107  0.74976414  1
  Fe  Fe96  1  0.85901095  0.58137134  0.11154868  1
  Fe  Fe97  1  0.52558806  0.41829770  0.10880275  1
  Fe  Fe98  1  0.80521957  0.91106791  0.38782626  1
  Fe  Fe99  1  0.97944906  0.33564831  0.39198853  1
  Fe  Fe100  1  0.68572312  0.83542353  0.11036610  1
  Fe  Fe101  1  0.86309516  0.08129793  0.10865703  1
  Fe  Fe102  1  0.19380158  0.08155961  0.60542553  1
  Fe  Fe103  1  0.68439132  0.16482279  0.10826313  1
  Fe  Fe104  1  0.18894795  0.92061516  0.10531287  1
  Fe  Fe105  1  0.52315120  0.92486828  0.60634130  1
  Fe  Fe106  1  0.69072561  0.83362704  0.60627635  1
  Fe  Fe107  1  0.80910072  0.08464655  0.39200899  1
  Fe  Fe108  1  0.14851974  0.58469375  0.39369598  1
  Fe  Fe109  1  0.85684224  0.58595255  0.60960831  1
  Fe  Fe110  1  0.80519586  0.58619496  0.89026980  1
  Fe  Fe111  1  0.86574270  0.91640316  0.60656358  1
  Fe  Fe112  1  0.30811240  0.66594190  0.89514620  1
  Si  Si113  1  0.68848841  0.16954640  0.61445420  1
  Si  Si114  1  0.19784495  0.90980617  0.61253948  1
  Si  Si115  1  0.14151941  0.91159728  0.38273937  1
  Si  Si116  1  0.02666498  0.17212527  0.11109016  1
  Si  Si117  1  0.97431390  0.16379250  0.88372239  1
  Si  Si118  1  0.35509095  0.16839231  0.11320970  1
  Si  Si119  1  0.63634274  0.66220035  0.38629682  1
  Si  Si120  1  0.47290571  0.08718811  0.88249363  1
  Si  Si121  1  0.14288305  0.08706924  0.88268016  1
  Si  Si122  1  0.35597295  0.33741140  0.61600328  1
  Si  Si123  1  0.68802465  0.33335706  0.61720605  1
  Si  Si124  1  0.68510026  0.66625886  0.11326263  1
  Si  Si125  1  0.63120303  0.82597075  0.38792142  1
  Si  Si126  1  0.47799808  0.41357514  0.88768214  1
  Si  Si127  1  0.46759372  0.41573974  0.38601546  1
  Si  Si128  1  0.52275089  0.41612654  0.61777929  1
  Si  Si129  1  0.85430854  0.08978166  0.61220978  1
  Si  Si130  1  0.97362673  0.32888456  0.88572033  1
  Si  Si131  1  0.63909115  0.83753194  0.88606390  1
  Si  Si132  1  0.19534521  0.58319409  0.61911976  1
  Si  Si133  1  0.47431683  0.92343601  0.88509644  1
  Si  Si134  1  0.98637887  0.16441493  0.39094021  1
  Si  Si135  1  0.51492522  0.08140149  0.11036125  1
  Si  Si136  1  0.03396105  0.65905493  0.11209493  1
  Si  Si137  1  0.47230006  0.58060931  0.38624452  1
  Si  Si138  1  0.97578536  0.83029483  0.38605334  1
  Si  Si139  1  0.80743586  0.08125757  0.88343560  1
  Si  Si140  1  0.20098262  0.58295882  0.11575219  1
  Si  Si141  1  0.52098838  0.09162707  0.61166821  1
  Si  Si142  1  0.97325737  0.66180382  0.38907652  1
  Si  Si143  1  0.47641435  0.57916051  0.89160121  1
  Si  Si144  1  0.80452522  0.58531622  0.38615439  1
  Si  Si145  1  0.52030901  0.91856992  0.11252373  1
  Si  Si146  1  0.30736340  0.33622298  0.88668577  1
  Si  Si147  1  0.36261420  0.82705754  0.61444208  1
  Si  Si148  1  0.64228706  0.16449428  0.88355141  1
  Si  Si149  1  0.14539366  0.07564286  0.38212762  1
  Si  Si150  1  0.36120678  0.66269299  0.61915624  1
  Si  Si151  1  0.30870354  0.32549614  0.38710328  1
  Si  Si152  1  0.31460383  0.67370439  0.38880149  1
  Si  Si153  1  0.15212936  0.41707430  0.39159539  1
  Si  Si154  1  0.19005386  0.41920899  0.61689425  1
  Si  Si155  1  0.02392453  0.33629042  0.61628398  1
  Si  Si156  1  0.02877200  0.33732920  0.11583623  1
  Si  Si157  1  0.31147948  0.16260950  0.38378742  1
  Si  Si158  1  0.47845687  0.08324515  0.38430316  1
  Si  Si159  1  0.52110135  0.58484379  0.11431276  1
  Si  Si160  1  0.31006986  0.83881788  0.88808208  1
  Si  Si161  1  0.86297672  0.90669297  0.10643043  1
  Si  Si162  1  0.80865650  0.41270494  0.88917135  1
  Si  Si163  1  0.80345277  0.41811763  0.38852518  1
  Si  Si164  1  0.30781060  0.17054549  0.88365213  1
  Si  Si165  1  0.35670295  0.33112660  0.11149666  1
  Si  Si166  1  0.36200584  0.66934634  0.11674929  1
  Si  Si167  1  0.63568160  0.33806125  0.38623615  1
  Si  Si168  1  0.03547613  0.83121400  0.61415968  1
  Si  Si169  1  0.14186471  0.92180545  0.88226119  1
  Si  Si170  1  0.31077546  0.83729114  0.38269686  1
  Si  Si171  1  0.80812005  0.91583635  0.88405088  1
  Si  Si172  1  0.19442780  0.41830544  0.11650189  1
  Si  Si173  1  0.02926544  0.82659591  0.10849332  1
  Si  Si174  1  0.47363937  0.91896850  0.38382340  1
  Si  Si175  1  0.02329937  0.17053574  0.61149282  1
  Si  Si176  1  0.97441605  0.67280828  0.88822455  1
  Si  Si177  1  0.36000976  0.83345865  0.11229204  1
  Si  Si178  1  0.69361646  0.33554464  0.11302885  1
  Si  Si179  1  0.63794215  0.17258913  0.38906803  1
  Si  Si180  1  0.97769525  0.83711656  0.88370596  1
  Si  Si181  1  0.68286939  0.66763776  0.61157662  1
  Si  Si182  1  0.13879736  0.41421162  0.88760929  1
  Si  Si183  1  0.18734464  0.08454265  0.10794000  1
  Si  Si184  1  0.63562821  0.67212918  0.88982736  1
  Si  Si185  1  0.03137447  0.66586982  0.61540321  1
  Si  Si186  1  0.13478297  0.58122885  0.89093971  1
  Si  Si187  1  0.64186106  0.32926563  0.88696032  1
  Si  Si188  1  0.85883001  0.41185590  0.11476036  1
  Si  Si189  1  0.52466558  0.58031018  0.61976164  1
  Si  Si190  1  0.85386212  0.41428952  0.61434226  1
  Si  Si191  1  0.36029889  0.17344475  0.61170297  1
  O  O192  1  0.27244024  0.11951042  0.08356102  1
  O  O193  1  0.28579287  0.12265435  0.57178148  1
  O  O194  1  0.28421469  0.61396003  0.08758274  1
  O  O195  1  0.28071969  0.60926403  0.59182635  1
  O  O196  1  0.58894429  0.10725060  0.07209431  1
  O  O197  1  0.60760718  0.11963578  0.58410224  1
  O  O198  1  0.60771033  0.60693531  0.08805649  1
  O  O199  1  0.60573868  0.60665800  0.58884906  1
  O  O200  1  0.95043318  0.12630086  0.06933941  1
  O  O201  1  0.93348502  0.12928397  0.58527170  1
  O  O202  1  0.95648477  0.60888652  0.07747149  1
  O  O203  1  0.95725778  0.61374335  0.57995756  1
  O  O204  1  0.10706313  0.37567611  0.08554746  1
  O  O205  1  0.10414780  0.37315700  0.58858042  1
  O  O206  1  0.10114082  0.85799068  0.06912266  1
  O  O207  1  0.12660927  0.84688338  0.59043938  1
  O  O208  1  0.43282904  0.35762035  0.07552027  1
  O  O209  1  0.43704323  0.37104615  0.58563615  1
  O  O210  1  0.44568240  0.85825380  0.08465117  1
  O  O211  1  0.44017664  0.85160778  0.57998855  1
  O  O212  1  0.78652163  0.35050925  0.08996305  1
  O  O213  1  0.77115733  0.36151462  0.58840331  1
  O  O214  1  0.77885487  0.86252063  0.07244850  1
  O  O215  1  0.79196456  0.84439988  0.57593703  1
  O  O216  1  0.27073050  0.38020777  0.08529735  1
  O  O217  1  0.27134365  0.38698994  0.58744254  1
  O  O218  1  0.28459716  0.88322674  0.07460504  1
  O  O219  1  0.28138916  0.87846103  0.58562692  1
  O  O220  1  0.62952333  0.40024777  0.08241214  1
  O  O221  1  0.60423549  0.38300612  0.58832724  1
  O  O222  1  0.59774938  0.89993504  0.07501532  1
  O  O223  1  0.61758153  0.90650915  0.57054461  1
  O  O224  1  0.94441653  0.38419236  0.08663316  1
  O  O225  1  0.93758688  0.38091691  0.58786948  1
  O  O226  1  0.94059127  0.86616744  0.07603870  1
  O  O227  1  0.96957748  0.89075013  0.58078230  1
  O  O228  1  0.11474369  0.14726951  0.08549184  1
  O  O229  1  0.09697841  0.13834208  0.57653113  1
  O  O230  1  0.12037543  0.63200408  0.08333130  1
  O  O231  1  0.12012942  0.63967258  0.59069718  1
  O  O232  1  0.43256772  0.13392589  0.08096943  1
  O  O233  1  0.45094026  0.15568987  0.58686443  1
  O  O234  1  0.44746238  0.64620390  0.08912183  1
  O  O235  1  0.44084182  0.62929107  0.58820868  1
  O  O236  1  0.76832750  0.13041341  0.06576479  1
  O  O237  1  0.77317140  0.14418274  0.58706579  1
  O  O238  1  0.76544248  0.63969656  0.08115818  1
  O  O239  1  0.76077431  0.64045527  0.57608420  1
  O  O240  1  0.07205373  0.11384300  0.41604933  1
  O  O241  1  0.06323622  0.12237481  0.91270565  1
  O  O242  1  0.05168231  0.61376319  0.42701632  1
  O  O243  1  0.05393969  0.61831296  0.91683824  1
  O  O244  1  0.39668311  0.11563153  0.41404500  1
  O  O245  1  0.39684997  0.12865051  0.91340896  1
  O  O246  1  0.40166787  0.62657039  0.41703207  1
  O  O247  1  0.39799024  0.60301906  0.92616764  1
  O  O248  1  0.72390328  0.13723932  0.42665863  1
  O  O249  1  0.72949491  0.11924951  0.91289013  1
  O  O250  1  0.72642711  0.62312090  0.41604888  1
  O  O251  1  0.71751583  0.62914034  0.92612615  1
  O  O252  1  0.22842422  0.35672198  0.41686014  1
  O  O253  1  0.22935234  0.37473288  0.91817908  1
  O  O254  1  0.22840343  0.86561228  0.41249959  1
  O  O255  1  0.22869128  0.87876627  0.91294694  1
  O  O256  1  0.55814734  0.37822892  0.41579628  1
  O  O257  1  0.56105821  0.36364933  0.91603376  1
  O  O258  1  0.55019885  0.86484088  0.41523731  1
  O  O259  1  0.56304741  0.88126202  0.91419186  1
  O  O260  1  0.88414467  0.37336901  0.42499062  1
  O  O261  1  0.89498220  0.36345526  0.91566453  1
  O  O262  1  0.90589852  0.86143352  0.42581151  1
  O  O263  1  0.89684635  0.87234763  0.91237368  1
  O  O264  1  0.07114068  0.39663173  0.42496428  1
  O  O265  1  0.06291352  0.37035697  0.91569294  1
  O  O266  1  0.06731534  0.87223962  0.41528478  1
  O  O267  1  0.06122073  0.88754219  0.91095994  1
  O  O268  1  0.39456235  0.37255422  0.41739371  1
  O  O269  1  0.39542961  0.38024115  0.91605576  1
  O  O270  1  0.38906385  0.89147707  0.41236308  1
  O  O271  1  0.39530939  0.88748483  0.91501235  1
  O  O272  1  0.71959582  0.38551322  0.41602426  1
  O  O273  1  0.72933773  0.37231134  0.91659634  1
  O  O274  1  0.71659482  0.86420404  0.42220198  1
  O  O275  1  0.73007986  0.87800340  0.91378357  1
  O  O276  1  0.23340948  0.12108862  0.41087692  1
  O  O277  1  0.22915846  0.13198866  0.91396642  1
  O  O278  1  0.24079926  0.64651286  0.42675527  1
  O  O279  1  0.21808620  0.62184474  0.92804676  1
  O  O280  1  0.55801674  0.13427415  0.41800958  1
  O  O281  1  0.56171585  0.12945841  0.91166765  1
  O  O282  1  0.56573158  0.61285812  0.41608246  1
  O  O283  1  0.55500389  0.63408863  0.91767736  1
  O  O284  1  0.91211468  0.13141688  0.42592941  1
  O  O285  1  0.89566531  0.12554049  0.91177441  1
  O  O286  1  0.88835832  0.63161733  0.41783039  1
  O  O287  1  0.89680667  0.64792195  0.92238994  1
  O  O288  1  0.16446290  0.01202669  0.06388522  1
  O  O289  1  0.17238858  -0.01442662  0.57619905  1
  O  O290  1  0.18627587  0.50051142  0.08620107  1
  O  O291  1  0.17338816  0.50193370  0.58877580  1
  O  O292  1  0.48309136  -0.00081863  0.08678237  1
  O  O293  1  0.48540312  0.01809297  0.57523574  1
  O  O294  1  0.48520270  0.51034205  0.08019286  1
  O  O295  1  0.50473748  0.49824050  0.58902157  1
  O  O296  1  0.85748937  -0.01293723  0.07392553  1
  O  O297  1  0.83352683  0.01208663  0.58033042  1
  O  O298  1  0.83168715  0.48743857  0.07871626  1
  O  O299  1  0.83302870  0.49043456  0.57828811  1
  O  O300  1  0.01687162  0.25723370  0.08282712  1
  O  O301  1  0.00834802  0.25520131  0.58684902  1
  O  O302  1  0.01662823  0.74142906  0.08457281  1
  O  O303  1  0.01190367  0.74844621  0.58789554  1
  O  O304  1  0.33156026  0.24957254  0.08237121  1
  O  O305  1  0.33794660  0.25738342  0.58434239  1
  O  O306  1  0.33694852  0.74931145  0.08693646  1
  O  O307  1  0.33728368  0.74310097  0.58946343  1
  O  O308  1  0.65744883  0.26061182  0.07916869  1
  O  O309  1  0.66602888  0.25223539  0.58738670  1
  O  O310  1  0.65018056  0.74208749  0.08076253  1
  O  O311  1  0.64374077  0.74246323  0.57966341  1
  O  O312  1  0.15857927  -0.00660564  0.41370030  1
  O  O313  1  0.15522445  0.00443833  0.91051479  1
  O  O314  1  0.19117888  0.49336644  0.42161268  1
  O  O315  1  0.13933297  0.49597078  0.91714239  1
  O  O316  1  0.49408501  0.00057545  0.41359233  1
  O  O317  1  0.48228578  0.00572762  0.91455582  1
  O  O318  1  0.46899811  0.49822409  0.41552709  1
  O  O319  1  0.50000428  0.49501903  0.91651180  1
  O  O320  1  0.81758473  -0.00284540  0.43341999  1
  O  O321  1  0.81967017  -0.00098111  0.91309446  1
  O  O322  1  0.81261457  0.50267246  0.41585218  1
  O  O323  1  0.82466968  0.49023570  0.92336901  1
  O  O324  1  0.32492252  0.24404424  0.41887567  1
  O  O325  1  0.31590019  0.25301755  0.91500167  1
  O  O326  1  0.33808412  0.75713588  0.41345598  1
  O  O327  1  0.32384117  0.76202585  0.92505266  1
  O  O328  1  0.63880981  0.25722817  0.41771330  1
  O  O329  1  0.65438443  0.24638814  0.91498877  1
  O  O330  1  0.63190684  0.74189376  0.41808969  1
  O  O331  1  0.64086092  0.75660407  0.91792350  1
  O  O332  1  1.01005712  0.24345111  0.42422379  1
  O  O333  1  0.98534898  0.24598927  0.91376804  1
  O  O334  1  0.99279192  0.74576543  0.41294748  1
  O  O335  1  1.00026399  0.75637512  0.91403634  1
  O  O336  1  0.20242695  0.07111680  0.18559416  1
  O  O337  1  0.21187090  0.08431076  0.69740690  1
  O  O338  1  0.21655689  0.58205902  0.19606526  1
  O  O339  1  0.21090172  0.58095687  0.69961906  1
  O  O340  1  0.53876512  0.08593637  0.19095616  1
  O  O341  1  0.54363399  0.08469778  0.69181529  1
  O  O342  1  0.53950123  0.58305155  0.19576491  1
  O  O343  1  0.53797657  0.58126445  0.69943394  1
  O  O344  1  0.88105437  0.08584538  0.19874762  1
  O  O345  1  0.87560245  0.08736794  0.69379789  1
  O  O346  1  0.87939557  0.58086826  0.20289592  1
  O  O347  1  0.88004459  0.58302542  0.70124181  1
  O  O348  1  0.04767249  0.33606662  0.19579616  1
  O  O349  1  0.04244730  0.33576485  0.69713224  1
  O  O350  1  0.05004977  0.83625507  0.18792327  1
  O  O351  1  0.04762577  0.83235935  0.69565289  1
  O  O352  1  0.37675898  0.33501912  0.19252613  1
  O  O353  1  0.37650520  0.33938399  0.69555769  1
  O  O354  1  0.37708194  0.83193626  0.19325499  1
  O  O355  1  0.37774845  0.83067549  0.69583389  1
  O  O356  1  0.70968723  0.33482041  0.19509687  1
  O  O357  1  0.70783024  0.33296651  0.69765171  1
  O  O358  1  0.70915310  0.83152965  0.20041983  1
  O  O359  1  0.70915463  0.83422872  0.69984893  1
  O  O360  1  0.21157831  0.41873759  0.19690204  1
  O  O361  1  0.20866171  0.41855084  0.69747800  1
  O  O362  1  0.21192447  0.91329157  0.19641962  1
  O  O363  1  0.21382822  0.91539861  0.69404061  1
  O  O364  1  0.54330914  0.41717191  0.20107787  1
  O  O365  1  0.54111411  0.41528500  0.69790612  1
  O  O366  1  0.53969289  0.91597280  0.19252842  1
  O  O367  1  0.54241495  0.91970178  0.69941324  1
  O  O368  1  0.87721623  0.41632584  0.19564473  1
  O  O369  1  0.87461198  0.41483264  0.69565251  1
  O  O370  1  0.88185221  0.90589350  0.18649306  1
  O  O371  1  0.88012364  0.91781612  0.69960350  1
  O  O372  1  0.03276760  0.17013357  0.19038436  1
  O  O373  1  0.04262601  0.16885468  0.69302001  1
  O  O374  1  0.05154222  0.65532543  0.19182901  1
  O  O375  1  0.04688386  0.66529519  0.69695712  1
  O  O376  1  0.38052217  0.17422554  0.19211974  1
  O  O377  1  0.37174610  0.16820255  0.69086880  1
  O  O378  1  0.37748994  0.66626499  0.19731394  1
  O  O379  1  0.37985970  0.66400706  0.69953218  1
  O  O380  1  0.70879024  0.16852490  0.20000412  1
  O  O381  1  0.70839291  0.16852730  0.69514429  1
  O  O382  1  0.70513430  0.66503468  0.19492640  1
  O  O383  1  0.70755664  0.67004654  0.69214185  1
  O  O384  1  0.12235287  0.07401893  0.30323956  1
  O  O385  1  0.12293264  0.08737280  0.80251017  1
  O  O386  1  0.12598292  0.58318725  0.30199775  1
  O  O387  1  0.12242828  0.58215155  0.80969452  1
  O  O388  1  0.46638093  0.08344431  0.30516134  1
  O  O389  1  0.45310321  0.08326658  0.80305310  1
  O  O390  1  0.45595541  0.58158325  0.30589948  1
  O  O391  1  0.45694149  0.58120629  0.81041910  1
  O  O392  1  0.78616822  0.08578065  0.30245487  1
  O  O393  1  0.79046902  0.08321535  0.80309406  1
  O  O394  1  0.78606400  0.58304300  0.30614224  1
  O  O395  1  0.78706931  0.58342304  0.80003856  1
  O  O396  1  0.29337606  0.33239087  0.30690001  1
  O  O397  1  0.28566247  0.33917980  0.80736803  1
  O  O398  1  0.29330695  0.83263845  0.30284755  1
  O  O399  1  0.29195219  0.83542782  0.80692037  1
  O  O400  1  0.62125070  0.33552210  0.30617680  1
  O  O401  1  0.62345383  0.33212037  0.80663687  1
  O  O402  1  0.61400862  0.82273124  0.30861486  1
  O  O403  1  0.62183012  0.83543378  0.80604502  1
  O  O404  1  0.95558156  0.33364328  0.30046059  1
  O  O405  1  0.95641404  0.33173601  0.80522368  1
  O  O406  1  0.95364167  0.83714722  0.30667636  1
  O  O407  1  0.95939742  0.83497077  0.80352648  1
  O  O408  1  0.13021830  0.41657558  0.30982636  1
  O  O409  1  0.12188820  0.41468634  0.80715467  1
  O  O410  1  0.12200227  0.91161522  0.30296089  1
  O  O411  1  0.12466597  0.91951122  0.80174193  1
  O  O412  1  0.45219720  0.41614618  0.30594300  1
  O  O413  1  0.45707869  0.41469189  0.80736055  1
  O  O414  1  0.45681615  0.91675073  0.30377724  1
  O  O415  1  0.45538793  0.91979572  0.80480974  1
  O  O416  1  0.78828302  0.41705230  0.30759482  1
  O  O417  1  0.79064933  0.41328085  0.80812411  1
  O  O418  1  0.79103875  0.91661759  0.29922756  1
  O  O419  1  0.78970386  0.91825513  0.80417801  1
  O  O420  1  0.29714295  0.17357841  0.30627434  1
  O  O421  1  0.28760895  0.16829114  0.80440321  1
  O  O422  1  0.29483539  0.66683295  0.30806528  1
  O  O423  1  0.28900019  0.66643393  0.80311458  1
  O  O424  1  0.62039035  0.17191782  0.30864709  1
  O  O425  1  0.62837347  0.16657043  0.80419598  1
  O  O426  1  0.61969823  0.66234812  0.30608677  1
  O  O427  1  0.62075505  0.67233553  0.80953835  1
  O  O428  1  0.96346532  0.16594727  0.30991655  1
  O  O429  1  0.95648028  0.16641323  0.80323139  1
  O  O430  1  0.95434747  0.65632880  0.30959798  1
  O  O431  1  0.95941054  0.67015401  0.80736996  1
  F  F432  1  0.04374164  -0.00266459  0.19846273  1
  F  F433  1  0.04684634  0.00199354  0.70077818  1
  F  F434  1  0.04782040  0.49512493  0.20463458  1
  F  F435  1  0.04649452  0.49973864  0.70600846  1
  F  F436  1  0.38433733  -0.00889412  0.19773267  1
  F  F437  1  0.37706578  0.00082983  0.70073603  1
  F  F438  1  0.37743255  0.49999672  0.20311182  1
  F  F439  1  0.37829195  0.50014218  0.70736824  1
  F  F440  1  0.70646624  0.00571381  0.19026199  1
  F  F441  1  0.71179437  0.00313294  0.70208622  1
  F  F442  1  0.71244783  0.49982910  0.20483278  1
  F  F443  1  0.71155673  0.48915651  0.69960428  1
  F  F444  1  0.21728172  0.26366941  0.19703734  1
  F  F445  1  0.20403892  0.25464267  0.69896611  1
  F  F446  1  0.21564288  0.74547812  0.20035556  1
  F  F447  1  0.21365216  0.74990923  0.70462998  1
  F  F448  1  0.54580133  0.25117962  0.20282901  1
  F  F449  1  0.54697323  0.25643004  0.69964844  1
  F  F450  1  0.54311070  0.74755358  0.20235278  1
  F  F451  1  0.54270838  0.74856966  0.70479405  1
  F  F452  1  0.87751412  0.24874080  0.20433884  1
  F  F453  1  0.87767716  0.25121770  0.70280579  1
  F  F454  1  0.86526760  0.74725175  0.19998450  1
  F  F455  1  0.88077130  0.74852042  0.70315369  1
  F  F456  1  0.28367885  -0.01043032  0.30232986  1
  F  F457  1  0.28889563  -0.00020217  0.79764780  1
  F  F458  1  0.29200751  0.49907975  0.29972240  1
  F  F459  1  0.28750608  0.49836454  0.80267193  1
  F  F460  1  0.61940288  0.00441266  0.29575852  1
  F  F461  1  0.62210756  0.00330676  0.79837078  1
  F  F462  1  0.62061627  0.50151445  0.29993143  1
  F  F463  1  0.61921103  0.49312000  0.80380813  1
  F  F464  1  0.96320606  -0.00340555  0.29868444  1
  F  F465  1  0.95739815  0.00422297  0.79705501  1
  F  F466  1  0.95668919  0.49586435  0.30174500  1
  F  F467  1  0.95511196  0.49662211  0.80096221  1
  F  F468  1  0.11916776  0.25735041  0.30094809  1
  F  F469  1  0.11969780  0.25013705  0.79837212  1
  F  F470  1  0.13600499  0.74995121  0.29999351  1
  F  F471  1  0.12285259  0.75162170  0.79942894  1
  F  F472  1  0.45522370  0.25327516  0.29739011  1
  F  F473  1  0.45531013  0.25266340  0.80124886  1
  F  F474  1  0.45351248  0.74892218  0.29780608  1
  F  F475  1  0.45540835  0.75184982  0.80065102  1
  F  F476  1  0.78786605  0.25352047  0.30112616  1
  F  F477  1  0.78804750  0.24931615  0.79813297  1
  F  F478  1  0.78609902  0.74354382  0.30235624  1
  F  F479  1  0.78972239  0.75047579  0.79782978  1
