# generated using pymatgen
data_K24Na3Li5Mg64Fe17Si79(O5F)48
_symmetry_space_group_name_H-M   'P 1'
_cell_length_a   16.08204795
_cell_length_b   18.58875341
_cell_length_c   20.55015943
_cell_angle_alpha   89.99743658
_cell_angle_beta   100.02852299
_cell_angle_gamma   90.01817531
_symmetry_Int_Tables_number   1
_chemical_formula_structural   K24Na3Li5Mg64Fe17Si79(O5F)48
_chemical_formula_sum   'K24 Na3 Li5 Mg64 Fe17 Si79 O240 F48'
_cell_volume   6049.50826261
_cell_formula_units_Z   1
loop_
 _symmetry_equiv_pos_site_id
 _symmetry_equiv_pos_as_xyz
  1  'x, y, z'
loop_
 _atom_site_type_symbol
 _atom_site_label
 _atom_site_symmetry_multiplicity
 _atom_site_fract_x
 _atom_site_fract_y
 _atom_site_fract_z
 _atom_site_occupancy
  K  K0  1  -0.00266860  0.00875801  0.01002581  1
  K  K1  1  0.00779086  0.01145928  0.49862520  1
  K  K2  1  0.00482713  0.49874334  -0.00105638  1
  K  K3  1  -0.00610878  0.50558107  0.49743576  1
  K  K4  1  0.32461757  0.00155837  -0.00027020  1
  K  K5  1  0.32682315  0.00123477  0.50252194  1
  K  K6  1  0.33811623  0.50907917  0.00116737  1
  K  K7  1  0.34072149  0.49794744  0.49897283  1
  K  K8  1  0.67046711  0.00682113  0.00487757  1
  K  K9  1  0.66402991  0.00181587  0.49771797  1
  K  K10  1  0.66450633  0.50180214  0.00061071  1
  K  K11  1  0.66654961  0.49338669  0.50438713  1
  K  K12  1  0.17843620  0.24924156  -0.00045202  1
  K  K13  1  0.17012679  0.25065670  0.50312515  1
  K  K14  1  0.17176440  0.74070840  0.00402994  1
  K  K15  1  0.16646586  0.74531725  0.50006737  1
  K  K16  1  0.50171144  0.24974070  0.00630394  1
  K  K17  1  0.49776614  0.26300443  0.50347217  1
  K  K18  1  0.50661503  0.73826078  0.00354276  1
  K  K19  1  0.49651233  0.74465528  0.49671036  1
  K  K20  1  0.83396425  0.24620799  0.00198251  1
  K  K21  1  0.82865071  0.25565258  0.49693331  1
  K  K22  1  0.82928341  0.74947965  0.00601179  1
  K  K23  1  0.83084889  0.74374420  0.49270215  1
  Na  Na24  1  0.66178388  0.24744911  0.24663604  1
  Na  Na25  1  0.16584374  0.32943832  0.75043381  1
  Na  Na26  1  0.50160296  0.17060300  0.24931577  1
  Li  Li27  1  0.65847363  0.74364812  0.24400819  1
  Li  Li28  1  0.82745191  0.49866376  0.74525442  1
  Li  Li29  1  0.50666725  0.66503692  0.24965651  1
  Li  Li30  1  0.67210270  0.57789231  0.74684103  1
  Li  Li31  1  -0.00183698  0.91659687  0.24479301  1
  Mg  Mg32  1  0.66664532  0.74748178  0.74850836  1
  Mg  Mg33  1  0.49982242  0.50390588  0.25227660  1
  Mg  Mg34  1  -0.00244384  0.25003660  0.74803606  1
  Mg  Mg35  1  0.16436457  -0.00116296  0.24685040  1
  Mg  Mg36  1  0.33748571  0.75000861  0.25099285  1
  Mg  Mg37  1  0.66751465  0.25093860  0.75143788  1
  Mg  Mg38  1  0.16709911  0.00155827  0.75067839  1
  Mg  Mg39  1  0.50256469  0.00083694  0.25080681  1
  Mg  Mg40  1  -0.00078525  0.75081943  0.24560319  1
  Mg  Mg41  1  0.00048253  0.74666960  0.75004964  1
  Mg  Mg42  1  0.50659571  0.50261702  0.75074254  1
  Mg  Mg43  1  0.82921729  0.50109747  0.24973310  1
  Mg  Mg44  1  0.33396698  0.74708745  0.74956602  1
  Mg  Mg45  1  0.16711877  0.50172430  0.25153204  1
  Mg  Mg46  1  0.33261863  0.25049071  0.25396586  1
  Mg  Mg47  1  -0.00137097  0.25121639  0.25086112  1
  Mg  Mg48  1  0.83935223  -0.00071297  0.24765325  1
  Mg  Mg49  1  0.16617025  0.49682662  0.75037477  1
  Mg  Mg50  1  0.49976392  -0.00007868  0.75008331  1
  Mg  Mg51  1  0.83232816  -0.00234967  0.75029654  1
  Mg  Mg52  1  0.33310617  0.25070802  0.75271275  1
  Mg  Mg53  1  0.66823131  0.91324909  0.24697582  1
  Mg  Mg54  1  0.83245801  0.83097335  0.74826700  1
  Mg  Mg55  1  -0.00131451  0.41713248  0.25462203  1
  Mg  Mg56  1  0.33401576  0.41640135  0.25605127  1
  Mg  Mg57  1  0.83230040  0.33731436  0.74797587  1
  Mg  Mg58  1  0.33198436  0.08637852  0.75279006  1
  Mg  Mg59  1  0.16634070  0.66723997  0.24806618  1
  Mg  Mg60  1  0.16831853  0.66286969  0.75107306  1
  Mg  Mg61  1  0.16301001  0.83443053  0.24551697  1
  Mg  Mg62  1  0.66223113  0.58880189  0.25079411  1
  Mg  Mg63  1  0.33311504  0.91548089  0.74898971  1
  Mg  Mg64  1  0.00014504  0.08214669  0.24784923  1
  Mg  Mg65  1  0.66416989  0.08434913  0.74930117  1
  Mg  Mg66  1  0.66347413  0.91487798  0.74693454  1
  Mg  Mg67  1  -0.00118311  0.08395044  0.74912508  1
  Mg  Mg68  1  0.82962581  0.16486577  0.74884159  1
  Mg  Mg69  1  0.66962301  0.08205177  0.24931913  1
  Mg  Mg70  1  0.33476717  0.41717395  0.75348149  1
  Mg  Mg71  1  0.33833747  0.58676602  0.24994990  1
  Mg  Mg72  1  0.50414961  0.33604903  0.75296928  1
  Mg  Mg73  1  0.83016221  0.66128405  0.74812002  1
  Mg  Mg74  1  0.33352873  0.91651344  0.24839423  1
  Mg  Mg75  1  0.50121535  0.16661901  0.75217339  1
  Mg  Mg76  1  0.50209127  0.66500449  0.74948480  1
  Mg  Mg77  1  -0.00427890  0.41693771  0.74981777  1
  Mg  Mg78  1  0.33338784  0.08397168  0.25188208  1
  Mg  Mg79  1  0.83197077  0.33295648  0.25366946  1
  Mg  Mg80  1  0.66256794  0.41663878  0.25050345  1
  Mg  Mg81  1  0.82763133  0.66810027  0.24688820  1
  Mg  Mg82  1  0.33495071  0.58519077  0.75146164  1
  Mg  Mg83  1  0.16702362  0.33564630  0.25486658  1
  Mg  Mg84  1  0.83216328  0.83310741  0.24478691  1
  Mg  Mg85  1  0.16710688  0.16525590  0.24999640  1
  Mg  Mg86  1  0.49850059  0.83410788  0.74623925  1
  Mg  Mg87  1  0.00094557  0.91429869  0.75028137  1
  Mg  Mg88  1  0.16898122  0.83312973  0.75196219  1
  Mg  Mg89  1  0.50358374  0.83015832  0.24972087  1
  Mg  Mg90  1  0.83449191  0.16538634  0.25018616  1
  Mg  Mg91  1  -0.00412850  0.58009998  0.74970323  1
  Mg  Mg92  1  0.67233595  0.41881099  0.74925391  1
  Mg  Mg93  1  0.49706736  0.33446746  0.25065884  1
  Mg  Mg94  1  -0.00253451  0.58556045  0.24638809  1
  Mg  Mg95  1  0.16711647  0.16604663  0.74982719  1
  Fe  Fe96  1  0.19301536  0.08456614  0.11069429  1
  Fe  Fe97  1  0.85986942  0.08834509  0.10875361  1
  Fe  Fe98  1  0.02577846  0.66100675  0.10799686  1
  Fe  Fe99  1  0.48052015  0.58582330  0.39177402  1
  Fe  Fe100  1  0.30513111  0.33113292  0.39428501  1
  Fe  Fe101  1  0.85980713  0.42420844  0.60827063  1
  Fe  Fe102  1  0.69465656  0.66815097  0.10690362  1
  Fe  Fe103  1  0.35609490  0.66259483  0.60944733  1
  Fe  Fe104  1  0.02285842  0.33313377  0.60973695  1
  Fe  Fe105  1  0.52717025  0.58174398  0.10906978  1
  Fe  Fe106  1  0.69350564  0.32759542  0.60910865  1
  Fe  Fe107  1  0.19214691  0.08884565  0.61081535  1
  Fe  Fe108  1  0.52070460  0.91755184  0.60735062  1
  Fe  Fe109  1  0.97209985  0.33581061  0.39183509  1
  Fe  Fe110  1  0.64094776  0.16740144  0.89071999  1
  Fe  Fe111  1  0.30713246  0.16731417  0.89405379  1
  Fe  Fe112  1  0.30817605  0.66691289  0.89228031  1
  Si  Si113  1  0.79781759  0.41736348  0.38796797  1
  Si  Si114  1  0.97291445  0.33182698  0.88718424  1
  Si  Si115  1  0.31442848  0.33941131  0.89096403  1
  Si  Si116  1  0.51973475  0.41386318  0.11366225  1
  Si  Si117  1  0.47910747  0.91545061  0.88475352  1
  Si  Si118  1  0.64609595  0.67258553  0.38843811  1
  Si  Si119  1  0.02958584  0.17699898  0.11114215  1
  Si  Si120  1  0.14040716  0.91212651  0.38166137  1
  Si  Si121  1  0.35128620  0.83095913  0.61104438  1
  Si  Si122  1  0.97647055  0.82945113  0.88488042  1
  Si  Si123  1  0.47806825  0.91538835  0.38498543  1
  Si  Si124  1  0.47275805  0.07940101  0.88975230  1
  Si  Si125  1  0.85682423  0.07437120  0.61429390  1
  Si  Si126  1  0.47791530  0.41559065  0.39078727  1
  Si  Si127  1  0.97313876  0.83088442  0.38111837  1
  Si  Si128  1  0.86012636  0.57753427  0.11085337  1
  Si  Si129  1  0.69121848  0.16640116  0.11219527  1
  Si  Si130  1  0.85576197  0.59218105  0.61080316  1
  Si  Si131  1  0.02976669  0.83066857  0.61564545  1
  Si  Si132  1  0.97120180  0.66473245  0.88454558  1
  Si  Si133  1  0.64555113  0.16204867  0.38642640  1
  Si  Si134  1  0.14099258  0.58951115  0.38436475  1
  Si  Si135  1  0.02624554  0.66524122  0.61470844  1
  Si  Si136  1  0.13896516  0.41592660  0.88640440  1
  Si  Si137  1  0.69031260  0.15726042  0.61124740  1
  Si  Si138  1  0.18727320  0.57579581  0.61242037  1
  Si  Si139  1  0.30916061  0.83579656  0.38343369  1
  Si  Si140  1  0.02251524  0.82997766  0.10957874  1
  Si  Si141  1  0.64479076  0.66745868  0.88370175  1
  Si  Si142  1  0.52779734  0.08283425  0.11555717  1
  Si  Si143  1  0.85156258  0.41526803  0.11607025  1
  Si  Si144  1  0.97104193  0.66586094  0.38306582  1
  Si  Si145  1  0.02355358  0.34218879  0.11673576  1
  Si  Si146  1  0.80605099  0.58387717  0.38576259  1
  Si  Si147  1  0.20046572  0.58293819  0.11262034  1
  Si  Si148  1  0.69305163  0.83367297  0.61121534  1
  Si  Si149  1  0.64730772  0.33732209  0.89056446  1
  Si  Si150  1  0.52338744  0.91963953  0.11314114  1
  Si  Si151  1  0.68900109  0.33371995  0.11713448  1
  Si  Si152  1  0.52803466  0.41982525  0.61487978  1
  Si  Si153  1  0.80778408  0.58386453  0.88283738  1
  Si  Si154  1  0.64413467  0.83157455  0.88448424  1
  Si  Si155  1  0.36495603  0.17383280  0.61499520  1
  Si  Si156  1  0.53098638  0.58581912  0.61447662  1
  Si  Si157  1  0.36166297  0.67178722  0.11485408  1
  Si  Si158  1  0.81069851  0.41974510  0.88707742  1
  Si  Si159  1  0.13575262  0.57982084  0.88851767  1
  Si  Si160  1  0.86191947  0.90930922  0.61466531  1
  Si  Si161  1  0.19403997  0.41708370  0.11638505  1
  Si  Si162  1  0.81141725  0.08272412  0.38682511  1
  Si  Si163  1  0.19534456  0.41417501  0.61619969  1
  Si  Si164  1  0.81094012  0.91266621  0.88386881  1
  Si  Si165  1  0.96620112  0.16625008  0.88420913  1
  Si  Si166  1  0.68982035  0.83850653  0.10951831  1
  Si  Si167  1  0.64530760  0.83664777  0.38367153  1
  Si  Si168  1  0.97991421  0.16468572  0.38786953  1
  Si  Si169  1  0.35785221  0.83609985  0.11409242  1
  Si  Si170  1  0.30995681  0.83909492  0.88835639  1
  Si  Si171  1  0.36204460  0.33973972  0.61851186  1
  Si  Si172  1  0.35693299  0.32950020  0.11722199  1
  Si  Si173  1  0.14125093  0.07700112  0.38468166  1
  Si  Si174  1  0.13918610  0.91783274  0.88581062  1
  Si  Si175  1  0.36079530  0.16488183  0.11581687  1
  Si  Si176  1  0.69321276  0.67079157  0.61438436  1
  Si  Si177  1  0.85795290  0.91742748  0.10983058  1
  Si  Si178  1  0.13851387  0.42533827  0.39125329  1
  Si  Si179  1  0.19013682  0.91792769  0.61380558  1
  Si  Si180  1  0.63512545  0.33009752  0.38401837  1
  Si  Si181  1  0.13121424  0.08360157  0.88757950  1
  Si  Si182  1  0.52081520  0.08516487  0.61339720  1
  Si  Si183  1  0.47813748  0.07940828  0.38719536  1
  Si  Si184  1  0.80640312  0.07722268  0.88553474  1
  Si  Si185  1  0.48043972  0.41924125  0.88784979  1
  Si  Si186  1  0.30593987  0.67003927  0.38647291  1
  Si  Si187  1  0.81129305  0.91782615  0.38378190  1
  Si  Si188  1  0.48176746  0.58362875  0.88833446  1
  Si  Si189  1  0.01475400  0.16522340  0.61047660  1
  Si  Si190  1  0.18784247  0.91428121  0.11019613  1
  Si  Si191  1  0.31070048  0.15943387  0.39116105  1
  O  O192  1  0.28908351  0.11242304  0.07620389  1
  O  O193  1  0.28852846  0.12331339  0.57871633  1
  O  O194  1  0.28222858  0.61719034  0.08543163  1
  O  O195  1  0.26429830  0.60121040  0.57682530  1
  O  O196  1  0.60647672  0.11651958  0.08379695  1
  O  O197  1  0.61032127  0.10179946  0.58716541  1
  O  O198  1  0.61064676  0.60907690  0.06320124  1
  O  O199  1  0.61800155  0.61311432  0.58768737  1
  O  O200  1  0.95031618  0.12926997  0.07472997  1
  O  O201  1  0.93850676  0.10368872  0.58543915  1
  O  O202  1  0.94786634  0.58682405  0.08237510  1
  O  O203  1  0.93874745  0.62539738  0.58144367  1
  O  O204  1  0.10154493  0.38012825  0.08604742  1
  O  O205  1  0.13006180  0.35183871  0.58661245  1
  O  O206  1  0.10808667  0.85994994  0.08245176  1
  O  O207  1  0.11069792  0.86167095  0.58635300  1
  O  O208  1  0.43712672  0.36097180  0.08669688  1
  O  O209  1  0.44159796  0.37233202  0.58817448  1
  O  O210  1  0.43863130  0.87064426  0.08424256  1
  O  O211  1  0.43200232  0.85347939  0.57740368  1
  O  O212  1  0.77161068  0.36224355  0.08491623  1
  O  O213  1  0.77913376  0.35925083  0.56818792  1
  O  O214  1  0.77191063  0.87062240  0.07921229  1
  O  O215  1  0.78372209  0.85507120  0.58609308  1
  O  O216  1  0.26807575  0.37290855  0.08673311  1
  O  O217  1  0.28418434  0.39374169  0.58905058  1
  O  O218  1  0.27349593  0.88374151  0.08376622  1
  O  O219  1  0.27424638  0.88994896  0.58631046  1
  O  O220  1  0.60352724  0.37967361  0.08632745  1
  O  O221  1  0.59923578  0.38662641  0.57763263  1
  O  O222  1  0.60602518  0.89168199  0.08323423  1
  O  O223  1  0.62262557  0.89054116  0.57771070  1
  O  O224  1  0.93697183  0.38820563  0.08789748  1
  O  O225  1  0.95612536  0.40743993  0.57285455  1
  O  O226  1  0.94097009  0.88295091  0.08267744  1
  O  O227  1  0.94533723  0.87905884  0.58640928  1
  O  O228  1  0.11265458  0.15567563  0.08027444  1
  O  O229  1  0.09432124  0.14084909  0.57625516  1
  O  O230  1  0.12022599  0.62712209  0.07435521  1
  O  O231  1  0.10379728  0.62820404  0.58463110  1
  O  O232  1  0.44959227  0.13871158  0.09219770  1
  O  O233  1  0.45362794  0.15113082  0.58899722  1
  O  O234  1  0.43867414  0.64740117  0.07974466  1
  O  O235  1  0.45560443  0.63754426  0.57810904  1
  O  O236  1  0.76393525  0.14245873  0.07134584  1
  O  O237  1  0.77091426  0.11823865  0.58368243  1
  O  O238  1  0.79314141  0.63631630  0.07567624  1
  O  O239  1  0.77915600  0.65118735  0.58493900  1
  O  O240  1  0.06367191  0.11338346  0.41526575  1
  O  O241  1  0.04754289  0.11626793  0.91427683  1
  O  O242  1  0.05899159  0.62284271  0.41307530  1
  O  O243  1  0.05260915  0.61531878  0.91450699  1
  O  O244  1  0.39836602  0.11264299  0.41807524  1
  O  O245  1  0.38850329  0.09533676  0.92094943  1
  O  O246  1  0.38257550  0.62149886  0.42307162  1
  O  O247  1  0.40672017  0.61389119  0.92372945  1
  O  O248  1  0.73423660  0.11887808  0.42003819  1
  O  O249  1  0.72788869  0.09990133  0.91953676  1
  O  O250  1  0.73606646  0.62897421  0.41821071  1
  O  O251  1  0.72891840  0.61978966  0.91357299  1
  O  O252  1  0.21381957  0.37316722  0.42644854  1
  O  O253  1  0.23089035  0.37807912  0.91526047  1
  O  O254  1  0.23055195  0.87258227  0.41397439  1
  O  O255  1  0.23140468  0.88240998  0.91486504  1
  O  O256  1  0.55368930  0.35524486  0.41605725  1
  O  O257  1  0.56401027  0.37088974  0.91830359  1
  O  O258  1  0.56466780  0.87018912  0.41498817  1
  O  O259  1  0.56244546  0.86472414  0.91281021  1
  O  O260  1  0.87569701  0.36855363  0.42258875  1
  O  O261  1  0.89820982  0.37403845  0.91886785  1
  O  O262  1  0.89802480  0.87192370  0.41341182  1
  O  O263  1  0.89505271  0.86380155  0.91278259  1
  O  O264  1  0.05244435  0.40781904  0.41904830  1
  O  O265  1  0.06488733  0.37016484  0.91673221  1
  O  O266  1  0.06432708  0.87002837  0.41137824  1
  O  O267  1  0.06354429  0.87362974  0.91406526  1
  O  O268  1  0.39908604  0.38874549  0.42502706  1
  O  O269  1  0.39810655  0.39137502  0.91889413  1
  O  O270  1  0.39661706  0.88028806  0.41306636  1
  O  O271  1  0.39665611  0.88672522  0.91465366  1
  O  O272  1  0.71365289  0.38428998  0.41372136  1
  O  O273  1  0.72996446  0.38948762  0.91908643  1
  O  O274  1  0.73085769  0.88458735  0.41410830  1
  O  O275  1  0.72972311  0.87977822  0.91332426  1
  O  O276  1  0.23253654  0.11350700  0.41583964  1
  O  O277  1  0.21059030  0.12970204  0.92337829  1
  O  O278  1  0.21795092  0.64509967  0.41240897  1
  O  O279  1  0.21769342  0.62318546  0.92539411  1
  O  O280  1  0.56597547  0.12436963  0.41690576  1
  O  O281  1  0.54637333  0.13417061  0.92370404  1
  O  O282  1  0.57312991  0.64516272  0.42768502  1
  O  O283  1  0.56662161  0.63279556  0.91467267  1
  O  O284  1  0.89982941  0.12507720  0.41590997  1
  O  O285  1  0.88702224  0.13033173  0.91352819  1
  O  O286  1  0.89712555  0.62468645  0.41511721  1
  O  O287  1  0.89076390  0.63383928  0.91491671  1
  O  O288  1  0.16403137  -0.00851268  0.07593356  1
  O  O289  1  0.16411042  -0.00581273  0.57894377  1
  O  O290  1  0.19259922  0.49842593  0.08557830  1
  O  O291  1  0.16122659  0.49383717  0.58570592  1
  O  O292  1  0.50371615  0.00189834  0.08298741  1
  O  O293  1  0.48434070  0.01084481  0.57828118  1
  O  O294  1  0.49553055  0.48845691  0.07520716  1
  O  O295  1  0.50985198  0.50289522  0.58745729  1
  O  O296  1  0.84318339  -0.00493470  0.07358494  1
  O  O297  1  0.84101300  -0.00917975  0.58589698  1
  O  O298  1  0.82507634  0.49517609  0.08648475  1
  O  O299  1  0.82734499  0.51796334  0.57431867  1
  O  O300  1  0.00706827  0.26160379  0.08630503  1
  O  O301  1  -0.02268351  0.24139192  0.58146504  1
  O  O302  1  -0.00168208  0.75352072  0.07275841  1
  O  O303  1  0.01510616  0.74878697  0.58631572  1
  O  O304  1  0.34196404  0.24785808  0.08726880  1
  O  O305  1  0.34487420  0.25768435  0.58922894  1
  O  O306  1  0.33639883  0.75460171  0.08601885  1
  O  O307  1  0.31465834  0.75426550  0.58131065  1
  O  O308  1  0.66713743  0.25109264  0.09122655  1
  O  O309  1  0.66812983  0.23270254  0.57467894  1
  O  O310  1  0.66777120  0.76238719  0.07321185  1
  O  O311  1  0.66668918  0.75194516  0.58370434  1
  O  O312  1  0.14626794  -0.00623082  0.41317697  1
  O  O313  1  0.13893403  -0.00074172  0.91521608  1
  O  O314  1  0.16451226  0.50990574  0.41529283  1
  O  O315  1  0.14081053  0.49706929  0.91929986  1
  O  O316  1  0.49361878  -0.00342470  0.41734513  1
  O  O317  1  0.50420707  -0.00411890  0.91330069  1
  O  O318  1  0.51054934  0.49235099  0.42328588  1
  O  O319  1  0.50346891  0.50091047  0.91559536  1
  O  O320  1  0.82472777  -0.00059707  0.41570991  1
  O  O321  1  0.83379490  -0.00590152  0.91123878  1
  O  O322  1  0.81030415  0.50165555  0.41532871  1
  O  O323  1  0.82651116  0.50282275  0.91541613  1
  O  O324  1  0.32002331  0.23588331  0.42870279  1
  O  O325  1  0.32924833  0.26231729  0.92846736  1
  O  O326  1  0.32068838  0.75428806  0.41350276  1
  O  O327  1  0.32022587  0.76237866  0.92511041  1
  O  O328  1  0.65678856  0.24664610  0.41140120  1
  O  O329  1  0.66929062  0.25999704  0.92566072  1
  O  O330  1  0.66712671  0.75689824  0.41528974  1
  O  O331  1  0.66153528  0.75012904  0.91466397  1
  O  O332  1  0.99900198  0.24145653  0.42360013  1
  O  O333  1  0.97835978  0.24815688  0.91554101  1
  O  O334  1  0.97957824  0.74859221  0.41358633  1
  O  O335  1  0.98973881  0.74730870  0.91324971  1
  O  O336  1  0.21181138  0.08249377  0.20241049  1
  O  O337  1  0.21062360  0.08144576  0.70217480  1
  O  O338  1  0.21119339  0.58401020  0.19356989  1
  O  O339  1  0.20682320  0.58150822  0.69345835  1
  O  O340  1  0.55042710  0.07460715  0.19441413  1
  O  O341  1  0.54027419  0.08172251  0.69461668  1
  O  O342  1  0.54560594  0.58020281  0.19896698  1
  O  O343  1  0.54270730  0.58545268  0.69463246  1
  O  O344  1  0.88037134  0.08447946  0.20039934  1
  O  O345  1  0.87458494  0.07744324  0.69502692  1
  O  O346  1  0.87515868  0.58133974  0.19255991  1
  O  O347  1  0.87979425  0.59099232  0.69077751  1
  O  O348  1  0.04502021  0.33912527  0.19693655  1
  O  O349  1  0.03218259  0.33287153  0.69986111  1
  O  O350  1  0.04379790  0.82857793  0.18989127  1
  O  O351  1  0.04438702  0.83179094  0.69618442  1
  O  O352  1  0.37208598  0.33465561  0.19702908  1
  O  O353  1  0.37979456  0.33640135  0.69902551  1
  O  O354  1  0.37673894  0.83669701  0.19448585  1
  O  O355  1  0.37300046  0.83317185  0.69313378  1
  O  O356  1  0.71382676  0.34146738  0.19594920  1
  O  O357  1  0.71102222  0.33059932  0.70154593  1
  O  O358  1  0.71141349  0.83879817  0.18964671  1
  O  O359  1  0.71087824  0.83407199  0.69252954  1
  O  O360  1  0.20826784  0.41810856  0.19653936  1
  O  O361  1  0.21734230  0.42249793  0.69603076  1
  O  O362  1  0.20874964  0.91549182  0.19134427  1
  O  O363  1  0.20711939  0.91591628  0.69517247  1
  O  O364  1  0.53898691  0.41822311  0.19434579  1
  O  O365  1  0.54543370  0.41730511  0.69593149  1
  O  O366  1  0.54185281  0.91715548  0.19348459  1
  O  O367  1  0.54351051  0.91673519  0.69946515  1
  O  O368  1  0.87324754  0.41695725  0.19633368  1
  O  O369  1  0.87714905  0.41720584  0.69928891  1
  O  O370  1  0.87279624  0.91675071  0.19016494  1
  O  O371  1  0.87882059  0.91234270  0.69528718  1
  O  O372  1  0.04391679  0.17105578  0.19272261  1
  O  O373  1  0.03758336  0.16261265  0.69220637  1
  O  O374  1  0.04552911  0.66649433  0.19972046  1
  O  O375  1  0.04411822  0.66583951  0.69537937  1
  O  O376  1  0.36523010  0.16606852  0.19518333  1
  O  O377  1  0.38068149  0.16840354  0.69585505  1
  O  O378  1  0.37193843  0.67097116  0.19454364  1
  O  O379  1  0.37999084  0.66563526  0.70113445  1
  O  O380  1  0.71632589  0.15706464  0.19138315  1
  O  O381  1  0.71111385  0.16141059  0.69224506  1
  O  O382  1  0.71123793  0.66411758  0.19778438  1
  O  O383  1  0.71313172  0.67312214  0.69397359  1
  O  O384  1  0.12259646  0.08147509  0.30468439  1
  O  O385  1  0.11738811  0.08046463  0.80675471  1
  O  O386  1  0.12277808  0.58577499  0.30405511  1
  O  O387  1  0.12224282  0.58285864  0.80759445  1
  O  O388  1  0.45481818  0.07601733  0.30788259  1
  O  O389  1  0.45699667  0.08192457  0.80782319  1
  O  O390  1  0.45362821  0.58373580  0.30176838  1
  O  O391  1  0.46090992  0.58376909  0.80773384  1
  O  O392  1  0.79242374  0.08141936  0.30688938  1
  O  O393  1  0.78940946  0.07906934  0.80445756  1
  O  O394  1  0.79091038  0.58382994  0.30576462  1
  O  O395  1  0.79228829  0.58520400  0.80414299  1
  O  O396  1  0.28591703  0.33399180  0.30260176  1
  O  O397  1  0.30249355  0.33498808  0.81118239  1
  O  O398  1  0.28925932  0.83588886  0.30316003  1
  O  O399  1  0.29042862  0.83499679  0.80710122  1
  O  O400  1  0.61623562  0.33760768  0.30491324  1
  O  O401  1  0.62578141  0.33469881  0.80988607  1
  O  O402  1  0.62377866  0.83920818  0.30444709  1
  O  O403  1  0.62681321  0.83249744  0.80419122  1
  O  O404  1  0.95508690  0.33384495  0.29986117  1
  O  O405  1  0.95357875  0.33115338  0.80769866  1
  O  O406  1  0.95489552  0.83009162  0.30185938  1
  O  O407  1  0.95795705  0.83161743  0.80430743  1
  O  O408  1  0.12394180  0.42103225  0.30929856  1
  O  O409  1  0.11853684  0.42196659  0.80754005  1
  O  O410  1  0.12649970  0.91446996  0.30225087  1
  O  O411  1  0.12183556  0.91537570  0.80509694  1
  O  O412  1  0.45626067  0.41770911  0.30915843  1
  O  O413  1  0.46094531  0.41782949  0.80741612  1
  O  O414  1  0.45870286  0.91670139  0.30475689  1
  O  O415  1  0.45690199  0.91456655  0.80430947  1
  O  O416  1  0.78665102  0.41785411  0.30717804  1
  O  O417  1  0.79086746  0.41348867  0.80832978  1
  O  O418  1  0.79320352  0.91684643  0.30383722  1
  O  O419  1  0.79104823  0.91257881  0.80322747  1
  O  O420  1  0.29171178  0.16488200  0.31046422  1
  O  O421  1  0.28998830  0.16837836  0.80287506  1
  O  O422  1  0.28882304  0.66879456  0.30552042  1
  O  O423  1  0.28672223  0.66691207  0.80073403  1
  O  O424  1  0.63108406  0.15459035  0.30850427  1
  O  O425  1  0.62278531  0.16613664  0.79869794  1
  O  O426  1  0.62654488  0.66697799  0.30959453  1
  O  O427  1  0.62299315  0.67147458  0.80446430  1
  O  O428  1  0.96148720  0.16626472  0.30711615  1
  O  O429  1  0.95088329  0.16413535  0.80377204  1
  O  O430  1  0.95368917  0.66638934  0.30317350  1
  O  O431  1  0.95543338  0.66662156  0.80413530  1
  F  F432  1  0.04697783  0.00351922  0.19812037  1
  F  F433  1  0.04333180  -0.00276476  0.70253829  1
  F  F434  1  0.04564194  0.49900264  0.20417606  1
  F  F435  1  0.04618121  0.50220691  0.70220831  1
  F  F436  1  0.37969447  -0.00028956  0.20242048  1
  F  F437  1  0.37716112  0.00047453  0.70473848  1
  F  F438  1  0.37495327  0.49746188  0.20307451  1
  F  F439  1  0.38251986  0.50078659  0.70680621  1
  F  F440  1  0.71521175  -0.00180262  0.20262045  1
  F  F441  1  0.71295606  -0.00221560  0.70186444  1
  F  F442  1  0.71005937  0.50013813  0.20372735  1
  F  F443  1  0.70987684  0.49732624  0.69854126  1
  F  F444  1  0.20959060  0.25055295  0.20444722  1
  F  F445  1  0.21755954  0.24108382  0.69844587  1
  F  F446  1  0.21372478  0.75110612  0.20229475  1
  F  F447  1  0.20845513  0.75133350  0.70270244  1
  F  F448  1  0.53079413  0.26271702  0.19090660  1
  F  F449  1  0.54487239  0.25301600  0.70339725  1
  F  F450  1  0.54061528  0.75328379  0.19983789  1
  F  F451  1  0.54571787  0.75134966  0.70110493  1
  F  F452  1  0.87823324  0.24931943  0.20010723  1
  F  F453  1  0.87464448  0.24658056  0.70323452  1
  F  F454  1  0.87848803  0.74933624  0.19760159  1
  F  F455  1  0.88094171  0.75068749  0.70161816  1
  F  F456  1  0.28807148  -0.00414327  0.29884170  1
  F  F457  1  0.28760987  -0.00464713  0.80027774  1
  F  F458  1  0.28640839  0.50319681  0.29854424  1
  F  F459  1  0.28853527  0.50200830  0.80054001  1
  F  F460  1  0.62482831  -0.00415360  0.29849395  1
  F  F461  1  0.62371753  -0.00084858  0.79807538  1
  F  F462  1  0.62259015  0.49954307  0.29999334  1
  F  F463  1  0.62261037  0.49650199  0.80055528  1
  F  F464  1  0.95735108  -0.00017854  0.29944664  1
  F  F465  1  0.95373766  -0.00345945  0.79784264  1
  F  F466  1  0.95225321  0.50331918  0.29721947  1
  F  F467  1  0.96028992  0.50173770  0.80149335  1
  F  F468  1  0.12061220  0.24943054  0.29860019  1
  F  F469  1  0.11289605  0.23644098  0.80185437  1
  F  F470  1  0.12190333  0.75257716  0.29800365  1
  F  F471  1  0.12044107  0.74972275  0.79914496  1
  F  F472  1  0.44864298  0.25846720  0.30374405  1
  F  F473  1  0.45763951  0.25103325  0.79950820  1
  F  F474  1  0.45069360  0.76037736  0.30377981  1
  F  F475  1  0.45659033  0.75335917  0.79822003  1
  F  F476  1  0.79948527  0.24734321  0.30134286  1
  F  F477  1  0.78883394  0.24485238  0.80040398  1
  F  F478  1  0.79822185  0.75316043  0.29894710  1
  F  F479  1  0.79000537  0.75092705  0.79799293  1
