# generated using pymatgen
data_K24Na3Li5Mg64Fe17Si79(O5F)48
_symmetry_space_group_name_H-M   'P 1'
_cell_length_a   16.11757365
_cell_length_b   18.60350013
_cell_length_c   20.58030944
_cell_angle_alpha   90.02413003
_cell_angle_beta   100.03281183
_cell_angle_gamma   89.96476326
_symmetry_Int_Tables_number   1
_chemical_formula_structural   K24Na3Li5Mg64Fe17Si79(O5F)48
_chemical_formula_sum   'K24 Na3 Li5 Mg64 Fe17 Si79 O240 F48'
_cell_volume   6076.50210313
_cell_formula_units_Z   1
loop_
 _symmetry_equiv_pos_site_id
 _symmetry_equiv_pos_as_xyz
  1  'x, y, z'
loop_
 _atom_site_type_symbol
 _atom_site_label
 _atom_site_symmetry_multiplicity
 _atom_site_fract_x
 _atom_site_fract_y
 _atom_site_fract_z
 _atom_site_occupancy
  K  K0  1  0.01017918  0.01241753  -0.01302677  1
  K  K1  1  -0.00113108  0.00369207  0.50462628  1
  K  K2  1  0.00823854  0.49053921  -0.00842664  1
  K  K3  1  0.00803417  0.49723275  0.50800297  1
  K  K4  1  0.33201285  0.00751859  -0.00336334  1
  K  K5  1  0.33103406  0.01561442  0.50555046  1
  K  K6  1  0.32445180  0.49693637  -0.00458112  1
  K  K7  1  0.32205757  0.48956076  0.50695447  1
  K  K8  1  0.65792308  0.00575146  -0.00303723  1
  K  K9  1  0.66217789  0.00818422  0.49966896  1
  K  K10  1  0.66263419  0.48456481  -0.00595460  1
  K  K11  1  0.66872639  0.48701911  0.49647073  1
  K  K12  1  0.15976828  0.23990974  -0.00208892  1
  K  K13  1  0.17492158  0.24798620  0.50516818  1
  K  K14  1  0.15756464  0.75746807  -0.01180217  1
  K  K15  1  0.15758966  0.75758616  0.50653991  1
  K  K16  1  0.50750846  0.24138510  -0.00491488  1
  K  K17  1  0.50670461  0.23046247  0.49792848  1
  K  K18  1  0.49900402  0.76787042  0.00098757  1
  K  K19  1  0.49974763  0.75612416  0.50135232  1
  K  K20  1  0.83077326  0.23339286  -0.00543141  1
  K  K21  1  0.82594889  0.25505423  0.49937203  1
  K  K22  1  0.83557645  0.75774968  -0.00375875  1
  K  K23  1  0.84452208  0.75805677  0.50167194  1
  Na  Na24  1  0.50024737  0.00151120  0.24626046  1
  Na  Na25  1  -0.00073033  0.92134416  0.74837079  1
  Na  Na26  1  0.49918412  0.16950675  0.25240451  1
  Li  Li27  1  0.51172136  0.00819618  0.75413135  1
  Li  Li28  1  -0.00315825  0.24568378  0.74697751  1
  Li  Li29  1  0.50343718  0.32618018  0.25080564  1
  Li  Li30  1  0.51033785  0.15453349  0.74972552  1
  Li  Li31  1  0.66414805  0.08561167  0.74660166  1
  Mg  Mg32  1  0.83244551  0.00034006  0.25019980  1
  Mg  Mg33  1  0.33508703  0.25087921  0.25301498  1
  Mg  Mg34  1  0.83202388  0.50052620  0.25161657  1
  Mg  Mg35  1  -0.00005816  0.24969269  0.24676204  1
  Mg  Mg36  1  0.83204735  0.00409052  0.74636632  1
  Mg  Mg37  1  0.33931593  0.24768011  0.75218902  1
  Mg  Mg38  1  0.66606243  0.75218138  0.24741764  1
  Mg  Mg39  1  0.66266561  0.24527880  0.75272969  1
  Mg  Mg40  1  0.00148722  0.75338924  0.74955317  1
  Mg  Mg41  1  0.16753041  0.49769881  0.25045212  1
  Mg  Mg42  1  0.66555898  0.75050988  0.74852592  1
  Mg  Mg43  1  -0.00045262  0.74956277  0.25331264  1
  Mg  Mg44  1  0.33336697  0.75003794  0.24733872  1
  Mg  Mg45  1  0.33357903  0.75155559  0.75402965  1
  Mg  Mg46  1  0.16619236  0.00292339  0.25011441  1
  Mg  Mg47  1  0.16614789  0.00375163  0.75353104  1
  Mg  Mg48  1  0.50034101  0.49625836  0.25188996  1
  Mg  Mg49  1  0.83364412  0.49821777  0.75177213  1
  Mg  Mg50  1  0.66088645  0.25039628  0.25018239  1
  Mg  Mg51  1  0.49945418  0.49857873  0.75412336  1
  Mg  Mg52  1  0.16610552  0.49834188  0.74937310  1
  Mg  Mg53  1  0.83527416  0.66644223  0.25130784  1
  Mg  Mg54  1  0.16640007  0.83680696  0.75126922  1
  Mg  Mg55  1  0.16664020  0.66478146  0.25058417  1
  Mg  Mg56  1  0.16715646  0.16587991  0.24977924  1
  Mg  Mg57  1  0.00209652  0.58428299  0.75093464  1
  Mg  Mg58  1  0.16902437  0.33272114  0.24885866  1
  Mg  Mg59  1  0.66471796  0.92096600  0.74827218  1
  Mg  Mg60  1  0.66545699  0.08446233  0.24828289  1
  Mg  Mg61  1  -0.00068971  0.08669944  0.74985985  1
  Mg  Mg62  1  0.00132491  0.91701513  0.25225683  1
  Mg  Mg63  1  0.66585166  0.58325200  0.75252512  1
  Mg  Mg64  1  0.16665315  0.83429673  0.25066166  1
  Mg  Mg65  1  0.83443241  0.66522703  0.75044012  1
  Mg  Mg66  1  0.50054837  0.83746335  0.75076478  1
  Mg  Mg67  1  0.33220632  0.41408712  0.74937103  1
  Mg  Mg68  1  0.00020351  0.41218796  0.74966748  1
  Mg  Mg69  1  0.34087783  0.08366488  0.75224537  1
  Mg  Mg70  1  0.33567642  0.92023301  0.75250625  1
  Mg  Mg71  1  0.16363889  0.66551892  0.75049096  1
  Mg  Mg72  1  0.66258188  0.41349975  0.25144461  1
  Mg  Mg73  1  0.50223851  0.32933512  0.75340972  1
  Mg  Mg74  1  0.33074596  0.58387944  0.75031312  1
  Mg  Mg75  1  0.00055550  0.58446029  0.25127437  1
  Mg  Mg76  1  0.33438123  0.58261515  0.24929028  1
  Mg  Mg77  1  0.83269180  0.83499280  0.74880558  1
  Mg  Mg78  1  0.83432207  0.83507331  0.25091789  1
  Mg  Mg79  1  0.33330465  0.08539162  0.24963261  1
  Mg  Mg80  1  0.83116887  0.16566770  0.74839179  1
  Mg  Mg81  1  0.66680625  0.58385195  0.24978759  1
  Mg  Mg82  1  0.66643487  0.41374338  0.75457258  1
  Mg  Mg83  1  0.83240629  0.33048492  0.75094739  1
  Mg  Mg84  1  0.33928601  0.41262468  0.25395502  1
  Mg  Mg85  1  0.83282486  0.16738224  0.24811605  1
  Mg  Mg86  1  0.16501949  0.33187502  0.74855940  1
  Mg  Mg87  1  0.66733472  0.91802711  0.24802735  1
  Mg  Mg88  1  0.00176861  0.08640337  0.24892048  1
  Mg  Mg89  1  0.83149523  0.33528984  0.24961081  1
  Mg  Mg90  1  0.00016654  0.41593209  0.24765576  1
  Mg  Mg91  1  0.16575965  0.16743937  0.75230291  1
  Mg  Mg92  1  0.33363835  0.91713873  0.24688035  1
  Mg  Mg93  1  0.49899095  0.66683083  0.75198258  1
  Mg  Mg94  1  0.50055142  0.66520827  0.24735448  1
  Mg  Mg95  1  0.50062853  0.83475466  0.24583404  1
  Fe  Fe96  1  0.02405013  0.16466073  0.10629751  1
  Fe  Fe97  1  0.14156280  0.57962639  0.89190015  1
  Fe  Fe98  1  0.13969484  0.08680673  0.39169123  1
  Fe  Fe99  1  0.84944152  0.91738353  0.60794565  1
  Fe  Fe100  1  0.63486148  0.32965622  0.39090349  1
  Fe  Fe101  1  0.31352636  0.33668619  0.39129401  1
  Fe  Fe102  1  0.97742111  0.66371612  0.39061257  1
  Fe  Fe103  1  0.85501256  0.08915327  0.60525512  1
  Fe  Fe104  1  0.52540683  0.92182624  0.10591448  1
  Fe  Fe105  1  0.19200269  0.41364731  0.60996085  1
  Fe  Fe106  1  0.64323398  0.32738861  0.89382766  1
  Fe  Fe107  1  0.80948878  0.91998224  0.38871021  1
  Fe  Fe108  1  0.14545755  0.91582409  0.89363165  1
  Fe  Fe109  1  0.14549555  0.09157652  0.89411079  1
  Fe  Fe110  1  0.02440201  0.67146832  0.61069244  1
  Fe  Fe111  1  0.68420350  0.17272155  0.61006393  1
  Fe  Fe112  1  0.31793818  0.16629577  0.39302035  1
  Si  Si113  1  0.31864648  0.17126534  0.88914945  1
  Si  Si114  1  0.14224865  0.40663612  0.88823139  1
  Si  Si115  1  0.80273852  0.58573941  0.88696596  1
  Si  Si116  1  0.35579694  0.82906614  0.10987526  1
  Si  Si117  1  0.80645181  0.41849422  0.38643952  1
  Si  Si118  1  0.36213509  0.66987533  0.61722233  1
  Si  Si119  1  0.30771532  0.66434857  0.38385023  1
  Si  Si120  1  0.80443567  0.91381268  0.88495918  1
  Si  Si121  1  0.02968578  0.83950749  0.61121112  1
  Si  Si122  1  0.52696045  0.09261532  0.10922808  1
  Si  Si123  1  0.47232036  0.42775623  0.39138422  1
  Si  Si124  1  0.19796722  0.08713642  0.61871710  1
  Si  Si125  1  0.19109051  0.58409502  0.11377404  1
  Si  Si126  1  0.36749137  0.32867820  0.61473829  1
  Si  Si127  1  0.52622497  0.91120761  0.61408680  1
  Si  Si128  1  0.69241619  0.17063920  0.11319430  1
  Si  Si129  1  0.47245299  0.41789719  0.88874106  1
  Si  Si130  1  0.02136720  0.33216149  0.61208307  1
  Si  Si131  1  0.52695249  0.07538585  0.61523694  1
  Si  Si132  1  0.31190273  0.66639209  0.88827720  1
  Si  Si133  1  0.64251434  0.15821901  0.38589740  1
  Si  Si134  1  0.02592338  0.66803297  0.11437805  1
  Si  Si135  1  0.69391241  0.83014179  0.10991206  1
  Si  Si136  1  0.30507929  0.82924147  0.38392890  1
  Si  Si137  1  0.52567403  0.58002209  0.11302294  1
  Si  Si138  1  0.69360349  0.33638661  0.11428048  1
  Si  Si139  1  0.64397635  0.15968442  0.88951801  1
  Si  Si140  1  0.80315448  0.58474859  0.38639765  1
  Si  Si141  1  0.47076976  0.90630776  0.38292034  1
  Si  Si142  1  0.36604830  0.16313316  0.61939815  1
  Si  Si143  1  0.02987614  0.16596667  0.61392003  1
  Si  Si144  1  0.47714551  0.08076999  0.88509302  1
  Si  Si145  1  0.14549644  0.57678225  0.38594386  1
  Si  Si146  1  0.19180363  0.41893714  0.11301479  1
  Si  Si147  1  0.63951824  0.83196820  0.38530079  1
  Si  Si148  1  0.19289135  0.91316607  0.11473992  1
  Si  Si149  1  0.35760730  0.17063581  0.11370723  1
  Si  Si150  1  0.52441153  0.42127684  0.61891292  1
  Si  Si151  1  0.64029856  0.66845386  0.38283104  1
  Si  Si152  1  0.35916269  0.83448153  0.61633211  1
  Si  Si153  1  0.02364427  0.33744196  0.10991730  1
  Si  Si154  1  0.68720874  0.82442807  0.61148765  1
  Si  Si155  1  0.19769469  0.92085084  0.61672219  1
  Si  Si156  1  0.52244247  0.58318505  0.61814106  1
  Si  Si157  1  0.02569795  0.83442971  0.11527474  1
  Si  Si158  1  0.14475716  0.91684861  0.38650328  1
  Si  Si159  1  0.96841212  0.17341463  0.38456408  1
  Si  Si160  1  0.68792529  0.65980264  0.61590183  1
  Si  Si161  1  0.98096046  0.83324944  0.38761214  1
  Si  Si162  1  0.35887252  0.66308762  0.11259034  1
  Si  Si163  1  0.85781144  0.42070793  0.11318330  1
  Si  Si164  1  0.81077523  0.42045284  0.89006902  1
  Si  Si165  1  0.52453226  0.41542687  0.11432347  1
  Si  Si166  1  0.96822046  0.66497029  0.88992204  1
  Si  Si167  1  0.80656840  0.07817256  0.88374118  1
  Si  Si168  1  0.47416846  0.07143773  0.38695068  1
  Si  Si169  1  0.97007730  0.33411749  0.88476291  1
  Si  Si170  1  0.13988251  0.41259887  0.38351708  1
  Si  Si171  1  0.85874804  0.58508403  0.11375029  1
  Si  Si172  1  0.81093968  0.08844282  0.38333521  1
  Si  Si173  1  0.31137335  0.33349768  0.88484833  1
  Si  Si174  1  0.19834228  0.07970316  0.11110026  1
  Si  Si175  1  0.63991603  0.83398066  0.88506835  1
  Si  Si176  1  0.85305789  0.07931480  0.11112829  1
  Si  Si177  1  0.47682987  0.58910518  0.38419667  1
  Si  Si178  1  0.68512108  0.34096069  0.61618647  1
  Si  Si179  1  0.85578211  0.58013805  0.61406216  1
  Si  Si180  1  0.63767698  0.66858285  0.88640986  1
  Si  Si181  1  0.47461689  0.58327836  0.88665547  1
  Si  Si182  1  0.19738514  0.58668488  0.61092263  1
  Si  Si183  1  0.69135151  0.66449443  0.11326236  1
  Si  Si184  1  0.35656005  0.33531912  0.11372768  1
  Si  Si185  1  0.85448189  0.41400033  0.61621503  1
  Si  Si186  1  0.31463842  0.83045750  0.88877936  1
  Si  Si187  1  0.96561648  0.16959358  0.88569364  1
  Si  Si188  1  0.85911807  0.91334531  0.11445783  1
  Si  Si189  1  0.97255086  0.33845918  0.38188091  1
  Si  Si190  1  0.47456445  0.91659339  0.88467507  1
  Si  Si191  1  0.96881034  0.82945148  0.88795541  1
  O  O192  1  0.27710175  0.11885311  0.08224442  1
  O  O193  1  0.27655321  0.12241776  0.58848993  1
  O  O194  1  0.27049637  0.61992832  0.08461174  1
  O  O195  1  0.28523752  0.61724583  0.58632598  1
  O  O196  1  0.60095542  0.13855394  0.07841201  1
  O  O197  1  0.59508829  0.10966938  0.57461038  1
  O  O198  1  0.60365364  0.62014254  0.08438845  1
  O  O199  1  0.60629661  0.60747262  0.58853016  1
  O  O200  1  0.92403470  0.11277260  0.07362609  1
  O  O201  1  0.95605290  0.11513219  0.57607520  1
  O  O202  1  0.93635762  0.62632322  0.08564312  1
  O  O203  1  0.92976815  0.61208819  0.57937314  1
  O  O204  1  0.10149103  0.38063777  0.08260892  1
  O  O205  1  0.08967396  0.36942405  0.57304117  1
  O  O206  1  0.10148632  0.87435717  0.08583750  1
  O  O207  1  0.11553822  0.87310007  0.58525365  1
  O  O208  1  0.43501729  0.37491283  0.08388306  1
  O  O209  1  0.44955666  0.36580981  0.58853974  1
  O  O210  1  0.42458562  0.86852238  0.07456272  1
  O  O211  1  0.43975351  0.86359296  0.58520392  1
  O  O212  1  0.76751960  0.38132419  0.08400246  1
  O  O213  1  0.76813035  0.37045518  0.58618292  1
  O  O214  1  0.78014224  0.86002578  0.08480861  1
  O  O215  1  0.76482756  0.84607437  0.57647628  1
  O  O216  1  0.26967956  0.38209901  0.08238953  1
  O  O217  1  0.28398235  0.37061666  0.57874332  1
  O  O218  1  0.26122331  0.86328423  0.08483970  1
  O  O219  1  0.27708853  0.88386548  0.58631208  1
  O  O220  1  0.60262146  0.37585091  0.08475482  1
  O  O221  1  0.61228450  0.40442452  0.59257065  1
  O  O222  1  0.61438076  0.87414589  0.07125540  1
  O  O223  1  0.60074167  0.87070346  0.58141324  1
  O  O224  1  0.93685191  0.38574525  0.08389891  1
  O  O225  1  0.93057255  0.37561511  0.58565767  1
  O  O226  1  0.93885263  0.87757726  0.08472511  1
  O  O227  1  0.95490036  0.89542073  0.58407364  1
  O  O228  1  0.11278702  0.11808890  0.07450317  1
  O  O229  1  0.11699255  0.13693769  0.58791594  1
  O  O230  1  0.10354841  0.62859058  0.08498956  1
  O  O231  1  0.12270505  0.64127145  0.58035277  1
  O  O232  1  0.43978005  0.14048968  0.08463876  1
  O  O233  1  0.43626047  0.11810716  0.58787786  1
  O  O234  1  0.43634164  0.62215289  0.08417735  1
  O  O235  1  0.44714404  0.64097607  0.58999864  1
  O  O236  1  0.76387403  0.12307065  0.08362948  1
  O  O237  1  0.77580850  0.15628912  0.56972302  1
  O  O238  1  0.76987778  0.62647604  0.08388640  1
  O  O239  1  0.76717184  0.62539005  0.58664319  1
  O  O240  1  0.03915431  0.11855025  0.41996137  1
  O  O241  1  0.05430462  0.13840886  0.92427787  1
  O  O242  1  0.06729004  0.59983262  0.42029000  1
  O  O243  1  0.04729293  0.61696603  0.92521293  1
  O  O244  1  0.40522846  0.10019038  0.42931631  1
  O  O245  1  0.40363612  0.12262414  0.91799704  1
  O  O246  1  0.39434323  0.62013235  0.41282649  1
  O  O247  1  0.39497990  0.61494596  0.91674354  1
  O  O248  1  0.72576656  0.10755043  0.41306648  1
  O  O249  1  0.72859134  0.10980354  0.91756580  1
  O  O250  1  0.71389800  0.60962922  0.41058702  1
  O  O251  1  0.72151033  0.62051309  0.91557141  1
  O  O252  1  0.20784563  0.35583438  0.41829196  1
  O  O253  1  0.22694603  0.35695424  0.91468188  1
  O  O254  1  0.22174859  0.85735682  0.41168777  1
  O  O255  1  0.23949258  0.85406221  0.92612596  1
  O  O256  1  0.54857123  0.37638493  0.42596978  1
  O  O257  1  0.55074995  0.37127038  0.92619354  1
  O  O258  1  0.54911896  0.85045545  0.41050878  1
  O  O259  1  0.56177021  0.87087224  0.91445563  1
  O  O260  1  0.89272734  0.37102573  0.41198938  1
  O  O261  1  0.90507763  0.38666062  0.91759004  1
  O  O262  1  0.89882401  0.85550792  0.41833899  1
  O  O263  1  0.88588162  0.86368848  0.91589773  1
  O  O264  1  0.04964547  0.39448465  0.40822134  1
  O  O265  1  0.06512600  0.36442206  0.91637144  1
  O  O266  1  0.05944981  0.88986079  0.41286975  1
  O  O267  1  0.05070723  0.87279953  0.92334756  1
  O  O268  1  0.38567287  0.41549750  0.41990187  1
  O  O269  1  0.38461836  0.39327374  0.91420770  1
  O  O270  1  0.38954253  0.87524362  0.41517215  1
  O  O271  1  0.40008913  0.87795154  0.91762538  1
  O  O272  1  0.73355897  0.38682679  0.42227877  1
  O  O273  1  0.74110811  0.38298523  0.92647596  1
  O  O274  1  0.71114858  0.88675108  0.41904072  1
  O  O275  1  0.72602388  0.87728131  0.91693957  1
  O  O276  1  0.22441120  0.14564220  0.43181159  1
  O  O277  1  0.24361076  0.14706227  0.92673601  1
  O  O278  1  0.22985572  0.62713667  0.41268793  1
  O  O279  1  0.23631704  0.63891347  0.92440932  1
  O  O280  1  0.56437034  0.11446164  0.41036318  1
  O  O281  1  0.56688462  0.11787926  0.91877182  1
  O  O282  1  0.55403671  0.64576222  0.41059885  1
  O  O283  1  0.55852468  0.63237350  0.91551591  1
  O  O284  1  0.87751232  0.15521291  0.40730495  1
  O  O285  1  0.89043335  0.12545666  0.91588797  1
  O  O286  1  0.87600330  0.63897250  0.41974071  1
  O  O287  1  0.88315832  0.63543839  0.91797848  1
  O  O288  1  0.19561425  -0.00562708  0.08595309  1
  O  O289  1  0.18618958  0.00388884  0.58870325  1
  O  O290  1  0.18134309  0.50234093  0.08372334  1
  O  O291  1  0.18194450  0.50832155  0.57651643  1
  O  O292  1  0.51440713  0.01587405  0.07033175  1
  O  O293  1  0.50927556  -0.00831769  0.58389133  1
  O  O294  1  0.51757162  0.49839198  0.08184486  1
  O  O295  1  0.49426356  0.50279508  0.59052724  1
  O  O296  1  0.83700372  -0.00560853  0.08561548  1
  O  O297  1  0.81437366  0.00250270  0.56733350  1
  O  O298  1  0.84944290  0.50348172  0.08331617  1
  O  O299  1  0.83854527  0.49653053  0.58734623  1
  O  O300  1  0.01176100  0.26077383  0.07358953  1
  O  O301  1  0.00994996  0.24896681  0.58504099  1
  O  O302  1  0.01675357  0.75094279  0.08582439  1
  O  O303  1  0.00844273  0.76295270  0.57256897  1
  O  O304  1  0.34200467  0.25362292  0.08270480  1
  O  O305  1  0.36266673  0.24508737  0.58863218  1
  O  O306  1  0.34943208  0.74418273  0.08258698  1
  O  O307  1  0.34245848  0.75140284  0.58742189  1
  O  O308  1  0.69501083  0.25435766  0.08536349  1
  O  O309  1  0.65027862  0.26797504  0.58085462  1
  O  O310  1  0.68249888  0.74539072  0.08215689  1
  O  O311  1  0.66129733  0.73976431  0.58672678  1
  O  O312  1  0.17376546  -0.00806457  0.42121628  1
  O  O313  1  0.16382666  0.00339130  0.93659387  1
  O  O314  1  0.17131107  0.49413541  0.40924296  1
  O  O315  1  0.15734688  0.48401425  0.92562592  1
  O  O316  1  0.49594026  -0.01391440  0.41218015  1
  O  O317  1  0.48426969  -0.00227191  0.91563271  1
  O  O318  1  0.50464347  0.51180147  0.41666344  1
  O  O319  1  0.49174693  0.50203476  0.91606419  1
  O  O320  1  0.84855017  0.01281929  0.41426212  1
  O  O321  1  0.82116328  -0.00470470  0.91476177  1
  O  O322  1  0.82526210  0.50234068  0.41289485  1
  O  O323  1  0.81817058  0.50508272  0.91770019  1
  O  O324  1  0.35856779  0.25341898  0.42886571  1
  O  O325  1  0.34458661  0.25507185  0.91457204  1
  O  O326  1  0.32197123  0.74645326  0.41282449  1
  O  O327  1  0.34345156  0.74740038  0.91308835  1
  O  O328  1  0.65317725  0.23520579  0.42364436  1
  O  O329  1  0.65880258  0.23523326  0.93096656  1
  O  O330  1  0.66515813  0.74861388  0.41237826  1
  O  O331  1  0.65077569  0.75067942  0.91606393  1
  O  O332  1  0.99270494  0.25716277  0.41042653  1
  O  O333  1  0.95857159  0.25360782  0.91354798  1
  O  O334  1  1.01673060  0.75542358  0.41562201  1
  O  O335  1  0.97800889  0.74693155  0.92033531  1
  O  O336  1  0.20947398  0.08122845  0.19134762  1
  O  O337  1  0.21612258  0.08576479  0.69863462  1
  O  O338  1  0.20936560  0.58434345  0.19403771  1
  O  O339  1  0.21350951  0.58461228  0.69254837  1
  O  O340  1  0.55402512  0.08603999  0.18722147  1
  O  O341  1  0.54807106  0.07699769  0.69360935  1
  O  O342  1  0.54331118  0.58259970  0.19333381  1
  O  O343  1  0.54211954  0.58404380  0.69869286  1
  O  O344  1  0.87546358  0.08299513  0.19186539  1
  O  O345  1  0.87755468  0.08603558  0.69728636  1
  O  O346  1  0.87523711  0.58335847  0.19380085  1
  O  O347  1  0.87342812  0.58193340  0.69532209  1
  O  O348  1  0.04155173  0.33659999  0.19076760  1
  O  O349  1  0.04479572  0.33797926  0.69200024  1
  O  O350  1  0.04334472  0.83189153  0.19561820  1
  O  O351  1  0.05056874  0.82688180  0.69091072  1
  O  O352  1  0.37257792  0.33695879  0.19262659  1
  O  O353  1  0.38030684  0.33374201  0.69555709  1
  O  O354  1  0.37469793  0.82929080  0.19085247  1
  O  O355  1  0.37700935  0.83241489  0.69646271  1
  O  O356  1  0.71340720  0.33889640  0.19383707  1
  O  O357  1  0.70967795  0.33900580  0.69660377  1
  O  O358  1  0.71058059  0.82931688  0.19051154  1
  O  O359  1  0.70571765  0.82768321  0.69234077  1
  O  O360  1  0.20849399  0.41982755  0.19285255  1
  O  O361  1  0.21183184  0.41650106  0.70172180  1
  O  O362  1  0.20851242  0.91237739  0.19508343  1
  O  O363  1  0.21585172  0.91716693  0.69652272  1
  O  O364  1  0.54445598  0.42294117  0.19314809  1
  O  O365  1  0.54173446  0.42101895  0.69928636  1
  O  O366  1  0.55095488  0.90728185  0.19504273  1
  O  O367  1  0.54644577  0.90729891  0.69323637  1
  O  O368  1  0.87550814  0.42013886  0.19357862  1
  O  O369  1  0.87399379  0.41633231  0.69659598  1
  O  O370  1  0.88017949  0.91394434  0.19446969  1
  O  O371  1  0.86395832  0.91626833  0.69823239  1
  O  O372  1  0.04214453  0.16824558  0.19734949  1
  O  O373  1  0.04650197  0.16758627  0.69383303  1
  O  O374  1  0.04515552  0.66618458  0.19442910  1
  O  O375  1  0.04204490  0.66757516  0.70246421  1
  O  O376  1  0.36705202  0.17023332  0.19239794  1
  O  O377  1  0.37821479  0.16631268  0.69860975  1
  O  O378  1  0.37625220  0.66377359  0.19304886  1
  O  O379  1  0.37830339  0.66839066  0.69774443  1
  O  O380  1  0.71189123  0.16960680  0.19312984  1
  O  O381  1  0.71133250  0.17136114  0.70005074  1
  O  O382  1  0.70979154  0.66464380  0.19360377  1
  O  O383  1  0.70727902  0.66244018  0.69653821  1
  O  O384  1  0.12110617  0.08293788  0.29899252  1
  O  O385  1  0.12396108  0.08712143  0.80289722  1
  O  O386  1  0.12549831  0.58227835  0.30450237  1
  O  O387  1  0.12445623  0.58046244  0.80069463  1
  O  O388  1  0.44413564  0.07729814  0.30891667  1
  O  O389  1  0.45700779  0.08147885  0.80669699  1
  O  O390  1  0.45710349  0.58691538  0.30339589  1
  O  O391  1  0.45705007  0.58450330  0.80624547  1
  O  O392  1  0.79278652  0.08576417  0.30188509  1
  O  O393  1  0.78996625  0.08083972  0.80498981  1
  O  O394  1  0.78832798  0.58470942  0.30478974  1
  O  O395  1  0.78713276  0.58440778  0.80663417  1
  O  O396  1  0.28621584  0.33592926  0.29866850  1
  O  O397  1  0.29223500  0.33373352  0.80492576  1
  O  O398  1  0.28884776  0.82921777  0.30331905  1
  O  O399  1  0.29446418  0.83313505  0.80791123  1
  O  O400  1  0.62510327  0.33388331  0.30074975  1
  O  O401  1  0.62246989  0.33444371  0.80304949  1
  O  O402  1  0.62350213  0.82975824  0.30431514  1
  O  O403  1  0.62287572  0.82911207  0.80536089  1
  O  O404  1  0.95423123  0.33672200  0.30095096  1
  O  O405  1  0.95199684  0.33935727  0.80566285  1
  O  O406  1  0.95981568  0.83359493  0.30535307  1
  O  O407  1  0.95079846  0.82384715  0.80838123  1
  O  O408  1  0.12135578  0.41592902  0.30201390  1
  O  O409  1  0.12240356  0.41377763  0.80797063  1
  O  O410  1  0.12538328  0.91551913  0.30500051  1
  O  O411  1  0.13477773  0.91795860  0.80351968  1
  O  O412  1  0.45503363  0.42790450  0.31052423  1
  O  O413  1  0.45643224  0.41848500  0.80807020  1
  O  O414  1  0.44817069  0.90319760  0.30359610  1
  O  O415  1  0.45458237  0.91166784  0.80568503  1
  O  O416  1  0.78933999  0.41887717  0.30504888  1
  O  O417  1  0.79011833  0.41952564  0.80933726  1
  O  O418  1  0.78906948  0.91552843  0.29654899  1
  O  O419  1  0.78456033  0.91091857  0.80561650  1
  O  O420  1  0.28664286  0.16676809  0.30012663  1
  O  O421  1  0.29546784  0.16803433  0.80882070  1
  O  O422  1  0.29054146  0.66532902  0.30304939  1
  O  O423  1  0.29209813  0.66475752  0.80725428  1
  O  O424  1  0.63420343  0.16568496  0.30646543  1
  O  O425  1  0.62491166  0.16897358  0.81123004  1
  O  O426  1  0.62273087  0.66718687  0.30194608  1
  O  O427  1  0.62139711  0.66686941  0.80612713  1
  O  O428  1  0.95417202  0.17091932  0.30322436  1
  O  O429  1  0.95198796  0.16810432  0.80636989  1
  O  O430  1  0.95549840  0.66501915  0.29805079  1
  O  O431  1  0.95227798  0.66262213  0.80939355  1
  F  F432  1  0.04445965  -0.00403648  0.19964292  1
  F  F433  1  0.05261836  0.01147738  0.69803860  1
  F  F434  1  0.04507590  0.50216357  0.20056631  1
  F  F435  1  0.04280894  0.49771521  0.70218936  1
  F  F436  1  0.36368407  -0.00174446  0.19549028  1
  F  F437  1  0.37189306  -0.00122038  0.70017305  1
  F  F438  1  0.37931511  0.50162746  0.20092825  1
  F  F439  1  0.37998269  0.50147772  0.70415792  1
  F  F440  1  0.71482041  0.00149775  0.19686295  1
  F  F441  1  0.71155845  -0.00417369  0.70035792  1
  F  F442  1  0.71206533  0.50150863  0.20151003  1
  F  F443  1  0.71061858  0.50056696  0.70650814  1
  F  F444  1  0.20635058  0.25114131  0.19772322  1
  F  F445  1  0.21680668  0.24995145  0.70345129  1
  F  F446  1  0.21086566  0.74761298  0.20066026  1
  F  F447  1  0.21572033  0.74944495  0.70593972  1
  F  F448  1  0.55321132  0.25826513  0.19108445  1
  F  F449  1  0.54455014  0.25261408  0.70254478  1
  F  F450  1  0.54489188  0.74586330  0.19816477  1
  F  F451  1  0.54312454  0.74737378  0.70265677  1
  F  F452  1  0.87734544  0.25336720  0.19900385  1
  F  F453  1  0.87411127  0.25240562  0.70241000  1
  F  F454  1  0.87876608  0.75050709  0.20031924  1
  F  F455  1  0.87699735  0.74674634  0.70302798  1
  F  F456  1  0.28482255  -0.00475928  0.29648823  1
  F  F457  1  0.29172995  0.00187914  0.80143700  1
  F  F458  1  0.28718224  0.50295476  0.29537108  1
  F  F459  1  0.29039615  0.50161311  0.79952794  1
  F  F460  1  0.63573186  0.00025010  0.29894215  1
  F  F461  1  0.62128805  -0.01323964  0.80689431  1
  F  F462  1  0.62205732  0.50297367  0.29734259  1
  F  F463  1  0.62103761  0.50273652  0.80273282  1
  F  F464  1  0.95509188  0.00128482  0.29437799  1
  F  F465  1  0.95014587  0.00992760  0.80295100  1
  F  F466  1  0.95423945  0.50006243  0.29548748  1
  F  F467  1  0.95407844  0.50011090  0.79807277  1
  F  F468  1  0.11823564  0.25403383  0.29558837  1
  F  F469  1  0.12698788  0.25236314  0.79901444  1
  F  F470  1  0.12337880  0.74847990  0.29674936  1
  F  F471  1  0.12365643  0.75109871  0.80076003  1
  F  F472  1  0.44939355  0.26152513  0.30148354  1
  F  F473  1  0.45216406  0.25913272  0.80593241  1
  F  F474  1  0.45377470  0.74693319  0.29344382  1
  F  F475  1  0.45687368  0.74964744  0.79996744  1
  F  F476  1  0.78839666  0.25264388  0.29409082  1
  F  F477  1  0.78689240  0.25369854  0.80191400  1
  F  F478  1  0.78681348  0.74907489  0.29485237  1
  F  F479  1  0.78417956  0.74652898  0.79738297  1
