# generated using pymatgen
data_K24Na3Li5Mg64Fe17Si79(O5F)48
_symmetry_space_group_name_H-M   'P 1'
_cell_length_a   16.07694372
_cell_length_b   18.55829247
_cell_length_c   20.53748098
_cell_angle_alpha   89.98179129
_cell_angle_beta   99.99871204
_cell_angle_gamma   90.01472408
_symmetry_Int_Tables_number   1
_chemical_formula_structural   K24Na3Li5Mg64Fe17Si79(O5F)48
_chemical_formula_sum   'K24 Na3 Li5 Mg64 Fe17 Si79 O240 F48'
_cell_volume   6034.50747439
_cell_formula_units_Z   1
loop_
 _symmetry_equiv_pos_site_id
 _symmetry_equiv_pos_as_xyz
  1  'x, y, z'
loop_
 _atom_site_type_symbol
 _atom_site_label
 _atom_site_symmetry_multiplicity
 _atom_site_fract_x
 _atom_site_fract_y
 _atom_site_fract_z
 _atom_site_occupancy
  K  K0  1  0.00098861  0.00604240  -0.00289918  1
  K  K1  1  0.00608029  -0.00649695  0.50245876  1
  K  K2  1  0.00659215  0.50342028  -0.00148884  1
  K  K3  1  -0.00073917  0.50184810  0.49895381  1
  K  K4  1  0.32188231  -0.00190969  -0.00108051  1
  K  K5  1  0.32452296  -0.00476579  0.49308425  1
  K  K6  1  0.32634814  0.49721515  -0.00290038  1
  K  K7  1  0.33888343  0.49799550  0.49853273  1
  K  K8  1  0.67543346  -0.00558233  0.00032574  1
  K  K9  1  0.67920748  -0.00086963  0.50529808  1
  K  K10  1  0.66716260  0.49992419  -0.00470323  1
  K  K11  1  0.66082018  0.51462132  0.49704053  1
  K  K12  1  0.16797372  0.24771799  0.00073742  1
  K  K13  1  0.17129741  0.25368939  0.49908719  1
  K  K14  1  0.16943552  0.75309673  -0.00275588  1
  K  K15  1  0.15937565  0.75420927  0.49706619  1
  K  K16  1  0.50023439  0.25051528  -0.00013278  1
  K  K17  1  0.49194200  0.25094985  0.49742641  1
  K  K18  1  0.49537113  0.75578963  0.00353610  1
  K  K19  1  0.50547862  0.74971988  0.49529084  1
  K  K20  1  0.83046971  0.24292524  -0.00131403  1
  K  K21  1  0.83919925  0.24938636  0.49894155  1
  K  K22  1  0.83539019  0.74693752  -0.00096872  1
  K  K23  1  0.82871552  0.75075036  0.50393976  1
  Na  Na24  1  0.82762500  0.50255585  0.74653009  1
  Na  Na25  1  0.33441254  0.58087515  0.75076498  1
  Na  Na26  1  -0.00165859  0.91542139  0.74678304  1
  Li  Li27  1  0.00096176  0.75278342  0.74648514  1
  Li  Li28  1  0.33220249  0.24941302  0.76022683  1
  Li  Li29  1  0.66807974  0.58101913  0.74875128  1
  Li  Li30  1  0.32946284  0.08426497  0.24924292  1
  Li  Li31  1  0.16519622  0.33210994  0.24301276  1
  Mg  Mg32  1  0.16897227  0.49795163  0.24614667  1
  Mg  Mg33  1  0.16706708  0.49939972  0.75146788  1
  Mg  Mg34  1  0.49614230  0.00205650  0.24888281  1
  Mg  Mg35  1  0.16705362  0.00192225  0.25119617  1
  Mg  Mg36  1  0.83189750  -0.00055096  0.25105353  1
  Mg  Mg37  1  0.33350112  0.75030555  0.75136260  1
  Mg  Mg38  1  0.66811992  0.74529284  0.74826204  1
  Mg  Mg39  1  -0.00074269  0.25400742  0.75077011  1
  Mg  Mg40  1  0.66515771  0.74982805  0.25149844  1
  Mg  Mg41  1  0.66409793  0.25204983  0.75076140  1
  Mg  Mg42  1  0.00040203  0.74941992  0.24809542  1
  Mg  Mg43  1  0.83525895  0.49856247  0.25186869  1
  Mg  Mg44  1  0.66824467  0.24741149  0.25433615  1
  Mg  Mg45  1  0.50012751  0.50056802  0.75150108  1
  Mg  Mg46  1  0.00485630  0.25179208  0.25049063  1
  Mg  Mg47  1  0.50054674  -0.00001808  0.75056570  1
  Mg  Mg48  1  0.16506540  0.00037676  0.75269651  1
  Mg  Mg49  1  0.49999602  0.49991465  0.25221253  1
  Mg  Mg50  1  0.33473736  0.74959813  0.24864078  1
  Mg  Mg51  1  0.33000417  0.24889050  0.24899045  1
  Mg  Mg52  1  0.83304203  0.00123333  0.74885694  1
  Mg  Mg53  1  0.32983527  0.41407931  0.24925261  1
  Mg  Mg54  1  0.66796015  0.91523317  0.25058845  1
  Mg  Mg55  1  0.16556412  0.83584142  0.24883927  1
  Mg  Mg56  1  0.83613286  0.83186641  0.74565383  1
  Mg  Mg57  1  0.33138370  0.91973650  0.24932620  1
  Mg  Mg58  1  0.16533725  0.83239433  0.75103288  1
  Mg  Mg59  1  0.16712560  0.66755846  0.74967731  1
  Mg  Mg60  1  0.00202634  0.58378476  0.24547702  1
  Mg  Mg61  1  0.50014300  0.66503839  0.25071612  1
  Mg  Mg62  1  0.66369665  0.42015622  0.74771581  1
  Mg  Mg63  1  0.16660226  0.66644134  0.24446116  1
  Mg  Mg64  1  0.00572455  0.41386306  0.24919978  1
  Mg  Mg65  1  0.33333991  0.91597598  0.75106671  1
  Mg  Mg66  1  0.66912316  0.08276068  0.25427831  1
  Mg  Mg67  1  0.83162602  0.33679220  0.74926797  1
  Mg  Mg68  1  0.66684027  0.08501326  0.74956259  1
  Mg  Mg69  1  0.66589387  0.58430225  0.25183174  1
  Mg  Mg70  1  0.17050876  0.33341790  0.75160352  1
  Mg  Mg71  1  0.49695588  0.16754329  0.75241017  1
  Mg  Mg72  1  0.00095916  0.58595713  0.74938154  1
  Mg  Mg73  1  0.33287643  0.41303417  0.75297553  1
  Mg  Mg74  1  0.50154204  0.66485637  0.75017750  1
  Mg  Mg75  1  0.83255946  0.16681700  0.75034990  1
  Mg  Mg76  1  0.49957233  0.83595357  0.24946841  1
  Mg  Mg77  1  0.83258558  0.66378446  0.24839619  1
  Mg  Mg78  1  0.00160014  0.08542660  0.25252244  1
  Mg  Mg79  1  0.33322743  0.08654648  0.75206730  1
  Mg  Mg80  1  0.49489119  0.33358461  0.75231979  1
  Mg  Mg81  1  0.00041592  0.41931884  0.75036591  1
  Mg  Mg82  1  0.83868859  0.33249279  0.25368256  1
  Mg  Mg83  1  0.83730955  0.16417275  0.25493534  1
  Mg  Mg84  1  0.66857966  0.41423705  0.25351379  1
  Mg  Mg85  1  0.67018632  0.91469970  0.74790480  1
  Mg  Mg86  1  -0.00026662  0.91551245  0.25050903  1
  Mg  Mg87  1  0.33568605  0.58420008  0.24705954  1
  Mg  Mg88  1  -0.00045114  0.08613229  0.75041070  1
  Mg  Mg89  1  0.17023407  0.16913381  0.75289395  1
  Mg  Mg90  1  0.49752389  0.16518075  0.25276730  1
  Mg  Mg91  1  0.16617002  0.16834811  0.24841568  1
  Mg  Mg92  1  0.83413363  0.66596122  0.74861236  1
  Mg  Mg93  1  0.83094986  0.83309850  0.25122739  1
  Mg  Mg94  1  0.50162073  0.83317072  0.74986115  1
  Mg  Mg95  1  0.49891270  0.33276105  0.25206236  1
  Fe  Fe96  1  0.18778563  0.41402896  0.10931384  1
  Fe  Fe97  1  0.47219314  0.58116565  0.39252488  1
  Fe  Fe98  1  0.01966419  0.16542793  0.10981988  1
  Fe  Fe99  1  0.31083089  0.83896809  0.89089127  1
  Fe  Fe100  1  0.81175067  0.91528083  0.39086395  1
  Fe  Fe101  1  0.02507600  0.67141312  0.10648873  1
  Fe  Fe102  1  0.31255851  0.15686196  0.89360786  1
  Fe  Fe103  1  0.64366425  0.67322391  0.39198191  1
  Fe  Fe104  1  0.13931664  0.41758894  0.88923301  1
  Fe  Fe105  1  0.85688954  0.91689576  0.60646877  1
  Fe  Fe106  1  0.68907207  0.82799015  0.10904210  1
  Fe  Fe107  1  0.31198332  0.32870338  0.89348982  1
  Fe  Fe108  1  0.13770807  0.91298949  0.38987678  1
  Fe  Fe109  1  0.80661277  0.08296809  0.88864983  1
  Fe  Fe110  1  0.81650972  0.08538228  0.39440332  1
  Fe  Fe111  1  0.98534638  0.33924408  0.39183799  1
  Fe  Fe112  1  0.36557664  0.66445580  0.10806471  1
  Si  Si113  1  0.46962523  0.08593512  0.38577964  1
  Si  Si114  1  0.46894728  0.92036432  0.38519453  1
  Si  Si115  1  0.69222555  0.65855385  0.11233340  1
  Si  Si116  1  0.97773584  0.65817215  0.38300019  1
  Si  Si117  1  0.96922203  0.82543611  0.88238475  1
  Si  Si118  1  0.96775315  0.33898970  0.88582965  1
  Si  Si119  1  0.01559733  0.33272011  0.10882973  1
  Si  Si120  1  0.02768911  0.17080074  0.61530124  1
  Si  Si121  1  0.19360052  0.08557469  0.11393667  1
  Si  Si122  1  0.52527127  0.91698681  0.61324901  1
  Si  Si123  1  0.97307092  0.66256846  0.88464969  1
  Si  Si124  1  0.52593584  0.08420257  0.61357740  1
  Si  Si125  1  0.19182093  0.92019874  0.11414724  1
  Si  Si126  1  0.19492357  0.41709961  0.61288431  1
  Si  Si127  1  0.68952928  0.33785581  0.61281897  1
  Si  Si128  1  0.35937280  0.33140837  0.61538602  1
  Si  Si129  1  0.02663324  0.33618923  0.61320196  1
  Si  Si130  1  0.52199263  0.41695210  0.61448436  1
  Si  Si131  1  0.14584257  0.58836646  0.88673977  1
  Si  Si132  1  0.81089136  0.58004339  0.38804041  1
  Si  Si133  1  0.97281635  0.17438608  0.88548573  1
  Si  Si134  1  0.30874896  0.83123941  0.38570604  1
  Si  Si135  1  0.52920864  0.41125341  0.11730308  1
  Si  Si136  1  0.19250569  0.58256951  0.61296628  1
  Si  Si137  1  0.19166297  0.08409421  0.61513073  1
  Si  Si138  1  0.98366670  0.17131676  0.39099030  1
  Si  Si139  1  0.35695236  0.83751262  0.11303144  1
  Si  Si140  1  0.19346384  0.91788149  0.61385818  1
  Si  Si141  1  0.85978683  0.41645964  0.61260798  1
  Si  Si142  1  0.14963357  0.42567657  0.38726373  1
  Si  Si143  1  0.52167418  0.58269679  0.61489990  1
  Si  Si144  1  0.47564314  0.42137801  0.88954001  1
  Si  Si145  1  0.52468181  0.08724867  0.11637774  1
  Si  Si146  1  0.69021095  0.66248992  0.61450476  1
  Si  Si147  1  0.80946033  0.91246586  0.88686476  1
  Si  Si148  1  0.86033819  0.58532572  0.61197035  1
  Si  Si149  1  0.68746659  0.82864859  0.61025755  1
  Si  Si150  1  0.85617671  0.41754017  0.11496779  1
  Si  Si151  1  0.69136319  0.16659767  0.11728223  1
  Si  Si152  1  0.30350515  0.16874491  0.38520531  1
  Si  Si153  1  0.85862110  0.91581847  0.11415583  1
  Si  Si154  1  0.63727840  0.84414711  0.38895076  1
  Si  Si155  1  0.53276765  0.57531276  0.11235552  1
  Si  Si156  1  0.19342430  0.58414212  0.10914409  1
  Si  Si157  1  0.13370808  0.08221801  0.88850994  1
  Si  Si158  1  0.14315686  0.08245795  0.38928825  1
  Si  Si159  1  0.02260434  0.84135483  0.11090777  1
  Si  Si160  1  0.69566926  0.33137026  0.11766953  1
  Si  Si161  1  0.03258880  0.82866590  0.61030889  1
  Si  Si162  1  0.36021251  0.16749960  0.11747894  1
  Si  Si163  1  0.30894301  0.33240047  0.38537203  1
  Si  Si164  1  0.47978203  0.07783608  0.88646529  1
  Si  Si165  1  0.85352242  0.07933825  0.11462338  1
  Si  Si166  1  0.52312228  0.92187080  0.11267152  1
  Si  Si167  1  0.80030029  0.41479733  0.88376990  1
  Si  Si168  1  0.97015458  0.82230459  0.38764945  1
  Si  Si169  1  0.48447440  0.91822713  0.88591415  1
  Si  Si170  1  0.63589946  0.16900495  0.88708892  1
  Si  Si171  1  0.68923378  0.17244924  0.61311861  1
  Si  Si172  1  0.47661056  0.41060488  0.38951741  1
  Si  Si173  1  0.64114635  0.32955653  0.38758316  1
  Si  Si174  1  0.80671751  0.41295723  0.38941546  1
  Si  Si175  1  0.30483853  0.66788221  0.38488246  1
  Si  Si176  1  0.85801953  0.58021155  0.11188672  1
  Si  Si177  1  0.35941849  0.67041429  0.61339333  1
  Si  Si178  1  0.35965700  0.83541284  0.61289877  1
  Si  Si179  1  0.63886408  0.16344411  0.39056575  1
  Si  Si180  1  0.63685500  0.33528537  0.88509346  1
  Si  Si181  1  0.85784423  0.09139728  0.61128673  1
  Si  Si182  1  0.64314654  0.66588550  0.88536072  1
  Si  Si183  1  0.13459773  0.91482667  0.88742151  1
  Si  Si184  1  0.14588304  0.58644082  0.38178970  1
  Si  Si185  1  0.64405210  0.82962523  0.88370809  1
  Si  Si186  1  0.36253869  0.33215026  0.11428515  1
  Si  Si187  1  0.31262343  0.66951912  0.88675217  1
  Si  Si188  1  0.80667807  0.58277094  0.88426705  1
  Si  Si189  1  0.35967193  0.16483364  0.61468362  1
  Si  Si190  1  0.47957513  0.58525212  0.88618872  1
  Si  Si191  1  0.02807379  0.66340697  0.61088583  1
  O  O192  1  0.28077280  0.11468444  0.08895351  1
  O  O193  1  0.26969864  0.12354608  0.58473814  1
  O  O194  1  0.28063888  0.59752974  0.08001563  1
  O  O195  1  0.26981295  0.62719496  0.58608468  1
  O  O196  1  0.60476870  0.12233723  0.08669704  1
  O  O197  1  0.60235850  0.12597289  0.58374441  1
  O  O198  1  0.62368700  0.59309366  0.08823528  1
  O  O199  1  0.60313549  0.61641113  0.58623779  1
  O  O200  1  0.92878719  0.10262513  0.07664174  1
  O  O201  1  0.93597213  0.13467555  0.58449285  1
  O  O202  1  0.93690653  0.60389060  0.07780480  1
  O  O203  1  0.93628348  0.62407201  0.57878789  1
  O  O204  1  0.09620034  0.35374207  0.07502839  1
  O  O205  1  0.10273193  0.37883029  0.58380633  1
  O  O206  1  0.10741032  0.87297208  0.08425838  1
  O  O207  1  0.11197710  0.86977375  0.58079780  1
  O  O208  1  0.45257568  0.35552033  0.08970220  1
  O  O209  1  0.43606270  0.37057287  0.58283927  1
  O  O210  1  0.43456033  0.87877702  0.08495213  1
  O  O211  1  0.43490240  0.87783492  0.58258059  1
  O  O212  1  0.77553618  0.36348530  0.08678652  1
  O  O213  1  0.76889114  0.37484659  0.58309049  1
  O  O214  1  0.78858709  0.85872360  0.07894092  1
  O  O215  1  0.75698701  0.86425944  0.57261801  1
  O  O216  1  0.28941606  0.38540308  0.08019529  1
  O  O217  1  0.26930937  0.37183147  0.58307773  1
  O  O218  1  0.27211461  0.88637129  0.08549751  1
  O  O219  1  0.27409950  0.88216260  0.58478355  1
  O  O220  1  0.61265470  0.38072846  0.08858897  1
  O  O221  1  0.60163143  0.38166324  0.58355607  1
  O  O222  1  0.59719624  0.89011652  0.07668768  1
  O  O223  1  0.59703046  0.87239516  0.58281110  1
  O  O224  1  0.93769467  0.39293157  0.08346307  1
  O  O225  1  0.93629596  0.37637002  0.58092667  1
  O  O226  1  0.94838700  0.90230155  0.08683833  1
  O  O227  1  0.94784904  0.87053763  0.57643642  1
  O  O228  1  0.11585776  0.13354410  0.07620728  1
  O  O229  1  0.10364615  0.12786352  0.58585476  1
  O  O230  1  0.12710168  0.64858768  0.08002510  1
  O  O231  1  0.10159289  0.61915062  0.57811704  1
  O  O232  1  0.44259266  0.13708670  0.08730800  1
  O  O233  1  0.43632606  0.12501325  0.58221447  1
  O  O234  1  0.46263474  0.63054394  0.07589222  1
  O  O235  1  0.43541657  0.62881173  0.58258148  1
  O  O236  1  0.76925717  0.13056244  0.08741046  1
  O  O237  1  0.77038251  0.13983729  0.58476716  1
  O  O238  1  0.77794494  0.63367445  0.08385750  1
  O  O239  1  0.76826189  0.62447529  0.58287314  1
  O  O240  1  0.05934149  0.11146946  0.41715983  1
  O  O241  1  0.05388727  0.12304490  0.91380250  1
  O  O242  1  0.05924770  0.60603267  0.41073700  1
  O  O243  1  0.06251602  0.62191426  0.91436602  1
  O  O244  1  0.38909622  0.12100242  0.41527924  1
  O  O245  1  0.39904892  0.08687173  0.92159046  1
  O  O246  1  0.37103440  0.60944360  0.42138092  1
  O  O247  1  0.39346037  0.61307026  0.91150106  1
  O  O248  1  0.71467572  0.11309976  0.42554738  1
  O  O249  1  0.71335478  0.12029439  0.92316190  1
  O  O250  1  0.74011087  0.61550936  0.42419766  1
  O  O251  1  0.72767852  0.61801791  0.91709423  1
  O  O252  1  0.23273158  0.37335393  0.41484125  1
  O  O253  1  0.21671459  0.35099770  0.92848206  1
  O  O254  1  0.23190007  0.85402091  0.42263849  1
  O  O255  1  0.21943939  0.87650164  0.92729991  1
  O  O256  1  0.55743037  0.35591097  0.41620762  1
  O  O257  1  0.55999655  0.37064790  0.91705471  1
  O  O258  1  0.54911394  0.87003459  0.41585164  1
  O  O259  1  0.56236928  0.86130297  0.91232767  1
  O  O260  1  0.88435170  0.36346550  0.42399887  1
  O  O261  1  0.87898571  0.36092047  0.91267682  1
  O  O262  1  0.88296890  0.83510558  0.41517599  1
  O  O263  1  0.88967818  0.85902704  0.91433631  1
  O  O264  1  0.07383704  0.40379877  0.42646466  1
  O  O265  1  0.03609533  0.39696917  0.91808283  1
  O  O266  1  0.04524953  0.87510822  0.42347407  1
  O  O267  1  0.05359861  0.87351940  0.91157651  1
  O  O268  1  0.39731080  0.37310879  0.41903653  1
  O  O269  1  0.40020942  0.39660652  0.92595097  1
  O  O270  1  0.38821968  0.88650356  0.41412027  1
  O  O271  1  0.40576583  0.89938769  0.92164137  1
  O  O272  1  0.72042074  0.38323061  0.41599993  1
  O  O273  1  0.72030355  0.38340518  0.91631337  1
  O  O274  1  0.70479021  0.90658023  0.41556318  1
  O  O275  1  0.72671761  0.87778155  0.91447451  1
  O  O276  1  0.22463030  0.13640992  0.41743746  1
  O  O277  1  0.21874261  0.11886378  0.92733338  1
  O  O278  1  0.21368853  0.65032132  0.41007115  1
  O  O279  1  0.22785598  0.64076084  0.91458351  1
  O  O280  1  0.55116755  0.13710399  0.41721812  1
  O  O281  1  0.54998843  0.14105818  0.91301952  1
  O  O282  1  0.55859074  0.63922983  0.43428131  1
  O  O283  1  0.56255662  0.63536598  0.91785421  1
  O  O284  1  0.90080458  0.15470180  0.42385323  1
  O  O285  1  0.89396507  0.14791793  0.91865255  1
  O  O286  1  0.90100221  0.62224743  0.41514110  1
  O  O287  1  0.89614979  0.62327881  0.91705519  1
  O  O288  1  0.17939507  0.00203703  0.08425578  1
  O  O289  1  0.18303062  0.00144776  0.58442164  1
  O  O290  1  0.15305828  0.50730984  0.08142248  1
  O  O291  1  0.19345535  0.49961710  0.58200723  1
  O  O292  1  0.50681488  0.00623782  0.08648800  1
  O  O293  1  0.52079647  0.00083201  0.58483594  1
  O  O294  1  0.50923705  0.49161131  0.08596468  1
  O  O295  1  0.50777057  0.49952060  0.58520279  1
  O  O296  1  0.82386215  -0.00290846  0.09013548  1
  O  O297  1  0.84396173  0.01415388  0.57609804  1
  O  O298  1  0.82660021  0.49796655  0.08614251  1
  O  O299  1  0.85228011  0.50036631  0.58457510  1
  O  O300  1  -0.02228488  0.25576523  0.07875155  1
  O  O301  1  0.02404222  0.25322707  0.58395461  1
  O  O302  1  -0.00558518  0.76575003  0.07459339  1
  O  O303  1  0.02755132  0.74492685  0.57909739  1
  O  O304  1  0.34265914  0.24895603  0.08701727  1
  O  O305  1  0.35240458  0.24801947  0.58493353  1
  O  O306  1  0.34212182  0.75988224  0.07778968  1
  O  O307  1  0.34973356  0.75329864  0.58130567  1
  O  O308  1  0.67827689  0.24945935  0.08758208  1
  O  O309  1  0.67474219  0.25498977  0.58287209  1
  O  O310  1  0.65947161  0.73366149  0.07701355  1
  O  O311  1  0.67241771  0.74423628  0.58360265  1
  O  O312  1  0.16758413  0.00550437  0.42476559  1
  O  O313  1  0.12907063  -0.00165738  0.91473149  1
  O  O314  1  0.18103771  0.50854818  0.41332096  1
  O  O315  1  0.16775404  0.51138833  0.92140854  1
  O  O316  1  0.48229766  0.00312580  0.41603339  1
  O  O317  1  0.52450000  -0.00130035  0.90783579  1
  O  O318  1  0.49740674  0.48626660  0.42667340  1
  O  O319  1  0.50350639  0.50402929  0.91601757  1
  O  O320  1  0.85965581  -0.00095989  0.42865767  1
  O  O321  1  0.82891860  -0.01044767  0.92319628  1
  O  O322  1  0.82450065  0.49624251  0.41595732  1
  O  O323  1  0.81626285  0.49803754  0.91167277  1
  O  O324  1  0.31855808  0.25033937  0.41802673  1
  O  O325  1  0.35158320  0.24239369  0.93278668  1
  O  O326  1  0.33731186  0.74902303  0.41171103  1
  O  O327  1  0.34040361  0.74562195  0.92302912  1
  O  O328  1  0.65956099  0.24767692  0.41702194  1
  O  O329  1  0.65134030  0.25298655  0.91450162  1
  O  O330  1  0.66588713  0.76776840  0.42405297  1
  O  O331  1  0.66210166  0.74836356  0.91451284  1
  O  O332  1  1.02363301  0.24775931  0.42060907  1
  O  O333  1  0.99526517  0.25711018  0.91242536  1
  O  O334  1  1.00142719  0.73873065  0.41200371  1
  O  O335  1  0.98288028  0.74439917  0.91601764  1
  O  O336  1  0.20492165  0.08378030  0.19400658  1
  O  O337  1  0.21045080  0.08340499  0.69495668  1
  O  O338  1  0.21178333  0.58466301  0.19177857  1
  O  O339  1  0.20202794  0.58222076  0.69198891  1
  O  O340  1  0.54411115  0.08639720  0.19689912  1
  O  O341  1  0.54320686  0.08451038  0.69390786  1
  O  O342  1  0.54603046  0.57739275  0.19317609  1
  O  O343  1  0.53564155  0.58295970  0.69411570  1
  O  O344  1  0.87609664  0.08369604  0.19536278  1
  O  O345  1  0.87615848  0.08950407  0.69193383  1
  O  O346  1  0.87589446  0.58095431  0.19319188  1
  O  O347  1  0.88182267  0.59024077  0.69074035  1
  O  O348  1  0.03563696  0.33404204  0.18963190  1
  O  O349  1  0.04073406  0.33462318  0.69297651  1
  O  O350  1  0.04148142  0.83442675  0.19182705  1
  O  O351  1  0.05350405  0.82760924  0.68923759  1
  O  O352  1  0.37982378  0.33216499  0.19557773  1
  O  O353  1  0.37899336  0.33351307  0.69439315  1
  O  O354  1  0.37570253  0.83613452  0.19430501  1
  O  O355  1  0.38016512  0.83542393  0.69302400  1
  O  O356  1  0.71210379  0.33152810  0.19815220  1
  O  O357  1  0.70713169  0.33443272  0.69296552  1
  O  O358  1  0.70818554  0.83018602  0.20047718  1
  O  O359  1  0.70532540  0.83147780  0.69120664  1
  O  O360  1  0.21235240  0.41585083  0.20014000  1
  O  O361  1  0.21181320  0.41712492  0.69227800  1
  O  O362  1  0.21000884  0.91836944  0.19450617  1
  O  O363  1  0.21056565  0.91917654  0.69381027  1
  O  O364  1  0.54707563  0.41321177  0.19812250  1
  O  O365  1  0.54019157  0.41342196  0.69444291  1
  O  O366  1  0.54208755  0.91908222  0.19380322  1
  O  O367  1  0.54276985  0.91691188  0.69370646  1
  O  O368  1  0.87315354  0.41681685  0.19543199  1
  O  O369  1  0.87954075  0.41062059  0.69163300  1
  O  O370  1  0.87763087  0.91401880  0.19508467  1
  O  O371  1  0.86317118  0.91887036  0.69604709  1
  O  O372  1  0.04327838  0.16596845  0.20158170  1
  O  O373  1  0.04325384  0.17019010  0.69552348  1
  O  O374  1  0.04379356  0.66791503  0.19838239  1
  O  O375  1  0.04669629  0.66173699  0.69033716  1
  O  O376  1  0.38035007  0.16941953  0.19721866  1
  O  O377  1  0.38129682  0.16112234  0.69369726  1
  O  O378  1  0.38030450  0.66834474  0.19978729  1
  O  O379  1  0.38168078  0.67533390  0.69247174  1
  O  O380  1  0.70792885  0.16785522  0.19748371  1
  O  O381  1  0.70469713  0.17118898  0.69325797  1
  O  O382  1  0.71159339  0.66222286  0.19337363  1
  O  O383  1  0.71060722  0.66575168  0.69373975  1
  O  O384  1  0.12610364  0.08237957  0.30860139  1
  O  O385  1  0.12225449  0.08510357  0.80734114  1
  O  O386  1  0.12630738  0.58392219  0.30159673  1
  O  O387  1  0.12607789  0.58603652  0.80556919  1
  O  O388  1  0.45833199  0.08395398  0.30644558  1
  O  O389  1  0.45927183  0.08177499  0.80493483  1
  O  O390  1  0.45737028  0.58140132  0.30048920  1
  O  O391  1  0.46797128  0.58451226  0.80684821  1
  O  O392  1  0.78911772  0.08366580  0.30147644  1
  O  O393  1  0.78516811  0.08485555  0.79660238  1
  O  O394  1  0.79153669  0.58080830  0.30676845  1
  O  O395  1  0.78670497  0.59100278  0.80601621  1
  O  O396  1  0.29840305  0.33124399  0.30643483  1
  O  O397  1  0.28882350  0.33254725  0.80178125  1
  O  O398  1  0.29037099  0.83420909  0.30477874  1
  O  O399  1  0.29076961  0.83513841  0.79892635  1
  O  O400  1  0.62427238  0.33090270  0.30689881  1
  O  O401  1  0.62009566  0.33405258  0.80453848  1
  O  O402  1  0.61830717  0.83705336  0.30743622  1
  O  O403  1  0.62532797  0.83184934  0.80293037  1
  O  O404  1  0.95830631  0.33560688  0.30026128  1
  O  O405  1  0.95172148  0.33648896  0.80439326  1
  O  O406  1  0.95723920  0.82856004  0.30595751  1
  O  O407  1  0.94945526  0.82414838  0.80374660  1
  O  O408  1  0.12325856  0.42385625  0.30782717  1
  O  O409  1  0.12084114  0.41566942  0.79682660  1
  O  O410  1  0.12084366  0.91613893  0.29849068  1
  O  O411  1  0.13204857  0.91647122  0.80805888  1
  O  O412  1  0.45910158  0.41372282  0.30856683  1
  O  O413  1  0.45789077  0.41711696  0.80861040  1
  O  O414  1  0.45404558  0.91993704  0.30476279  1
  O  O415  1  0.46078739  0.91581436  0.80443924  1
  O  O416  1  0.79024136  0.41351209  0.30819323  1
  O  O417  1  0.78061726  0.41049110  0.80434664  1
  O  O418  1  0.78918271  0.91727039  0.29852557  1
  O  O419  1  0.78789003  0.91598551  0.80603136  1
  O  O420  1  0.28722575  0.16973405  0.30595664  1
  O  O421  1  0.28821380  0.16334217  0.80195672  1
  O  O422  1  0.28859067  0.66726080  0.30401536  1
  O  O423  1  0.28972378  0.67391535  0.80684516  1
  O  O424  1  0.62235979  0.16521294  0.30937020  1
  O  O425  1  0.62205894  0.16770068  0.80569209  1
  O  O426  1  0.62175986  0.66638042  0.29919584  1
  O  O427  1  0.62221358  0.66885094  0.80572843  1
  O  O428  1  0.95965179  0.16770453  0.30949552  1
  O  O429  1  0.95478946  0.17199581  0.80414427  1
  O  O430  1  0.95539243  0.66127167  0.30279215  1
  O  O431  1  0.95320397  0.66149203  0.80510593  1
  F  F432  1  0.04403626  0.00219248  0.20250413  1
  F  F433  1  0.05056291  0.01194630  0.69895101  1
  F  F434  1  0.04497384  0.49932515  0.20078047  1
  F  F435  1  0.04443345  0.50172595  0.69789260  1
  F  F436  1  0.37926555  -0.00165996  0.19986559  1
  F  F437  1  0.37992587  -0.00022426  0.70172206  1
  F  F438  1  0.38156021  0.49474810  0.20226029  1
  F  F439  1  0.38368605  0.48849159  0.69968781  1
  F  F440  1  0.70730657  0.00181870  0.19978585  1
  F  F441  1  0.70596410  0.00055320  0.69770555  1
  F  F442  1  0.71321264  0.49681373  0.20595027  1
  F  F443  1  0.69542371  0.49504275  0.69068321  1
  F  F444  1  0.21514912  0.24580932  0.19798695  1
  F  F445  1  0.19965462  0.25009985  0.69624852  1
  F  F446  1  0.21296479  0.75319701  0.20128434  1
  F  F447  1  0.21486521  0.74826683  0.69830280  1
  F  F448  1  0.54756307  0.24892718  0.20557896  1
  F  F449  1  0.54396364  0.24991679  0.70119951  1
  F  F450  1  0.54316061  0.75262128  0.20166579  1
  F  F451  1  0.54592421  0.75024092  0.70056011  1
  F  F452  1  0.87524597  0.24746575  0.20437901  1
  F  F453  1  0.87588209  0.25176040  0.70102063  1
  F  F454  1  0.87773953  0.74817788  0.20257214  1
  F  F455  1  0.86921756  0.74808119  0.69525109  1
  F  F456  1  0.28678225  -0.00210066  0.29981252  1
  F  F457  1  0.28894331  0.00026294  0.79665595  1
  F  F458  1  0.29102901  0.50175152  0.29720703  1
  F  F459  1  0.28383317  0.49121346  0.80112515  1
  F  F460  1  0.61731153  0.00049843  0.29667073  1
  F  F461  1  0.62215769  -0.00098460  0.79484577  1
  F  F462  1  0.62295922  0.49749284  0.30037299  1
  F  F463  1  0.61850428  0.49481544  0.79995613  1
  F  F464  1  0.95490059  -0.00027394  0.29694767  1
  F  F465  1  0.94907565  0.01258144  0.80031315  1
  F  F466  1  0.95574148  0.50047256  0.29633102  1
  F  F467  1  0.96394671  0.50206834  0.79830227  1
  F  F468  1  0.12468261  0.25148632  0.29755182  1
  F  F469  1  0.11828223  0.25095592  0.79813050  1
  F  F470  1  0.12250266  0.75146671  0.29615230  1
  F  F471  1  0.12556300  0.74915628  0.79775289  1
  F  F472  1  0.45559310  0.24970266  0.30082056  1
  F  F473  1  0.46086884  0.24971898  0.80055688  1
  F  F474  1  0.45531667  0.75423909  0.29891775  1
  F  F475  1  0.45766105  0.75130469  0.79763621  1
  F  F476  1  0.78793747  0.24985862  0.30124735  1
  F  F477  1  0.78483081  0.25140349  0.79601848  1
  F  F478  1  0.78823835  0.74429745  0.29795932  1
  F  F479  1  0.78596460  0.75103652  0.79606379  1
