# generated using pymatgen
data_K24Na3Li5Mg64Fe17Si79(O5F)48
_symmetry_space_group_name_H-M   'P 1'
_cell_length_a   16.08324588
_cell_length_b   18.57743514
_cell_length_c   20.54627251
_cell_angle_alpha   89.99115368
_cell_angle_beta   100.01047005
_cell_angle_gamma   90.00871029
_symmetry_Int_Tables_number   1
_chemical_formula_structural   K24Na3Li5Mg64Fe17Si79(O5F)48
_chemical_formula_sum   'K24 Na3 Li5 Mg64 Fe17 Si79 O240 F48'
_cell_volume   6045.46830499
_cell_formula_units_Z   1
loop_
 _symmetry_equiv_pos_site_id
 _symmetry_equiv_pos_as_xyz
  1  'x, y, z'
loop_
 _atom_site_type_symbol
 _atom_site_label
 _atom_site_symmetry_multiplicity
 _atom_site_fract_x
 _atom_site_fract_y
 _atom_site_fract_z
 _atom_site_occupancy
  K  K0  1  0.00269658  0.00296367  -0.00127506  1
  K  K1  1  -0.00458951  0.00370110  0.49575895  1
  K  K2  1  -0.01544703  0.51624650  0.00410848  1
  K  K3  1  -0.01344648  0.50014299  0.48611373  1
  K  K4  1  0.32387410  -0.01333599  -0.00219759  1
  K  K5  1  0.33469472  0.00173476  0.49341089  1
  K  K6  1  0.33851685  0.50060179  0.00081826  1
  K  K7  1  0.33775368  0.50228979  0.50085473  1
  K  K8  1  0.67592414  -0.00254238  0.00535566  1
  K  K9  1  0.67689571  0.00059617  0.49646669  1
  K  K10  1  0.67219667  0.50225431  0.00194943  1
  K  K11  1  0.66748883  0.50393303  0.49528197  1
  K  K12  1  0.16408932  0.24280549  0.00337952  1
  K  K13  1  0.15790368  0.24852820  0.49444864  1
  K  K14  1  0.16215475  0.75625623  0.00190670  1
  K  K15  1  0.16002085  0.74895250  0.49703710  1
  K  K16  1  0.51082022  0.23834460  -0.00621296  1
  K  K17  1  0.50323092  0.24607275  0.50148230  1
  K  K18  1  0.50936139  0.75656593  0.00250517  1
  K  K19  1  0.49817108  0.74722761  0.49943724  1
  K  K20  1  0.82449415  0.24904580  0.00133736  1
  K  K21  1  0.83080939  0.24541078  0.49278545  1
  K  K22  1  0.83288016  0.74414115  0.00570739  1
  K  K23  1  0.83410722  0.75360001  0.49200366  1
  Na  Na24  1  0.33903783  0.24773330  0.75156736  1
  Na  Na25  1  0.49874245  0.16942880  0.75157575  1
  Na  Na26  1  -0.00054051  0.91853933  0.75102218  1
  Li  Li27  1  0.33236015  0.74868595  0.75196714  1
  Li  Li28  1  0.66663339  0.75415357  0.24408768  1
  Li  Li29  1  0.83598397  0.33372114  0.25819150  1
  Li  Li30  1  0.00398874  0.08410092  0.25433470  1
  Li  Li31  1  0.33657584  0.91657691  0.24872510  1
  Mg  Mg32  1  0.00173467  0.25110434  0.74864203  1
  Mg  Mg33  1  0.49823306  0.50153043  0.25317434  1
  Mg  Mg34  1  0.16280081  0.50029517  0.25441452  1
  Mg  Mg35  1  0.17024787  0.00141208  0.25355283  1
  Mg  Mg36  1  0.66614105  0.24747529  0.74841688  1
  Mg  Mg37  1  0.17062707  0.50075555  0.75049592  1
  Mg  Mg38  1  0.66450525  0.74882147  0.74801271  1
  Mg  Mg39  1  0.83481343  0.00142229  0.74815728  1
  Mg  Mg40  1  0.33310268  0.24951870  0.25167057  1
  Mg  Mg41  1  0.49955879  -0.00248239  0.24326372  1
  Mg  Mg42  1  0.83304882  0.50167388  0.75272169  1
  Mg  Mg43  1  0.49677067  0.00002067  0.74724813  1
  Mg  Mg44  1  0.00018768  0.75103297  0.25065705  1
  Mg  Mg45  1  -0.00048526  0.74985520  0.75333687  1
  Mg  Mg46  1  0.66922890  0.25026768  0.24830600  1
  Mg  Mg47  1  0.16406259  -0.00055686  0.75030574  1
  Mg  Mg48  1  0.83123614  0.49768712  0.25437825  1
  Mg  Mg49  1  0.33417249  0.75182833  0.25080841  1
  Mg  Mg50  1  -0.00149436  0.24792560  0.25589074  1
  Mg  Mg51  1  0.83654023  0.00301604  0.24643362  1
  Mg  Mg52  1  0.50093105  0.50298701  0.74957904  1
  Mg  Mg53  1  0.83360991  0.16363275  0.74815375  1
  Mg  Mg54  1  0.66489590  0.91478556  0.24366116  1
  Mg  Mg55  1  0.66622135  0.58520009  0.75087364  1
  Mg  Mg56  1  0.66672091  0.08304582  0.74756879  1
  Mg  Mg57  1  0.83458358  0.33429705  0.75040649  1
  Mg  Mg58  1  0.33152093  0.41655814  0.25396760  1
  Mg  Mg59  1  0.49583986  0.83261842  0.74738581  1
  Mg  Mg60  1  0.32998161  0.91251502  0.75074855  1
  Mg  Mg61  1  0.83352614  0.16904625  0.24849898  1
  Mg  Mg62  1  0.66735505  0.91608644  0.74791308  1
  Mg  Mg63  1  0.16771812  0.16655480  0.74834222  1
  Mg  Mg64  1  0.83509365  0.83391349  0.74957623  1
  Mg  Mg65  1  0.49708950  0.66619685  0.74973115  1
  Mg  Mg66  1  0.50106691  0.83406052  0.24531771  1
  Mg  Mg67  1  0.00274982  0.41755972  0.75028839  1
  Mg  Mg68  1  0.83440684  0.66520855  0.75129164  1
  Mg  Mg69  1  0.17053173  0.83679675  0.25125579  1
  Mg  Mg70  1  0.16491126  0.66705987  0.25361543  1
  Mg  Mg71  1  0.66642781  0.58724052  0.25371942  1
  Mg  Mg72  1  0.66685998  0.41538664  0.74928784  1
  Mg  Mg73  1  0.33845500  0.41583558  0.75067581  1
  Mg  Mg74  1  0.00286990  0.92060214  0.25112095  1
  Mg  Mg75  1  0.16747446  0.83178774  0.75175491  1
  Mg  Mg76  1  0.33210725  0.08191825  0.74820679  1
  Mg  Mg77  1  0.50012450  0.16411545  0.24506198  1
  Mg  Mg78  1  0.33498884  0.08149224  0.25065138  1
  Mg  Mg79  1  -0.00092397  0.08542136  0.74972646  1
  Mg  Mg80  1  0.33276007  0.58454339  0.25276232  1
  Mg  Mg81  1  0.33614269  0.58729721  0.74947536  1
  Mg  Mg82  1  0.66776499  0.41524635  0.25105685  1
  Mg  Mg83  1  -0.00198356  0.58622937  0.25253954  1
  Mg  Mg84  1  0.16662352  0.16484054  0.25379784  1
  Mg  Mg85  1  0.66432625  0.08398878  0.24319282  1
  Mg  Mg86  1  0.00176158  0.58492628  0.75240871  1
  Mg  Mg87  1  0.50004682  0.33391224  0.25171740  1
  Mg  Mg88  1  0.83072363  0.66838903  0.25095975  1
  Mg  Mg89  1  0.50096839  0.66776116  0.25234679  1
  Mg  Mg90  1  -0.00212718  0.41411246  0.25705577  1
  Mg  Mg91  1  0.50186132  0.33354390  0.75049910  1
  Mg  Mg92  1  0.83161345  0.83451403  0.24778519  1
  Mg  Mg93  1  0.16467223  0.33416158  0.25506938  1
  Mg  Mg94  1  0.17015441  0.66688943  0.75155763  1
  Mg  Mg95  1  0.17108828  0.33348830  0.74890989  1
  Fe  Fe96  1  0.69263811  0.16904694  0.10548698  1
  Fe  Fe97  1  0.02470363  0.67265071  0.11186849  1
  Fe  Fe98  1  0.69811489  0.83149568  0.10536679  1
  Fe  Fe99  1  0.97617136  0.66595113  0.89163680  1
  Fe  Fe100  1  0.51748201  0.91263994  0.10197214  1
  Fe  Fe101  1  0.97275191  0.66941952  0.39113200  1
  Fe  Fe102  1  0.47484388  0.58312658  0.39195051  1
  Fe  Fe103  1  0.14691160  0.08505422  0.39277268  1
  Fe  Fe104  1  0.81235366  0.08255506  0.88891563  1
  Fe  Fe105  1  0.80065538  0.41416151  0.39163564  1
  Fe  Fe106  1  0.14571922  0.41508668  0.39482640  1
  Fe  Fe107  1  0.85900096  0.08198806  0.60540921  1
  Fe  Fe108  1  0.51728689  0.08348309  0.10265897  1
  Fe  Fe109  1  0.47126099  0.58465438  0.89111826  1
  Fe  Fe110  1  0.52338415  0.58379107  0.60857128  1
  Fe  Fe111  1  0.14088978  0.91811868  0.89059974  1
  Fe  Fe112  1  0.79957595  0.58271553  0.89163672  1
  Si  Si113  1  0.63920857  0.16054371  0.88443263  1
  Si  Si114  1  0.30430029  0.66781350  0.38795606  1
  Si  Si115  1  0.30216577  0.66372992  0.88774574  1
  Si  Si116  1  0.51956075  0.41963281  0.11624220  1
  Si  Si117  1  0.46904736  0.07865498  0.88329963  1
  Si  Si118  1  0.63381784  0.67365677  0.88730405  1
  Si  Si119  1  0.35543452  0.15995555  0.61197386  1
  Si  Si120  1  0.80981851  0.41011075  0.88829476  1
  Si  Si121  1  0.97410523  0.33008194  0.39419712  1
  Si  Si122  1  0.80897355  0.92070446  0.38270838  1
  Si  Si123  1  0.68684375  0.16782192  0.60874500  1
  Si  Si124  1  0.85954350  0.41269650  0.11954186  1
  Si  Si125  1  0.64225522  0.32658289  0.88398016  1
  Si  Si126  1  0.69293968  0.33423522  0.61408258  1
  Si  Si127  1  0.02945805  0.33872493  0.61463045  1
  Si  Si128  1  0.97220313  0.16451372  0.38870377  1
  Si  Si129  1  0.19766161  0.08448970  0.11601984  1
  Si  Si130  1  0.18669848  0.91712163  0.61273885  1
  Si  Si131  1  0.64374942  0.83738588  0.38301744  1
  Si  Si132  1  0.31286520  0.33063522  0.38887684  1
  Si  Si133  1  0.03004231  0.66167625  0.61443175  1
  Si  Si134  1  0.52121848  0.58426847  0.11696859  1
  Si  Si135  1  0.35499947  0.66287127  0.11681835  1
  Si  Si136  1  0.19036359  0.08264358  0.61310573  1
  Si  Si137  1  0.52322059  0.91604267  0.61077193  1
  Si  Si138  1  0.18687703  0.41752277  0.11739145  1
  Si  Si139  1  0.35444377  0.82458358  0.11286179  1
  Si  Si140  1  0.02387553  0.32933179  0.11750306  1
  Si  Si141  1  0.85661176  0.91016287  0.61000046  1
  Si  Si142  1  0.63297626  0.32718743  0.38811125  1
  Si  Si143  1  0.30868441  0.82935798  0.88722340  1
  Si  Si144  1  0.35290688  0.33803008  0.11675267  1
  Si  Si145  1  0.03221717  0.16572287  0.11818157  1
  Si  Si146  1  0.35577396  0.17438318  0.11230303  1
  Si  Si147  1  0.47567153  0.07927702  0.38396279  1
  Si  Si148  1  0.69629197  0.66546248  0.61110101  1
  Si  Si149  1  0.86622524  0.92238681  0.11285500  1
  Si  Si150  1  0.36128095  0.32796999  0.61428830  1
  Si  Si151  1  0.14958471  0.91612452  0.38952505  1
  Si  Si152  1  0.02615734  0.82569165  0.61466776  1
  Si  Si153  1  0.14414707  0.08928468  0.88776493  1
  Si  Si154  1  0.80163795  0.58729569  0.39195089  1
  Si  Si155  1  0.31181774  0.83109060  0.38520864  1
  Si  Si156  1  0.97914175  0.17373050  0.88660578  1
  Si  Si157  1  0.19237618  0.58177515  0.11559468  1
  Si  Si158  1  0.85669916  0.57702555  0.11640461  1
  Si  Si159  1  0.35587066  0.67317720  0.61145772  1
  Si  Si160  1  0.52285854  0.41240790  0.61214162  1
  Si  Si161  1  0.47316345  0.91462418  0.88361526  1
  Si  Si162  1  0.02883050  0.17221205  0.61160199  1
  Si  Si163  1  0.47465930  0.41332812  0.38792518  1
  Si  Si164  1  0.68961283  0.83141228  0.61166663  1
  Si  Si165  1  0.97807102  0.84025272  0.38715462  1
  Si  Si166  1  0.63853156  0.16293555  0.38330369  1
  Si  Si167  1  0.63750414  0.67325255  0.38721292  1
  Si  Si168  1  0.14939433  0.41649430  0.88542042  1
  Si  Si169  1  0.35397572  0.83875694  0.61260325  1
  Si  Si170  1  0.52312922  0.08117261  0.61116973  1
  Si  Si171  1  0.48040225  0.41463274  0.88789543  1
  Si  Si172  1  0.19646989  0.58284457  0.61399975  1
  Si  Si173  1  0.80966021  0.91291715  0.88492349  1
  Si  Si174  1  0.80515508  0.08469465  0.38232122  1
  Si  Si175  1  0.69038893  0.65804886  0.11371507  1
  Si  Si176  1  0.86260865  0.58296614  0.61440324  1
  Si  Si177  1  0.19811220  0.91884497  0.11829071  1
  Si  Si178  1  0.19872655  0.41695295  0.61426486  1
  Si  Si179  1  0.31710999  0.16893243  0.38802286  1
  Si  Si180  1  0.68384161  0.33907312  0.11197199  1
  Si  Si181  1  0.98166904  0.33732975  0.88484416  1
  Si  Si182  1  0.47672306  0.91469776  0.38318312  1
  Si  Si183  1  0.85962763  0.41744417  0.61510251  1
  Si  Si184  1  0.14175160  0.57957479  0.88686944  1
  Si  Si185  1  0.97105291  0.83229754  0.88814593  1
  Si  Si186  1  0.64140670  0.83697660  0.88143811  1
  Si  Si187  1  0.31181603  0.33313519  0.88488358  1
  Si  Si188  1  0.02961857  0.84315274  0.11536261  1
  Si  Si189  1  0.14412978  0.58474176  0.39162857  1
  Si  Si190  1  0.86537793  0.08787782  0.11448010  1
  Si  Si191  1  0.30789645  0.16620524  0.88442369  1
  O  O192  1  0.27251660  0.12377623  0.08371718  1
  O  O193  1  0.26947967  0.11428720  0.57998500  1
  O  O194  1  0.28177559  0.60272239  0.08989924  1
  O  O195  1  0.26730365  0.62809744  0.58283655  1
  O  O196  1  0.60912452  0.10837799  0.06378161  1
  O  O197  1  0.59440982  0.12839390  0.58093733  1
  O  O198  1  0.60192116  0.61184326  0.08584550  1
  O  O199  1  0.61919545  0.61648444  0.57538535  1
  O  O200  1  0.95331881  0.11349624  0.08839318  1
  O  O201  1  0.94473564  0.13351526  0.57326849  1
  O  O202  1  0.92727105  0.61789942  0.08301900  1
  O  O203  1  0.94352208  0.61624797  0.58534967  1
  O  O204  1  0.10278000  0.36872278  0.08810044  1
  O  O205  1  0.10624342  0.38010049  0.58622524  1
  O  O206  1  0.11261905  0.87440108  0.08669567  1
  O  O207  1  0.10050417  0.87030708  0.58373905  1
  O  O208  1  0.43419662  0.37099985  0.08719746  1
  O  O209  1  0.44245602  0.35779252  0.58293741  1
  O  O210  1  0.42980945  0.84423340  0.07401010  1
  O  O211  1  0.43293656  0.87553715  0.58068394  1
  O  O212  1  0.76806031  0.37613500  0.08832283  1
  O  O213  1  0.77376792  0.37117238  0.58624689  1
  O  O214  1  0.79532906  0.86878829  0.07479654  1
  O  O215  1  0.76593405  0.86828212  0.57942640  1
  O  O216  1  0.26949998  0.38760560  0.08741694  1
  O  O217  1  0.27325027  0.37306660  0.58484526  1
  O  O218  1  0.27359370  0.87930121  0.08719166  1
  O  O219  1  0.26735836  0.88449490  0.58181494  1
  O  O220  1  0.60057352  0.39264455  0.08425513  1
  O  O221  1  0.60681858  0.37913252  0.58499118  1
  O  O222  1  0.60830375  0.88599646  0.06269526  1
  O  O223  1  0.59996384  0.87393866  0.58205732  1
  O  O224  1  0.93406441  0.36952627  0.08766220  1
  O  O225  1  0.94018760  0.38140442  0.58682697  1
  O  O226  1  0.95692432  0.90353852  0.08951877  1
  O  O227  1  0.93331410  0.86164986  0.58596672  1
  O  O228  1  0.11205303  0.13120617  0.08701468  1
  O  O229  1  0.11023425  0.13502783  0.58496293  1
  O  O230  1  0.11889070  0.63400825  0.07921093  1
  O  O231  1  0.10510906  0.62000932  0.58422592  1
  O  O232  1  0.43349050  0.15632722  0.07613294  1
  O  O233  1  0.43292568  0.12140303  0.58047269  1
  O  O234  1  0.43959422  0.63583146  0.08818955  1
  O  O235  1  0.43014506  0.64294292  0.57493623  1
  O  O236  1  0.79382261  0.14173805  0.07724133  1
  O  O237  1  0.75501056  0.12874336  0.57163334  1
  O  O238  1  0.76299293  0.60944165  0.08574850  1
  O  O239  1  0.78225539  0.63460960  0.58536048  1
  O  O240  1  0.04874766  0.11384894  0.42473198  1
  O  O241  1  0.06406323  0.12656533  0.91590254  1
  O  O242  1  0.06285016  0.60712043  0.42439345  1
  O  O243  1  0.05897934  0.59357417  0.91863798  1
  O  O244  1  0.39893976  0.11576143  0.41585758  1
  O  O245  1  0.39067847  0.11622432  0.91406824  1
  O  O246  1  0.37531678  0.61147932  0.42182486  1
  O  O247  1  0.37288737  0.60831186  0.92434729  1
  O  O248  1  0.72408299  0.11694110  0.41247241  1
  O  O249  1  0.71636772  0.11306231  0.92284304  1
  O  O250  1  0.71704624  0.62068393  0.41772858  1
  O  O251  1  0.70272269  0.61561158  0.92194944  1
  O  O252  1  0.23366870  0.34803575  0.42452134  1
  O  O253  1  0.22967976  0.36388085  0.91654828  1
  O  O254  1  0.23022707  0.86069314  0.41645949  1
  O  O255  1  0.23601340  0.86023527  0.92557542  1
  O  O256  1  0.54304723  0.34839440  0.41223926  1
  O  O257  1  0.56416105  0.36345102  0.91380534  1
  O  O258  1  0.56489806  0.87211845  0.41624003  1
  O  O259  1  0.55912394  0.86809503  0.90989114  1
  O  O260  1  0.89255062  0.35520563  0.42588794  1
  O  O261  1  0.89845679  0.36403302  0.91406994  1
  O  O262  1  0.89739391  0.87967636  0.41459541  1
  O  O263  1  0.87847547  0.84945947  0.91166594  1
  O  O264  1  0.05396322  0.37894368  0.43023644  1
  O  O265  1  0.06414176  0.38880684  0.91317718  1
  O  O266  1  0.06358102  0.88817936  0.41609700  1
  O  O267  1  0.03655939  0.89662063  0.91608946  1
  O  O268  1  0.38832811  0.38917820  0.41552555  1
  O  O269  1  0.39768668  0.37835367  0.91547107  1
  O  O270  1  0.39761199  0.87890377  0.41452270  1
  O  O271  1  0.39684603  0.87598684  0.91368367  1
  O  O272  1  0.70683044  0.37730104  0.42688821  1
  O  O273  1  0.73320769  0.36494141  0.91480719  1
  O  O274  1  0.72993390  0.88450630  0.41338800  1
  O  O275  1  0.72016490  0.89045629  0.90933786  1
  O  O276  1  0.24057821  0.14679144  0.42521222  1
  O  O277  1  0.22560671  0.14263544  0.91685520  1
  O  O278  1  0.21547709  0.64945484  0.41404153  1
  O  O279  1  0.21412970  0.63975735  0.91472768  1
  O  O280  1  0.56254966  0.12349112  0.41495426  1
  O  O281  1  0.55143429  0.13005080  0.90699890  1
  O  O282  1  0.55852095  0.65135653  0.42289063  1
  O  O283  1  0.54726057  0.66023766  0.91612074  1
  O  O284  1  0.88577803  0.13407898  0.41491053  1
  O  O285  1  0.90122978  0.14840097  0.92072615  1
  O  O286  1  0.87861334  0.63922094  0.42598189  1
  O  O287  1  0.88659869  0.63983961  0.93167118  1
  O  O288  1  0.18823976  0.00172521  0.08737386  1
  O  O289  1  0.17060425  0.00012236  0.58436372  1
  O  O290  1  0.16933928  0.49875320  0.08778445  1
  O  O291  1  0.19663137  0.49968238  0.58570353  1
  O  O292  1  0.47024414  -0.00145082  0.06809172  1
  O  O293  1  0.51763395  -0.00161486  0.57922932  1
  O  O294  1  0.49641672  0.50197155  0.08892999  1
  O  O295  1  0.49944426  0.48899964  0.57716448  1
  O  O296  1  0.84524493  0.00539051  0.08587941  1
  O  O297  1  0.85360793  -0.01338135  0.57164148  1
  O  O298  1  0.85525299  0.49369034  0.08734232  1
  O  O299  1  0.84671177  0.49987124  0.58538598  1
  O  O300  1  0.01800255  0.24772514  0.08517328  1
  O  O301  1  0.02516989  0.25705333  0.58503879  1
  O  O302  1  0.00421832  0.76685054  0.07973895  1
  O  O303  1  0.02271935  0.74340079  0.58269858  1
  O  O304  1  0.32627698  0.25778456  0.08782181  1
  O  O305  1  0.34551561  0.24467091  0.58589435  1
  O  O306  1  0.32265524  0.74161404  0.08688299  1
  O  O307  1  0.33723388  0.75695231  0.58348941  1
  O  O308  1  0.66626465  0.26434422  0.07206997  1
  O  O309  1  0.67819251  0.25288114  0.58288406  1
  O  O310  1  0.68206203  0.73413548  0.07564012  1
  O  O311  1  0.68059375  0.74901347  0.58259558  1
  O  O312  1  0.17677736  -0.00837564  0.42616424  1
  O  O313  1  0.16484632  0.01294508  0.92357583  1
  O  O314  1  0.18190074  0.50850006  0.42317681  1
  O  O315  1  0.17670845  0.49745943  0.91251921  1
  O  O316  1  0.48747193  -0.00275718  0.41452635  1
  O  O317  1  0.48531948  -0.00314713  0.91408678  1
  O  O318  1  0.50801277  0.48876358  0.42142358  1
  O  O319  1  0.50087932  0.49086780  0.92494731  1
  O  O320  1  0.81889393  0.00291037  0.41365328  1
  O  O321  1  0.84128963  -0.01142573  0.91950139  1
  O  O322  1  0.81761429  0.50823278  0.42613574  1
  O  O323  1  0.81990438  0.48662413  0.92469511  1
  O  O324  1  0.35174441  0.25036798  0.41219160  1
  O  O325  1  0.32872717  0.24965404  0.91058065  1
  O  O326  1  0.33188733  0.74980115  0.41605458  1
  O  O327  1  0.32769415  0.74596292  0.91382420  1
  O  O328  1  0.65049030  0.24347506  0.41593795  1
  O  O329  1  0.64942009  0.24443765  0.91286692  1
  O  O330  1  0.66377203  0.75641562  0.41371249  1
  O  O331  1  0.66562352  0.75668556  0.91083248  1
  O  O332  1  0.99145924  0.24553045  0.42070907  1
  O  O333  1  1.00680560  0.25672398  0.91322018  1
  O  O334  1  0.99363740  0.76379935  0.42476836  1
  O  O335  1  1.01036653  0.75796454  0.92253368  1
  O  O336  1  0.21506762  0.08601426  0.19594548  1
  O  O337  1  0.20889353  0.08278250  0.69342153  1
  O  O338  1  0.20843785  0.58222583  0.19672076  1
  O  O339  1  0.21187014  0.58256000  0.69442976  1
  O  O340  1  0.54220889  0.08370788  0.19597576  1
  O  O341  1  0.54508892  0.07593903  0.69027079  1
  O  O342  1  0.54167186  0.58319232  0.19701568  1
  O  O343  1  0.54716791  0.58437885  0.69999662  1
  O  O344  1  0.87594302  0.08681223  0.19438726  1
  O  O345  1  0.87930423  0.08555952  0.69651318  1
  O  O346  1  0.87349546  0.57971922  0.19710331  1
  O  O347  1  0.87962100  0.58013223  0.69437128  1
  O  O348  1  0.04274719  0.33113734  0.19750744  1
  O  O349  1  0.04548498  0.33735219  0.69521831  1
  O  O350  1  0.04721509  0.83695676  0.19643684  1
  O  O351  1  0.04706602  0.82304213  0.69368091  1
  O  O352  1  0.37390572  0.33605296  0.19717558  1
  O  O353  1  0.38190449  0.33832705  0.69324930  1
  O  O354  1  0.37761272  0.82689414  0.19283130  1
  O  O355  1  0.37641302  0.84004939  0.69186926  1
  O  O356  1  0.69576338  0.33446295  0.19153416  1
  O  O357  1  0.71292586  0.33381996  0.69458667  1
  O  O358  1  0.71443430  0.83634336  0.19623851  1
  O  O359  1  0.70714120  0.83317204  0.69198048  1
  O  O360  1  0.20837610  0.41570477  0.19752001  1
  O  O361  1  0.21376429  0.41674618  0.69462012  1
  O  O362  1  0.21190742  0.91900267  0.19782464  1
  O  O363  1  0.20845540  0.91568394  0.69246193  1
  O  O364  1  0.53853010  0.41720977  0.19668513  1
  O  O365  1  0.54341048  0.41590286  0.69320431  1
  O  O366  1  0.54328568  0.91563421  0.19478346  1
  O  O367  1  0.54108716  0.91585828  0.69100013  1
  O  O368  1  0.88039680  0.41625385  0.19885640  1
  O  O369  1  0.87797965  0.41706534  0.69569889  1
  O  O370  1  0.87949226  0.91877910  0.19391319  1
  O  O371  1  0.86571894  0.91546189  0.68952950  1
  O  O372  1  0.04942061  0.17192975  0.19722864  1
  O  O373  1  0.04319722  0.17074166  0.69265989  1
  O  O374  1  0.04721201  0.66752153  0.20299447  1
  O  O375  1  0.04743820  0.66252561  0.69449173  1
  O  O376  1  0.37459310  0.16974635  0.19336915  1
  O  O377  1  0.37115715  0.15574940  0.69017684  1
  O  O378  1  0.37385544  0.66550693  0.19709345  1
  O  O379  1  0.37569913  0.66716673  0.69122487  1
  O  O380  1  0.70974322  0.16802341  0.19783217  1
  O  O381  1  0.70745196  0.16724958  0.68937887  1
  O  O382  1  0.71024668  0.66137232  0.19406144  1
  O  O383  1  0.71019673  0.66689398  0.69184709  1
  O  O384  1  0.12873085  0.08375502  0.30272480  1
  O  O385  1  0.12416136  0.08754962  0.80654363  1
  O  O386  1  0.12440308  0.58306091  0.30995900  1
  O  O387  1  0.12510942  0.58010997  0.80537429  1
  O  O388  1  0.45738233  0.08281063  0.30417523  1
  O  O389  1  0.44864682  0.07363412  0.80399703  1
  O  O390  1  0.45330291  0.58329363  0.30047183  1
  O  O391  1  0.45376696  0.58304874  0.79937591  1
  O  O392  1  0.78876269  0.08330470  0.30269389  1
  O  O393  1  0.78705045  0.08361912  0.79710727  1
  O  O394  1  0.78787534  0.58513229  0.31039916  1
  O  O395  1  0.78709261  0.58292784  0.79868713  1
  O  O396  1  0.29104970  0.33306855  0.30754632  1
  O  O397  1  0.28800356  0.34099360  0.80585591  1
  O  O398  1  0.29126242  0.83102544  0.30580601  1
  O  O399  1  0.28883395  0.83375892  0.80681139  1
  O  O400  1  0.62055158  0.33120908  0.30727488  1
  O  O401  1  0.62776592  0.33248744  0.80367944  1
  O  O402  1  0.62178289  0.83861556  0.30410390  1
  O  O403  1  0.62154543  0.83522039  0.80043238  1
  O  O404  1  0.96355495  0.33215414  0.31363696  1
  O  O405  1  0.96062961  0.33644072  0.80404442  1
  O  O406  1  0.95937766  0.83700078  0.30638505  1
  O  O407  1  0.95095527  0.82591697  0.80738037  1
  O  O408  1  0.12182637  0.41616785  0.30286084  1
  O  O409  1  0.12755595  0.41576592  0.80470418  1
  O  O410  1  0.12928104  0.91693710  0.30889322  1
  O  O411  1  0.13258009  0.91667788  0.80071103  1
  O  O412  1  0.45525718  0.41550011  0.30660348  1
  O  O413  1  0.46032667  0.41841573  0.80679077  1
  O  O414  1  0.46042895  0.91595669  0.30401531  1
  O  O415  1  0.45528214  0.91562686  0.80286464  1
  O  O416  1  0.78428221  0.41700204  0.30120586  1
  O  O417  1  0.79237409  0.41379671  0.80691576  1
  O  O418  1  0.79151413  0.91995524  0.30306534  1
  O  O419  1  0.79003583  0.91593688  0.80322738  1
  O  O420  1  0.29483741  0.16701220  0.30708624  1
  O  O421  1  0.28519821  0.15917071  0.80525822  1
  O  O422  1  0.28913056  0.66735555  0.30680742  1
  O  O423  1  0.28690647  0.66035913  0.80728873  1
  O  O424  1  0.61983593  0.16624897  0.30369137  1
  O  O425  1  0.63361802  0.16417345  0.80481627  1
  O  O426  1  0.61904292  0.66585563  0.30747643  1
  O  O427  1  0.62248671  0.67028487  0.80558725  1
  O  O428  1  0.95508522  0.16757270  0.30880117  1
  O  O429  1  0.95970260  0.17263869  0.80550671  1
  O  O430  1  0.95264448  0.66855645  0.29995224  1
  O  O431  1  0.95517029  0.66469692  0.79872902  1
  F  F432  1  0.05243532  -0.00365182  0.20248847  1
  F  F433  1  0.04934702  0.01261528  0.69710709  1
  F  F434  1  0.04256696  0.50058427  0.20471014  1
  F  F435  1  0.04796581  0.49937748  0.70223657  1
  F  F436  1  0.37828903  0.00369955  0.20068063  1
  F  F437  1  0.37538447  -0.00391259  0.69839610  1
  F  F438  1  0.37509883  0.49724087  0.20277545  1
  F  F439  1  0.37788185  0.49872719  0.69971436  1
  F  F440  1  0.71398976  0.00086660  0.19924901  1
  F  F441  1  0.70930586  -0.00218417  0.69771585  1
  F  F442  1  0.70858150  0.50238426  0.20364253  1
  F  F443  1  0.71347687  0.49578342  0.70063631  1
  F  F444  1  0.21214514  0.25145103  0.20539587  1
  F  F445  1  0.20155972  0.25094960  0.69772063  1
  F  F446  1  0.21164866  0.74991401  0.20427604  1
  F  F447  1  0.20927145  0.74859343  0.70213819  1
  F  F448  1  0.54263386  0.25223711  0.20197592  1
  F  F449  1  0.55108376  0.25881681  0.69670023  1
  F  F450  1  0.54025927  0.74756986  0.20095684  1
  F  F451  1  0.54444600  0.75111941  0.69814800  1
  F  F452  1  0.88296600  0.25010438  0.20399675  1
  F  F453  1  0.88050955  0.25302515  0.70102341  1
  F  F454  1  0.87958481  0.75256415  0.20017275  1
  F  F455  1  0.87720195  0.74983521  0.69921969  1
  F  F456  1  0.29036030  0.00516617  0.30262062  1
  F  F457  1  0.28695008  -0.00132014  0.79528820  1
  F  F458  1  0.28660588  0.50003029  0.29907116  1
  F  F459  1  0.29021636  0.49942692  0.79643259  1
  F  F460  1  0.62345773  0.00077695  0.29580029  1
  F  F461  1  0.61886820  -0.00178641  0.79439824  1
  F  F462  1  0.61933815  0.49922906  0.29862789  1
  F  F463  1  0.62401988  0.49663307  0.79789798  1
  F  F464  1  0.95301093  -0.00249042  0.29972153  1
  F  F465  1  0.95092253  0.01100988  0.80116440  1
  F  F466  1  0.95378635  0.50095808  0.30185427  1
  F  F467  1  0.95645310  0.49783675  0.79798918  1
  F  F468  1  0.12350595  0.24976410  0.30212181  1
  F  F469  1  0.12227795  0.25220974  0.79781026  1
  F  F470  1  0.12316521  0.75446350  0.30073636  1
  F  F471  1  0.12162700  0.74697712  0.79950060  1
  F  F472  1  0.45460269  0.24848940  0.29634645  1
  F  F473  1  0.46719767  0.26273118  0.80928962  1
  F  F474  1  0.45465390  0.75147574  0.29945583  1
  F  F475  1  0.45626025  0.75167556  0.79452283  1
  F  F476  1  0.78522558  0.24773181  0.30067888  1
  F  F477  1  0.78954066  0.24996698  0.79473970  1
  F  F478  1  0.79484364  0.75199112  0.29957071  1
  F  F479  1  0.78462022  0.75027122  0.79365696  1
