# generated using pymatgen
data_K24Na3Li5Mg64Fe17Si79(O5F)48
_symmetry_space_group_name_H-M   'P 1'
_cell_length_a   16.09462533
_cell_length_b   18.57417710
_cell_length_c   20.55003987
_cell_angle_alpha   90.01403312
_cell_angle_beta   99.99340177
_cell_angle_gamma   89.99875005
_symmetry_Int_Tables_number   1
_chemical_formula_structural   K24Na3Li5Mg64Fe17Si79(O5F)48
_chemical_formula_sum   'K24 Na3 Li5 Mg64 Fe17 Si79 O240 F48'
_cell_volume   6050.11156898
_cell_formula_units_Z   1
loop_
 _symmetry_equiv_pos_site_id
 _symmetry_equiv_pos_as_xyz
  1  'x, y, z'
loop_
 _atom_site_type_symbol
 _atom_site_label
 _atom_site_symmetry_multiplicity
 _atom_site_fract_x
 _atom_site_fract_y
 _atom_site_fract_z
 _atom_site_occupancy
  K  K0  1  0.01168896  0.00756341  0.00104249  1
  K  K1  1  0.00147533  0.00178170  0.50197444  1
  K  K2  1  0.00144769  0.50398550  -0.00721596  1
  K  K3  1  -0.00414641  0.49029607  0.50831256  1
  K  K4  1  0.32333352  -0.00250209  -0.00182534  1
  K  K5  1  0.32464528  -0.00226746  0.50305809  1
  K  K6  1  0.32150119  0.50403059  -0.01445618  1
  K  K7  1  0.33118308  0.49568891  0.51394282  1
  K  K8  1  0.66651971  -0.00169411  -0.00469119  1
  K  K9  1  0.68025331  -0.00256249  0.50834921  1
  K  K10  1  0.66936196  0.50511941  -0.01348037  1
  K  K11  1  0.67640701  0.50301775  0.50857020  1
  K  K12  1  0.15658317  0.24381179  -0.01009781  1
  K  K13  1  0.16170115  0.24747369  0.50961720  1
  K  K14  1  0.15706343  0.74778303  -0.00733604  1
  K  K15  1  0.15718685  0.75288373  0.50748805  1
  K  K16  1  0.50334669  0.24817687  -0.00749588  1
  K  K17  1  0.50006260  0.24693174  0.50440090  1
  K  K18  1  0.50195600  0.75710717  -0.00911675  1
  K  K19  1  0.51220680  0.75190884  0.50982863  1
  K  K20  1  0.83575125  0.24523267  -0.00621086  1
  K  K21  1  0.84510765  0.25231831  0.50777056  1
  K  K22  1  0.83200887  0.74930463  -0.00632603  1
  K  K23  1  0.82970475  0.75425263  0.50948677  1
  Na  Na24  1  0.50047534  0.50259297  0.74571715  1
  Na  Na25  1  -0.00222289  0.42001771  0.24991616  1
  Na  Na26  1  0.66454458  0.08142091  0.74511471  1
  Li  Li27  1  0.33532879  0.74812535  0.75248962  1
  Li  Li28  1  0.66591398  0.74937043  0.74016991  1
  Li  Li29  1  0.83258939  0.33327885  0.74734525  1
  Li  Li30  1  0.16692062  0.33380221  0.75407879  1
  Li  Li31  1  0.83496318  0.83451609  0.25084681  1
  Mg  Mg32  1  0.66972664  0.25228176  0.74721450  1
  Mg  Mg33  1  0.66685357  0.24872015  0.25399170  1
  Mg  Mg34  1  0.00287192  0.74930437  0.75134156  1
  Mg  Mg35  1  0.16832472  -0.00117527  0.75395969  1
  Mg  Mg36  1  -0.00275630  0.75154663  0.24761812  1
  Mg  Mg37  1  -0.00012130  0.25043133  0.24973637  1
  Mg  Mg38  1  0.16459976  0.50122419  0.24727010  1
  Mg  Mg39  1  0.33249069  0.25191157  0.75121089  1
  Mg  Mg40  1  0.49918518  -0.00135901  0.24570776  1
  Mg  Mg41  1  0.16556213  0.00019685  0.24840186  1
  Mg  Mg42  1  0.33257703  0.74956913  0.24871159  1
  Mg  Mg43  1  0.83274724  0.49969954  0.25321684  1
  Mg  Mg44  1  0.50044199  0.49950088  0.24963563  1
  Mg  Mg45  1  0.50140487  -0.00140021  0.74657205  1
  Mg  Mg46  1  0.00295016  0.25245451  0.75435108  1
  Mg  Mg47  1  0.83259184  0.00121814  0.74651635  1
  Mg  Mg48  1  0.16770427  0.49824839  0.75489854  1
  Mg  Mg49  1  0.66863315  0.75247161  0.24754997  1
  Mg  Mg50  1  0.83248884  -0.00200175  0.25238420  1
  Mg  Mg51  1  0.33137675  0.24991767  0.24715824  1
  Mg  Mg52  1  0.83497134  0.49805214  0.74897267  1
  Mg  Mg53  1  0.00191310  0.41402306  0.75395255  1
  Mg  Mg54  1  0.49955066  0.16503934  0.24912744  1
  Mg  Mg55  1  0.33603844  0.08409381  0.75263320  1
  Mg  Mg56  1  -0.00203364  0.58585067  0.24662406  1
  Mg  Mg57  1  0.16198058  0.33464785  0.24670885  1
  Mg  Mg58  1  0.50111090  0.33502865  0.75003524  1
  Mg  Mg59  1  0.83418230  0.66854934  0.24982634  1
  Mg  Mg60  1  0.50138715  0.16617780  0.74738313  1
  Mg  Mg61  1  0.83504886  0.33487531  0.25484087  1
  Mg  Mg62  1  0.50135994  0.83040191  0.74832705  1
  Mg  Mg63  1  0.16851816  0.83053804  0.75163277  1
  Mg  Mg64  1  0.50112400  0.66603764  0.24896654  1
  Mg  Mg65  1  0.00220729  0.08486340  0.75354926  1
  Mg  Mg66  1  0.16311123  0.16510019  0.24627583  1
  Mg  Mg67  1  0.49930922  0.83488099  0.24490427  1
  Mg  Mg68  1  0.00062688  0.91479441  0.74880822  1
  Mg  Mg69  1  0.66944377  0.41516836  0.25408180  1
  Mg  Mg70  1  -0.00112287  0.91588564  0.25075110  1
  Mg  Mg71  1  0.66659651  0.91511927  0.24741375  1
  Mg  Mg72  1  0.33454742  0.91265266  0.75122892  1
  Mg  Mg73  1  0.33004277  0.08369844  0.24629391  1
  Mg  Mg74  1  0.16295900  0.66625445  0.24677526  1
  Mg  Mg75  1  0.00181947  0.58374127  0.75008803  1
  Mg  Mg76  1  0.33416213  0.58580034  0.75264205  1
  Mg  Mg77  1  0.66915982  0.58493536  0.25223237  1
  Mg  Mg78  1  0.83239454  0.17085743  0.75075871  1
  Mg  Mg79  1  0.33332615  0.41699165  0.75237613  1
  Mg  Mg80  1  0.66870690  0.08277095  0.25222529  1
  Mg  Mg81  1  0.50108592  0.66890264  0.74831294  1
  Mg  Mg82  1  0.83043280  0.83250508  0.74748484  1
  Mg  Mg83  1  0.66495774  0.91315533  0.74574073  1
  Mg  Mg84  1  0.83492354  0.16411922  0.25329767  1
  Mg  Mg85  1  0.66527196  0.58577022  0.74634474  1
  Mg  Mg86  1  0.83159861  0.66760797  0.74834647  1
  Mg  Mg87  1  0.33073696  0.41596784  0.24830509  1
  Mg  Mg88  1  0.66803168  0.41751325  0.74757790  1
  Mg  Mg89  1  0.33076216  0.91429613  0.24623820  1
  Mg  Mg90  1  0.00019706  0.08534113  0.25022436  1
  Mg  Mg91  1  0.33279704  0.58362714  0.24801387  1
  Mg  Mg92  1  0.16347445  0.83496507  0.24833848  1
  Mg  Mg93  1  0.16798891  0.66560695  0.75291588  1
  Mg  Mg94  1  0.49999894  0.33387228  0.25095641  1
  Mg  Mg95  1  0.16890615  0.16740761  0.75657799  1
  Fe  Fe96  1  0.19914976  0.08392858  0.10762077  1
  Fe  Fe97  1  0.02068176  0.66679262  0.10725879  1
  Fe  Fe98  1  0.68783715  0.16675011  0.60772753  1
  Fe  Fe99  1  0.85816813  0.40711197  0.61559723  1
  Fe  Fe100  1  0.69277129  0.66711940  0.60741508  1
  Fe  Fe101  1  0.14413198  0.08294533  0.89345043  1
  Fe  Fe102  1  0.14088163  0.91693004  0.38973298  1
  Fe  Fe103  1  0.69114624  0.84010757  0.60723074  1
  Fe  Fe104  1  0.80956008  0.41676423  0.39450226  1
  Fe  Fe105  1  0.52303824  0.91792501  0.10523563  1
  Fe  Fe106  1  0.02552393  0.83439393  0.61068523  1
  Fe  Fe107  1  0.52265767  0.41770609  0.60879173  1
  Fe  Fe108  1  0.81046754  0.08060603  0.39283754  1
  Fe  Fe109  1  0.51435211  0.08044578  0.60483863  1
  Fe  Fe110  1  0.02583252  0.66299163  0.61033291  1
  Fe  Fe111  1  0.02129625  0.17010770  0.10772760  1
  Fe  Fe112  1  0.14294616  0.58374284  0.89417696  1
  Si  Si113  1  0.64331060  0.33442224  0.88778637  1
  Si  Si114  1  0.52896282  0.58237969  0.11451698  1
  Si  Si115  1  0.36131235  0.66046477  0.11412491  1
  Si  Si116  1  0.47606031  0.41743924  0.88765037  1
  Si  Si117  1  0.97418508  0.33391600  0.88847244  1
  Si  Si118  1  0.47660736  0.58568669  0.88701097  1
  Si  Si119  1  0.47703291  0.91740274  0.88500809  1
  Si  Si120  1  0.14338545  0.91019252  0.88995313  1
  Si  Si121  1  0.98062508  0.33096228  0.38786384  1
  Si  Si122  1  0.80427611  0.58348843  0.88474163  1
  Si  Si123  1  0.52577188  0.41632207  0.11498647  1
  Si  Si124  1  0.31711043  0.16822088  0.89099189  1
  Si  Si125  1  0.63382131  0.16392189  0.38700844  1
  Si  Si126  1  0.63932985  0.66862290  0.38379718  1
  Si  Si127  1  0.64088888  0.83314871  0.88298486  1
  Si  Si128  1  0.80641105  0.91848033  0.88516488  1
  Si  Si129  1  0.19931309  0.91564418  0.61596665  1
  Si  Si130  1  0.47592584  0.58119394  0.38382495  1
  Si  Si131  1  0.35940341  0.82915997  0.61821262  1
  Si  Si132  1  0.86363206  0.09212039  0.61583861  1
  Si  Si133  1  0.18955410  0.91037451  0.11032807  1
  Si  Si134  1  0.97988979  0.16849991  0.38943899  1
  Si  Si135  1  0.03263869  0.33167767  0.61745565  1
  Si  Si136  1  0.68617125  0.33284523  0.61043075  1
  Si  Si137  1  0.63952506  0.66706092  0.88396609  1
  Si  Si138  1  0.80653825  0.90946509  0.38527581  1
  Si  Si139  1  0.35305951  0.17056888  0.61436356  1
  Si  Si140  1  0.46625204  0.08261873  0.38179247  1
  Si  Si141  1  0.14303352  0.58317890  0.38493692  1
  Si  Si142  1  0.30984530  0.82852018  0.38578443  1
  Si  Si143  1  0.85759246  0.91820580  0.11686699  1
  Si  Si144  1  0.31392460  0.33380454  0.88835199  1
  Si  Si145  1  0.14480218  0.41800711  0.38420528  1
  Si  Si146  1  0.96950166  0.16800092  0.88978866  1
  Si  Si147  1  0.80751596  0.41846887  0.88547541  1
  Si  Si148  1  0.31014181  0.66349373  0.38380282  1
  Si  Si149  1  0.80642781  0.08348370  0.88482926  1
  Si  Si150  1  0.31181410  0.83344031  0.88648310  1
  Si  Si151  1  0.52072429  0.58896366  0.60839423  1
  Si  Si152  1  0.14338747  0.41121579  0.89189104  1
  Si  Si153  1  0.36793228  0.17131082  0.11205169  1
  Si  Si154  1  0.47107759  0.41637647  0.38392741  1
  Si  Si155  1  0.19532342  0.58220702  0.11217775  1
  Si  Si156  1  0.97034462  0.83452507  0.88555741  1
  Si  Si157  1  0.19605448  0.08109822  0.61896503  1
  Si  Si158  1  0.03300151  0.16583675  0.61932213  1
  Si  Si159  1  0.35478113  0.82551030  0.10977634  1
  Si  Si160  1  0.35657036  0.33640566  0.11336964  1
  Si  Si161  1  0.69210038  0.66686887  0.11336000  1
  Si  Si162  1  0.30588506  0.17090320  0.38299939  1
  Si  Si163  1  0.63490093  0.33127462  0.38840327  1
  Si  Si164  1  0.14507185  0.08667417  0.38774387  1
  Si  Si165  1  0.01792638  0.33786771  0.11122007  1
  Si  Si166  1  0.51452164  0.91402306  0.60917563  1
  Si  Si167  1  0.69418424  0.16655668  0.11596428  1
  Si  Si168  1  0.52758944  0.08879024  0.11258132  1
  Si  Si169  1  0.63658474  0.83406796  0.38270361  1
  Si  Si170  1  0.86072898  0.57721120  0.61301688  1
  Si  Si171  1  0.19511761  0.41801955  0.62026297  1
  Si  Si172  1  0.85020039  0.41719835  0.11537897  1
  Si  Si173  1  0.35498179  0.33233125  0.61470405  1
  Si  Si174  1  0.35937446  0.66732990  0.61748488  1
  Si  Si175  1  0.86334525  0.92628538  0.61189524  1
  Si  Si176  1  0.85589818  0.08039421  0.11327670  1
  Si  Si177  1  0.64139865  0.17029463  0.88540859  1
  Si  Si178  1  0.69491609  0.83271686  0.11102387  1
  Si  Si179  1  0.18814645  0.41649442  0.11255698  1
  Si  Si180  1  0.31368129  0.66765057  0.89104330  1
  Si  Si181  1  0.85223815  0.57926181  0.11163356  1
  Si  Si182  1  0.97204918  0.83145232  0.38482048  1
  Si  Si183  1  0.19815431  0.58272443  0.61531751  1
  Si  Si184  1  0.68998218  0.33074287  0.11545955  1
  Si  Si185  1  0.47081230  0.91671869  0.38212732  1
  Si  Si186  1  0.81013193  0.58992733  0.38781487  1
  Si  Si187  1  0.96782592  0.66843573  0.88795792  1
  Si  Si188  1  0.47982179  0.08334128  0.88702025  1
  Si  Si189  1  0.30676273  0.33513431  0.38386218  1
  Si  Si190  1  0.01820960  0.83647330  0.11091637  1
  Si  Si191  1  0.97762112  0.66782254  0.38411395  1
  O  O192  1  0.29963892  0.11445331  0.07787591  1
  O  O193  1  0.27252723  0.11644682  0.58656604  1
  O  O194  1  0.28469825  0.60469553  0.08738235  1
  O  O195  1  0.28503458  0.60878709  0.58802629  1
  O  O196  1  0.61342105  0.11601736  0.08540971  1
  O  O197  1  0.60897587  0.09992936  0.56783807  1
  O  O198  1  0.60647872  0.61929361  0.08447439  1
  O  O199  1  0.59721094  0.61075562  0.56965116  1
  O  O200  1  0.93181306  0.10445691  0.07651971  1
  O  O201  1  0.95143829  0.11662402  0.58892795  1
  O  O202  1  0.93018611  0.60290917  0.07664953  1
  O  O203  1  0.94862752  0.58882767  0.58455066  1
  O  O204  1  0.10085040  0.37382804  0.08340157  1
  O  O205  1  0.11585760  0.36525581  0.58956958  1
  O  O206  1  0.10318676  0.86378345  0.08334818  1
  O  O207  1  0.12426086  0.86570042  0.57956943  1
  O  O208  1  0.43627436  0.37531203  0.08574520  1
  O  O209  1  0.43055170  0.35348796  0.57602484  1
  O  O210  1  0.42959891  0.85684725  0.07485690  1
  O  O211  1  0.44271743  0.84913604  0.58583489  1
  O  O212  1  0.76953471  0.36388667  0.08445109  1
  O  O213  1  0.77458931  0.34103796  0.58185918  1
  O  O214  1  0.78307141  0.85995951  0.08712527  1
  O  O215  1  0.78513227  0.87818908  0.57506428  1
  O  O216  1  0.26962743  0.38087751  0.08465193  1
  O  O217  1  0.27515899  0.38714088  0.58824240  1
  O  O218  1  0.26550846  0.86652771  0.08203815  1
  O  O219  1  0.28571852  0.88846365  0.58950062  1
  O  O220  1  0.60276490  0.37645632  0.08564517  1
  O  O221  1  0.62128138  0.39636169  0.57604680  1
  O  O222  1  0.61789767  0.88123868  0.07228740  1
  O  O223  1  0.59458917  0.89611396  0.57379805  1
  O  O224  1  0.93725204  0.39455713  0.08888079  1
  O  O225  1  0.95269658  0.37568568  0.57897914  1
  O  O226  1  0.94240464  0.89628802  0.08629015  1
  O  O227  1  0.94829316  0.90831838  0.58247601  1
  O  O228  1  0.11518069  0.14638612  0.07190516  1
  O  O229  1  0.11166097  0.12840812  0.58965820  1
  O  O230  1  0.12104251  0.63482473  0.07863534  1
  O  O231  1  0.12427335  0.63357243  0.57746920  1
  O  O232  1  0.45972209  0.15468805  0.08945762  1
  O  O233  1  0.42783036  0.15005423  0.57501607  1
  O  O234  1  0.44371905  0.62852244  0.08572911  1
  O  O235  1  0.44142292  0.64753107  0.58331598  1
  O  O236  1  0.77441484  0.13461254  0.08623320  1
  O  O237  1  0.79226750  0.14646040  0.58011593  1
  O  O238  1  0.76887470  0.62990810  0.08259741  1
  O  O239  1  0.79223521  0.63707074  0.57908324  1
  O  O240  1  0.06337476  0.11817943  0.41691892  1
  O  O241  1  0.05511162  0.12902945  0.92539602  1
  O  O242  1  0.06213271  0.61817801  0.41231757  1
  O  O243  1  0.05331184  0.63071805  0.92592170  1
  O  O244  1  0.38551350  0.11734606  0.41053512  1
  O  O245  1  0.40619473  0.12415511  0.91958239  1
  O  O246  1  0.39392871  0.61382471  0.41153991  1
  O  O247  1  0.40292153  0.62360476  0.92199121  1
  O  O248  1  0.71188853  0.11535662  0.42064831  1
  O  O249  1  0.72890804  0.12555730  0.91333978  1
  O  O250  1  0.72894937  0.63021381  0.41315313  1
  O  O251  1  0.72739510  0.62361761  0.91558985  1
  O  O252  1  0.22816969  0.36873121  0.41544994  1
  O  O253  1  0.23263297  0.36491089  0.91879562  1
  O  O254  1  0.23395609  0.85568474  0.42110854  1
  O  O255  1  0.23134778  0.86414189  0.91873187  1
  O  O256  1  0.54793363  0.36225767  0.41202686  1
  O  O257  1  0.56610849  0.37531296  0.91876500  1
  O  O258  1  0.55889122  0.87434093  0.41053178  1
  O  O259  1  0.56431425  0.87271915  0.91560781  1
  O  O260  1  0.90636256  0.36072094  0.42435080  1
  O  O261  1  0.89905087  0.38028193  0.91662906  1
  O  O262  1  0.88130610  0.84934583  0.40822989  1
  O  O263  1  0.89788454  0.88074024  0.91654857  1
  O  O264  1  0.06449448  0.38354905  0.41181228  1
  O  O265  1  0.06698486  0.36798440  0.92218777  1
  O  O266  1  0.04351955  0.88658723  0.42123123  1
  O  O267  1  0.06459062  0.86700363  0.91628123  1
  O  O268  1  0.38747082  0.38750924  0.41164603  1
  O  O269  1  0.39899505  0.38177176  0.92193929  1
  O  O270  1  0.39565687  0.87657719  0.41268519  1
  O  O271  1  0.39777648  0.88175750  0.91572729  1
  O  O272  1  0.71282684  0.37934310  0.42281264  1
  O  O273  1  0.73259689  0.37631861  0.91843852  1
  O  O274  1  0.72313507  0.87598593  0.41302257  1
  O  O275  1  0.73072624  0.87466355  0.91470671  1
  O  O276  1  0.22324258  0.14494251  0.41284513  1
  O  O277  1  0.24431510  0.13430169  0.92627976  1
  O  O278  1  0.22971271  0.62957924  0.41341647  1
  O  O279  1  0.24296763  0.63528021  0.93065522  1
  O  O280  1  0.54696572  0.13308023  0.41030611  1
  O  O281  1  0.56777031  0.12679549  0.91770630  1
  O  O282  1  0.56122232  0.62747550  0.41132313  1
  O  O283  1  0.56587875  0.62716212  0.91918394  1
  O  O284  1  0.90295634  0.14194430  0.42460424  1
  O  O285  1  0.89155481  0.12736673  0.91913211  1
  O  O286  1  0.89518149  0.63894980  0.41329205  1
  O  O287  1  0.88947544  0.62822956  0.91703064  1
  O  O288  1  0.17870993  -0.01153559  0.07647872  1
  O  O289  1  0.18299490  -0.00042033  0.58865492  1
  O  O290  1  0.17783973  0.49900524  0.08477658  1
  O  O291  1  0.17881684  0.49893932  0.58746549  1
  O  O292  1  0.49680443  0.01401364  0.07628729  1
  O  O293  1  0.46979407  -0.01174795  0.57935424  1
  O  O294  1  0.51782590  0.49924638  0.08611009  1
  O  O295  1  0.48308286  0.51067337  0.58138362  1
  O  O296  1  0.82489972  -0.00185874  0.08745740  1
  O  O297  1  0.83977081  0.01058785  0.58844348  1
  O  O298  1  0.82184155  0.49726959  0.08522894  1
  O  O299  1  0.82370591  0.49883288  0.58536684  1
  O  O300  1  -0.01030051  0.26371283  0.07322801  1
  O  O301  1  0.02510429  0.24731787  0.58798867  1
  O  O302  1  -0.01071999  0.76030950  0.07561131  1
  O  O303  1  -0.00931122  0.74905261  0.56841038  1
  O  O304  1  0.34562064  0.25464699  0.08450352  1
  O  O305  1  0.31787533  0.25169279  0.59029479  1
  O  O306  1  0.33892242  0.74067650  0.08456407  1
  O  O307  1  0.32746854  0.74858201  0.58988810  1
  O  O308  1  0.67418042  0.24864560  0.08569435  1
  O  O309  1  0.64277727  0.25692682  0.58101672  1
  O  O310  1  0.67895523  0.74829016  0.08306840  1
  O  O311  1  0.67089592  0.75363129  0.56315486  1
  O  O312  1  0.17213817  0.01044904  0.42268108  1
  O  O313  1  0.15374746  -0.01240066  0.92636790  1
  O  O314  1  0.15941787  0.50066992  0.41445141  1
  O  O315  1  0.15530178  0.48846840  0.92982164  1
  O  O316  1  0.47868175  -0.00003079  0.40977288  1
  O  O317  1  0.49067707  0.00001347  0.91553199  1
  O  O318  1  0.49077649  0.49857988  0.41155598  1
  O  O319  1  0.48800579  0.50131719  0.91553555  1
  O  O320  1  0.83202346  -0.01489666  0.42300715  1
  O  O321  1  0.80806042  0.00087219  0.91640829  1
  O  O322  1  0.82458254  0.51285389  0.42353019  1
  O  O323  1  0.81183634  0.50126034  0.91740847  1
  O  O324  1  0.32821251  0.25315641  0.41208499  1
  O  O325  1  0.33536220  0.25202168  0.91837778  1
  O  O326  1  0.33256099  0.74468604  0.41153004  1
  O  O327  1  0.33339037  0.75225060  0.91658242  1
  O  O328  1  0.64295443  0.24752782  0.41359654  1
  O  O329  1  0.65026564  0.25193365  0.92037853  1
  O  O330  1  0.64016082  0.75119966  0.41100403  1
  O  O331  1  0.64903389  0.75036110  0.91435206  1
  O  O332  1  1.01036734  0.25005931  0.41634549  1
  O  O333  1  0.96909159  0.25182059  0.91822034  1
  O  O334  1  0.99969556  0.74901911  0.41204797  1
  O  O335  1  0.96703569  0.75277564  0.91540950  1
  O  O336  1  0.21170543  0.08336071  0.20025580  1
  O  O337  1  0.21447460  0.08240800  0.69915829  1
  O  O338  1  0.21247801  0.58309095  0.19346523  1
  O  O339  1  0.21199698  0.58334067  0.69600135  1
  O  O340  1  0.54425740  0.08470564  0.19383331  1
  O  O341  1  0.52992934  0.08290662  0.69585068  1
  O  O342  1  0.54459297  0.58215267  0.19505143  1
  O  O343  1  0.54671774  0.59366178  0.68842496  1
  O  O344  1  0.87599250  0.08359192  0.19413544  1
  O  O345  1  0.88124464  0.08805117  0.69684262  1
  O  O346  1  0.87116487  0.58273862  0.19254916  1
  O  O347  1  0.87834918  0.58232119  0.69523387  1
  O  O348  1  0.04416807  0.32954286  0.19083326  1
  O  O349  1  0.04488613  0.33194106  0.69727882  1
  O  O350  1  0.03980360  0.83315875  0.19178440  1
  O  O351  1  0.04767854  0.83261429  0.70338975  1
  O  O352  1  0.37621551  0.33597185  0.19414387  1
  O  O353  1  0.37627996  0.33399052  0.69559875  1
  O  O354  1  0.37510600  0.82932403  0.19124808  1
  O  O355  1  0.37886555  0.83379028  0.69777373  1
  O  O356  1  0.70523971  0.33175210  0.19563753  1
  O  O357  1  0.70432440  0.33531924  0.69182030  1
  O  O358  1  0.70320317  0.83280566  0.19084166  1
  O  O359  1  0.71298739  0.83391125  0.69788607  1
  O  O360  1  0.20941692  0.41652343  0.19327150  1
  O  O361  1  0.21229555  0.41877734  0.69982650  1
  O  O362  1  0.21080309  0.91268849  0.19154971  1
  O  O363  1  0.21242963  0.91637844  0.69696647  1
  O  O364  1  0.54309814  0.41627201  0.19556922  1
  O  O365  1  0.54840831  0.40897009  0.69865534  1
  O  O366  1  0.54308417  0.91657506  0.19716261  1
  O  O367  1  0.53869605  0.91446248  0.69070319  1
  O  O368  1  0.86280090  0.41653507  0.19462489  1
  O  O369  1  0.88316860  0.41586861  0.70513697  1
  O  O370  1  0.87746085  0.91961928  0.19659879  1
  O  O371  1  0.87890153  0.91888783  0.69344126  1
  O  O372  1  0.04229664  0.16769592  0.20072150  1
  O  O373  1  0.04782544  0.16719355  0.69928428  1
  O  O374  1  0.04363369  0.66777789  0.19898633  1
  O  O375  1  0.04629859  0.66757805  0.70266791  1
  O  O376  1  0.37874821  0.17012718  0.19333691  1
  O  O377  1  0.37382568  0.16742024  0.69545743  1
  O  O378  1  0.37941589  0.66354031  0.19495495  1
  O  O379  1  0.37873465  0.66448195  0.69709507  1
  O  O380  1  0.70884279  0.16846552  0.19623216  1
  O  O381  1  0.71602486  0.17379148  0.69763578  1
  O  O382  1  0.70794349  0.66543178  0.19372130  1
  O  O383  1  0.71405979  0.66507193  0.69825060  1
  O  O384  1  0.12512797  0.08403547  0.30706549  1
  O  O385  1  0.12466159  0.08210824  0.80242940  1
  O  O386  1  0.12701105  0.58297343  0.30463472  1
  O  O387  1  0.12464714  0.58171600  0.80356442  1
  O  O388  1  0.45176078  0.08284125  0.30088968  1
  O  O389  1  0.45804354  0.08388819  0.80732300  1
  O  O390  1  0.45687506  0.58225126  0.30288572  1
  O  O391  1  0.45483773  0.59036749  0.80834136  1
  O  O392  1  0.78870644  0.08284976  0.30042777  1
  O  O393  1  0.79894025  0.08177884  0.80630172  1
  O  O394  1  0.78912659  0.58614329  0.30632059  1
  O  O395  1  0.79094843  0.58285549  0.80541693  1
  O  O396  1  0.28964501  0.33453043  0.30320230  1
  O  O397  1  0.29785945  0.33376891  0.80900909  1
  O  O398  1  0.29124336  0.83076369  0.30432699  1
  O  O399  1  0.29004478  0.83671530  0.80734652  1
  O  O400  1  0.62014387  0.33346925  0.30652138  1
  O  O401  1  0.62476020  0.33376027  0.80848965  1
  O  O402  1  0.62005796  0.83199583  0.30215161  1
  O  O403  1  0.62103738  0.83548967  0.80428655  1
  O  O404  1  0.95518901  0.32712313  0.30799495  1
  O  O405  1  0.96457489  0.33321743  0.80988080  1
  O  O406  1  0.96161234  0.83255696  0.30454491  1
  O  O407  1  0.95440905  0.83598717  0.80573046  1
  O  O408  1  0.13501237  0.41879462  0.30481305  1
  O  O409  1  0.12399624  0.41676802  0.81227900  1
  O  O410  1  0.12280349  0.91687858  0.29764175  1
  O  O411  1  0.12669193  0.91511029  0.80954961  1
  O  O412  1  0.45397556  0.41715952  0.30288364  1
  O  O413  1  0.45394683  0.41029462  0.80911150  1
  O  O414  1  0.45250740  0.91524923  0.30144000  1
  O  O415  1  0.45740772  0.91654180  0.80531318  1
  O  O416  1  0.78741586  0.41685909  0.30211008  1
  O  O417  1  0.78760641  0.41932295  0.80669416  1
  O  O418  1  0.78457488  0.91743854  0.30506868  1
  O  O419  1  0.79137955  0.91805842  0.80563918  1
  O  O420  1  0.29013888  0.17036079  0.30261366  1
  O  O421  1  0.29637655  0.16622200  0.81032297  1
  O  O422  1  0.29076615  0.66393701  0.30295041  1
  O  O423  1  0.29029299  0.66235512  0.81157052  1
  O  O424  1  0.61972827  0.16549394  0.30526498  1
  O  O425  1  0.61816213  0.17541157  0.80714219  1
  O  O426  1  0.62115637  0.66658413  0.30292686  1
  O  O427  1  0.61985907  0.66300953  0.80538979  1
  O  O428  1  0.95735834  0.16654405  0.30832390  1
  O  O429  1  0.95703113  0.16661190  0.80958256  1
  O  O430  1  0.95690871  0.66673927  0.30368371  1
  O  O431  1  0.95526663  0.66670158  0.80785299  1
  F  F432  1  0.04354308  0.00206684  0.20137236  1
  F  F433  1  0.04806796  -0.00051868  0.70420145  1
  F  F434  1  0.04990807  0.50980812  0.19713809  1
  F  F435  1  0.04786473  0.49611167  0.70553183  1
  F  F436  1  0.37697707  -0.00125562  0.19897078  1
  F  F437  1  0.37601785  -0.00071099  0.70584973  1
  F  F438  1  0.37964108  0.49911378  0.19988328  1
  F  F439  1  0.36491615  0.50042415  0.70276103  1
  F  F440  1  0.70930483  -0.00021080  0.20047525  1
  F  F441  1  0.71704310  -0.01024265  0.69740287  1
  F  F442  1  0.70679278  0.50142873  0.20272691  1
  F  F443  1  0.71381822  0.50128933  0.70134633  1
  F  F444  1  0.21272242  0.25306633  0.19982465  1
  F  F445  1  0.21425642  0.24541351  0.70666634  1
  F  F446  1  0.21322547  0.74881005  0.20135109  1
  F  F447  1  0.21139781  0.74828857  0.70651500  1
  F  F448  1  0.54522484  0.25153678  0.20318134  1
  F  F449  1  0.54372650  0.25075695  0.70332920  1
  F  F450  1  0.54444001  0.74738977  0.19924250  1
  F  F451  1  0.54095789  0.75081432  0.69898332  1
  F  F452  1  0.87536747  0.25005109  0.20444355  1
  F  F453  1  0.88682573  0.24766029  0.70529556  1
  F  F454  1  0.87786546  0.74601365  0.19985256  1
  F  F455  1  0.88228537  0.75063214  0.70288147  1
  F  F456  1  0.29063293  -0.00285881  0.29663393  1
  F  F457  1  0.29088978  -0.00067095  0.80185192  1
  F  F458  1  0.28942195  0.50042206  0.29580693  1
  F  F459  1  0.28979871  0.49963908  0.80498851  1
  F  F460  1  0.61846109  0.00031587  0.29748235  1
  F  F461  1  0.61707800  -0.01120846  0.80014143  1
  F  F462  1  0.61885322  0.50065669  0.29902419  1
  F  F463  1  0.63429109  0.50224834  0.80185870  1
  F  F464  1  0.95523411  0.00153431  0.29824206  1
  F  F465  1  0.95568448  -0.00080327  0.79796830  1
  F  F466  1  0.95061131  0.51179242  0.30015731  1
  F  F467  1  0.95709993  0.50255430  0.80244838  1
  F  F468  1  0.12477731  0.25296616  0.29787902  1
  F  F469  1  0.12160007  0.24486706  0.80640868  1
  F  F470  1  0.12363634  0.75049466  0.29692668  1
  F  F471  1  0.12466043  0.74999740  0.80609233  1
  F  F472  1  0.45251874  0.25100189  0.29670873  1
  F  F473  1  0.45431029  0.24944453  0.79830546  1
  F  F474  1  0.45468029  0.74928673  0.29546331  1
  F  F475  1  0.46304531  0.75100457  0.80271111  1
  F  F476  1  0.78587123  0.24982062  0.29987914  1
  F  F477  1  0.78677611  0.24954699  0.80348007  1
  F  F478  1  0.78298813  0.74536891  0.29751146  1
  F  F479  1  0.79981368  0.75062023  0.80332605  1
