# generated using pymatgen
data_K24Na3Li5Mg64Fe17Si79(O5F)48
_symmetry_space_group_name_H-M   'P 1'
_cell_length_a   16.09885142
_cell_length_b   18.58164675
_cell_length_c   20.55098215
_cell_angle_alpha   90.01039471
_cell_angle_beta   100.01026126
_cell_angle_gamma   89.98516913
_symmetry_Int_Tables_number   1
_chemical_formula_structural   K24Na3Li5Mg64Fe17Si79(O5F)48
_chemical_formula_sum   'K24 Na3 Li5 Mg64 Fe17 Si79 O240 F48'
_cell_volume   6054.09724124
_cell_formula_units_Z   1
loop_
 _symmetry_equiv_pos_site_id
 _symmetry_equiv_pos_as_xyz
  1  'x, y, z'
loop_
 _atom_site_type_symbol
 _atom_site_label
 _atom_site_symmetry_multiplicity
 _atom_site_fract_x
 _atom_site_fract_y
 _atom_site_fract_z
 _atom_site_occupancy
  K  K0  1  0.01061903  0.00057330  -0.00591738  1
  K  K1  1  0.00914638  -0.00099202  0.51475305  1
  K  K2  1  -0.00371074  0.49965287  -0.00470124  1
  K  K3  1  0.00360008  0.50296423  0.50572849  1
  K  K4  1  0.32370137  -0.01029521  -0.00660120  1
  K  K5  1  0.32461799  -0.00247685  0.51190672  1
  K  K6  1  0.32969588  0.50443350  -0.00340795  1
  K  K7  1  0.32576940  0.49550933  0.50910712  1
  K  K8  1  0.65676306  -0.00350839  -0.00081141  1
  K  K9  1  0.66426069  -0.00981635  0.50293924  1
  K  K10  1  0.66733985  0.50372184  -0.00096623  1
  K  K11  1  0.66331110  0.49407463  0.50369785  1
  K  K12  1  0.16721210  0.25537444  -0.01272371  1
  K  K13  1  0.17429768  0.25076920  0.50999744  1
  K  K14  1  0.17545150  0.74903850  -0.01287391  1
  K  K15  1  0.16984523  0.75509077  0.51347464  1
  K  K16  1  0.49433849  0.24966051  -0.00376071  1
  K  K17  1  0.49814888  0.25927281  0.50565046  1
  K  K18  1  0.49380068  0.74794669  -0.00558688  1
  K  K19  1  0.49388471  0.74535036  0.50803004  1
  K  K20  1  0.84107175  0.26480221  -0.00797140  1
  K  K21  1  0.83663787  0.25356811  0.50862467  1
  K  K22  1  0.83469409  0.74538102  -0.00154848  1
  K  K23  1  0.83756846  0.74621866  0.50013745  1
  Na  Na24  1  0.16841435  0.00189412  0.75103452  1
  Na  Na25  1  0.16878127  0.83416275  0.74981180  1
  Na  Na26  1  0.16219148  0.17010372  0.74796271  1
  Li  Li27  1  -0.00387084  0.25361267  0.74480778  1
  Li  Li28  1  0.16802280  -0.00076235  0.25149625  1
  Li  Li29  1  0.67505869  0.41459821  0.74578671  1
  Li  Li30  1  0.83626210  0.33599813  0.74227373  1
  Li  Li31  1  0.49776326  0.66518982  0.75200915  1
  Mg  Mg32  1  0.83273689  0.00076612  0.25308080  1
  Mg  Mg33  1  0.50577696  0.50100530  0.75221112  1
  Mg  Mg34  1  0.66477440  0.25061088  0.24613843  1
  Mg  Mg35  1  0.50200043  -0.00033169  0.75201827  1
  Mg  Mg36  1  0.33362967  0.25106411  0.74547759  1
  Mg  Mg37  1  0.16708454  0.49928705  0.74918475  1
  Mg  Mg38  1  0.00386414  0.74990333  0.75280184  1
  Mg  Mg39  1  0.66453139  0.74889419  0.75184584  1
  Mg  Mg40  1  0.33224370  0.24980354  0.24683196  1
  Mg  Mg41  1  0.83406940  0.00142878  0.75264528  1
  Mg  Mg42  1  0.66663031  0.74980872  0.25169757  1
  Mg  Mg43  1  0.33613895  0.74795052  0.75097555  1
  Mg  Mg44  1  0.82998728  0.49648111  0.74643613  1
  Mg  Mg45  1  0.16619041  0.50057322  0.25001087  1
  Mg  Mg46  1  0.49930545  0.50008839  0.24434171  1
  Mg  Mg47  1  -0.00019631  0.75109308  0.25425380  1
  Mg  Mg48  1  0.00066863  0.25073631  0.24872019  1
  Mg  Mg49  1  0.33340827  0.74990314  0.24832519  1
  Mg  Mg50  1  0.67321333  0.25389210  0.75000468  1
  Mg  Mg51  1  0.83517081  0.49972260  0.24768784  1
  Mg  Mg52  1  0.49965162  -0.00293337  0.24923756  1
  Mg  Mg53  1  -0.00113784  0.58313123  0.74862534  1
  Mg  Mg54  1  0.50219457  0.16802214  0.74867617  1
  Mg  Mg55  1  0.00092113  0.91759698  0.75221484  1
  Mg  Mg56  1  0.66483808  0.41544624  0.24323600  1
  Mg  Mg57  1  0.32998980  0.58358790  0.24673046  1
  Mg  Mg58  1  0.83558805  0.66607266  0.25202186  1
  Mg  Mg59  1  0.33566818  0.91476305  0.75187675  1
  Mg  Mg60  1  0.00210358  0.08652355  0.75260459  1
  Mg  Mg61  1  0.00183596  0.58684325  0.25290785  1
  Mg  Mg62  1  0.16585227  0.33505602  0.24705417  1
  Mg  Mg63  1  0.66573713  0.58345202  0.24885431  1
  Mg  Mg64  1  0.66422558  0.91416316  0.25231193  1
  Mg  Mg65  1  0.33660104  0.58482175  0.75054051  1
  Mg  Mg66  1  0.33073227  0.41434215  0.24517155  1
  Mg  Mg67  1  0.33382500  0.08376718  0.74795593  1
  Mg  Mg68  1  0.00092594  0.41697898  0.24910372  1
  Mg  Mg69  1  0.33325337  0.41657543  0.74833856  1
  Mg  Mg70  1  0.16098392  0.33311957  0.74493173  1
  Mg  Mg71  1  0.66630192  0.91533170  0.75213677  1
  Mg  Mg72  1  0.83672934  0.17191238  0.75105602  1
  Mg  Mg73  1  0.83452245  0.33520603  0.24640158  1
  Mg  Mg74  1  0.50609234  0.33588439  0.74827710  1
  Mg  Mg75  1  0.16875813  0.66635853  0.75171260  1
  Mg  Mg76  1  0.50201508  0.83372379  0.25072122  1
  Mg  Mg77  1  0.16666590  0.16367078  0.24887631  1
  Mg  Mg78  1  0.83230643  0.66482388  0.74980907  1
  Mg  Mg79  1  0.66538435  0.58229690  0.75206608  1
  Mg  Mg80  1  0.66367507  0.08367714  0.24797503  1
  Mg  Mg81  1  0.49829810  0.83009521  0.75194023  1
  Mg  Mg82  1  0.16646822  0.83659438  0.25271859  1
  Mg  Mg83  1  -0.00512957  0.41288959  0.74583046  1
  Mg  Mg84  1  0.49546864  0.33385112  0.24327489  1
  Mg  Mg85  1  0.00250548  0.91910791  0.25345972  1
  Mg  Mg86  1  0.83329726  0.16681478  0.24974683  1
  Mg  Mg87  1  0.33179443  0.91633702  0.25101780  1
  Mg  Mg88  1  0.83411762  0.83573395  0.25548626  1
  Mg  Mg89  1  0.00238839  0.08324618  0.25042030  1
  Mg  Mg90  1  0.66908961  0.08493774  0.75235013  1
  Mg  Mg91  1  0.49568034  0.16455677  0.24482584  1
  Mg  Mg92  1  0.16686392  0.66638098  0.25136310  1
  Mg  Mg93  1  0.83524838  0.83315289  0.75437793  1
  Mg  Mg94  1  0.49962335  0.66424263  0.24791367  1
  Mg  Mg95  1  0.32980250  0.08103023  0.24815983  1
  Fe  Fe96  1  0.36049872  0.82730342  0.60900317  1
  Fe  Fe97  1  0.18620890  0.58335806  0.10961895  1
  Fe  Fe98  1  0.64288527  0.82750018  0.39408216  1
  Fe  Fe99  1  0.97419792  0.66764299  0.39321856  1
  Fe  Fe100  1  0.85028050  0.41690827  0.60620457  1
  Fe  Fe101  1  0.13774746  0.92232092  0.89715254  1
  Fe  Fe102  1  0.52708700  0.58585693  0.10766736  1
  Fe  Fe103  1  0.31244179  0.65947228  0.89347988  1
  Fe  Fe104  1  0.52306321  0.91302007  0.10907896  1
  Fe  Fe105  1  0.35406452  0.33189471  0.10575147  1
  Fe  Fe106  1  0.19017479  0.09248285  0.60402308  1
  Fe  Fe107  1  0.86294574  0.41816701  0.10742344  1
  Fe  Fe108  1  0.02286768  0.66741211  0.61184040  1
  Fe  Fe109  1  0.18702254  0.41121142  0.61010171  1
  Fe  Fe110  1  0.31451033  0.83423895  0.89605552  1
  Fe  Fe111  1  0.14339307  0.41673864  0.38868637  1
  Fe  Fe112  1  0.19089052  0.91893173  0.60405902  1
  Si  Si113  1  0.69959498  0.67028748  0.11466244  1
  Si  Si114  1  0.64227862  0.66705946  0.88600196  1
  Si  Si115  1  0.30938292  0.67226790  0.38578852  1
  Si  Si116  1  0.86273821  0.58892492  0.11340433  1
  Si  Si117  1  0.48183656  0.57617971  0.88795757  1
  Si  Si118  1  0.30973827  0.32792086  0.38516777  1
  Si  Si119  1  0.97683914  0.84181761  0.39058822  1
  Si  Si120  1  0.14196107  0.92020262  0.38519368  1
  Si  Si121  1  0.69381600  0.33032223  0.10994895  1
  Si  Si122  1  0.80741910  0.08937924  0.38532116  1
  Si  Si123  1  0.80862478  0.92327193  0.39039013  1
  Si  Si124  1  0.86270194  0.91901146  0.11834711  1
  Si  Si125  1  0.64576496  0.33106888  0.88463187  1
  Si  Si126  1  0.30645622  0.83684341  0.38598693  1
  Si  Si127  1  0.80524661  0.58297196  0.88625675  1
  Si  Si128  1  0.63808605  0.16864223  0.38267427  1
  Si  Si129  1  0.47147237  0.91649311  0.38873422  1
  Si  Si130  1  0.97072494  0.66299831  0.88632103  1
  Si  Si131  1  0.80675266  0.41893178  0.88275375  1
  Si  Si132  1  0.02453845  0.16216981  0.11346426  1
  Si  Si133  1  0.36710682  0.33726968  0.61208180  1
  Si  Si134  1  0.36292197  0.65691748  0.61373901  1
  Si  Si135  1  0.53020538  0.91556237  0.61580660  1
  Si  Si136  1  0.14281151  0.08543456  0.38404874  1
  Si  Si137  1  0.03025796  0.32720209  0.10996628  1
  Si  Si138  1  0.97052498  0.83007209  0.89167053  1
  Si  Si139  1  0.13641833  0.57704605  0.88810122  1
  Si  Si140  1  0.35075435  0.16239283  0.11053030  1
  Si  Si141  1  0.18709763  0.41602327  0.10904706  1
  Si  Si142  1  0.14833583  0.58613884  0.39026195  1
  Si  Si143  1  0.85592515  0.91967312  0.61847426  1
  Si  Si144  1  0.47093619  0.41709344  0.38188414  1
  Si  Si145  1  0.35750593  0.66733405  0.11339608  1
  Si  Si146  1  0.47880177  0.08871542  0.88541551  1
  Si  Si147  1  0.36853707  0.17092815  0.61040018  1
  Si  Si148  1  0.48063428  0.92285734  0.88901836  1
  Si  Si149  1  0.47513824  0.08157667  0.38332367  1
  Si  Si150  1  0.19284946  0.58277576  0.61282683  1
  Si  Si151  1  0.97043761  0.33461554  0.88190567  1
  Si  Si152  1  0.31120174  0.33520371  0.88394827  1
  Si  Si153  1  0.52661616  0.41226652  0.10708151  1
  Si  Si154  1  0.97105982  0.33237618  0.38549260  1
  Si  Si155  1  0.64045486  0.65714595  0.38797956  1
  Si  Si156  1  0.64064982  0.83353052  0.88796863  1
  Si  Si157  1  0.80584080  0.91511897  0.88856910  1
  Si  Si158  1  0.97697389  0.16714975  0.38509937  1
  Si  Si159  1  0.52927199  0.08027326  0.61615546  1
  Si  Si160  1  0.46886310  0.58223608  0.38418093  1
  Si  Si161  1  0.97159405  0.16972458  0.88763578  1
  Si  Si162  1  0.31251790  0.16980504  0.88419953  1
  Si  Si163  1  0.80393218  0.41094745  0.38148512  1
  Si  Si164  1  0.51981823  0.08409562  0.11065349  1
  Si  Si165  1  0.13804655  0.41172394  0.88341383  1
  Si  Si166  1  0.19137854  0.91378376  0.11816170  1
  Si  Si167  1  0.01292299  0.16827188  0.61267781  1
  Si  Si168  1  0.64588217  0.16761812  0.88640972  1
  Si  Si169  1  0.31073201  0.16415284  0.38346718  1
  Si  Si170  1  0.80339752  0.57598242  0.38560316  1
  Si  Si171  1  0.35287198  0.82955192  0.11524123  1
  Si  Si172  1  0.85004569  0.58432194  0.61094180  1
  Si  Si173  1  0.68876865  0.32630650  0.61149201  1
  Si  Si174  1  0.63565348  0.33449544  0.38085705  1
  Si  Si175  1  0.53282945  0.58170206  0.61625002  1
  Si  Si176  1  0.68848628  0.16522225  0.11322364  1
  Si  Si177  1  0.69967229  0.83590643  0.11505317  1
  Si  Si178  1  0.69529936  0.83591609  0.61899005  1
  Si  Si179  1  0.69159182  0.67237760  0.61647549  1
  Si  Si180  1  0.13967829  0.09270016  0.89180633  1
  Si  Si181  1  0.01827652  0.33183389  0.60763399  1
  Si  Si182  1  0.02450603  0.83695509  0.11828314  1
  Si  Si183  1  0.53253491  0.41850712  0.61563387  1
  Si  Si184  1  0.48083459  0.41245249  0.88515489  1
  Si  Si185  1  0.02577053  0.67475830  0.11416738  1
  Si  Si186  1  0.01353117  0.83508394  0.61380374  1
  Si  Si187  1  0.19005120  0.07770090  0.11534804  1
  Si  Si188  1  0.81022041  0.08169072  0.88840619  1
  Si  Si189  1  0.85406165  0.08370456  0.61651300  1
  Si  Si190  1  0.85612859  0.08340987  0.11541082  1
  Si  Si191  1  0.69047020  0.16373826  0.61569268  1
  O  O192  1  0.27348962  0.10397855  0.08522799  1
  O  O193  1  0.28347110  0.13656920  0.57024907  1
  O  O194  1  0.28860119  0.60707546  0.08307223  1
  O  O195  1  0.28312662  0.60245264  0.58760216  1
  O  O196  1  0.60435025  0.11783308  0.08433528  1
  O  O197  1  0.61207541  0.10894376  0.58654712  1
  O  O198  1  0.62632310  0.61775025  0.07834756  1
  O  O199  1  0.60748514  0.62511922  0.58556534  1
  O  O200  1  0.93717088  0.11599154  0.08600435  1
  O  O201  1  0.93063267  0.11417272  0.58166027  1
  O  O202  1  0.94544834  0.62162743  0.08598850  1
  O  O203  1  0.93189186  0.60561662  0.57899018  1
  O  O204  1  0.11914712  0.34882729  0.08621277  1
  O  O205  1  0.10205711  0.34624980  0.57471216  1
  O  O206  1  0.10818129  0.86383764  0.08972059  1
  O  O207  1  0.09252941  0.86193419  0.58130499  1
  O  O208  1  0.45640042  0.35246685  0.07769271  1
  O  O209  1  0.44218655  0.38166495  0.58291357  1
  O  O210  1  0.43212868  0.85072013  0.08065067  1
  O  O211  1  0.45862492  0.86352348  0.57830124  1
  O  O212  1  0.77372958  0.35327474  0.07725445  1
  O  O213  1  0.76004776  0.35358290  0.57091859  1
  O  O214  1  0.78678057  0.86364804  0.08848221  1
  O  O215  1  0.77680665  0.86553507  0.58884918  1
  O  O216  1  0.26922779  0.39898054  0.07517462  1
  O  O217  1  0.28075223  0.37380512  0.57649721  1
  O  O218  1  0.27308028  0.88469863  0.08875202  1
  O  O219  1  0.27189580  0.87746075  0.56107778  1
  O  O220  1  0.61513655  0.38434497  0.08293134  1
  O  O221  1  0.60190478  0.37315488  0.58211193  1
  O  O222  1  0.62458471  0.88749374  0.07985234  1
  O  O223  1  0.61985951  0.89274785  0.59114602  1
  O  O224  1  0.95456114  0.37771947  0.07329127  1
  O  O225  1  0.94475935  0.38641973  0.57123326  1
  O  O226  1  0.94766544  0.89397611  0.09019979  1
  O  O227  1  0.93602716  0.89456909  0.58623791  1
  O  O228  1  0.10373943  0.12428720  0.08529638  1
  O  O229  1  0.08913083  0.14546748  0.57470367  1
  O  O230  1  0.10430082  0.65464646  0.07876229  1
  O  O231  1  0.12318661  0.64277538  0.58200839  1
  O  O232  1  0.43877692  0.13767410  0.08504021  1
  O  O233  1  0.44998844  0.13116073  0.58439295  1
  O  O234  1  0.44369119  0.65608612  0.08365812  1
  O  O235  1  0.44299914  0.61842663  0.58401138  1
  O  O236  1  0.77053220  0.13013836  0.08578721  1
  O  O237  1  0.77113564  0.13327685  0.58486479  1
  O  O238  1  0.78819391  0.64885438  0.08920992  1
  O  O239  1  0.77387770  0.64598057  0.58661085  1
  O  O240  1  0.06159295  0.11927996  0.41366487  1
  O  O241  1  0.06547186  0.14060445  0.92249875  1
  O  O242  1  0.06895266  0.61091273  0.42385503  1
  O  O243  1  0.05464227  0.61540782  0.91482853  1
  O  O244  1  0.39440758  0.11505835  0.41228455  1
  O  O245  1  0.40022174  0.12459631  0.91663336  1
  O  O246  1  0.39267076  0.62208501  0.41471934  1
  O  O247  1  0.40876974  0.60223986  0.92681559  1
  O  O248  1  0.72836748  0.12922875  0.41280255  1
  O  O249  1  0.72970453  0.11847585  0.91709034  1
  O  O250  1  0.71394660  0.59571994  0.41085933  1
  O  O251  1  0.73187952  0.62621059  0.91804001  1
  O  O252  1  0.23345561  0.35313760  0.42052737  1
  O  O253  1  0.23076466  0.37257687  0.91181914  1
  O  O254  1  0.22294642  0.86779143  0.41268918  1
  O  O255  1  0.23212889  0.87415184  0.93814106  1
  O  O256  1  0.55947075  0.37386687  0.41135576  1
  O  O257  1  0.56351013  0.36142806  0.91489719  1
  O  O258  1  0.54814335  0.86714007  0.42513200  1
  O  O259  1  0.56745106  0.87563987  0.91865729  1
  O  O260  1  0.88101541  0.35543244  0.40886512  1
  O  O261  1  0.89778501  0.38006169  0.91450608  1
  O  O262  1  0.89968541  0.88486986  0.41762017  1
  O  O263  1  0.88561866  0.86374086  0.91839589  1
  O  O264  1  0.04401278  0.38628043  0.41860559  1
  O  O265  1  0.06483971  0.36752872  0.91499168  1
  O  O266  1  0.06075755  0.89246857  0.41629781  1
  O  O267  1  0.04788944  0.87478935  0.93181331  1
  O  O268  1  0.39663648  0.37532465  0.41203636  1
  O  O269  1  0.39874537  0.38002416  0.91469003  1
  O  O270  1  0.38423487  0.89139508  0.41480156  1
  O  O271  1  0.40892547  0.89536240  0.92756937  1
  O  O272  1  0.72162404  0.37884773  0.41018581  1
  O  O273  1  0.73130777  0.37718066  0.91491609  1
  O  O274  1  0.73595597  0.88876932  0.42552770  1
  O  O275  1  0.72684496  0.87929108  0.91845936  1
  O  O276  1  0.22823268  0.13333608  0.41202565  1
  O  O277  1  0.23151971  0.13753490  0.91361250  1
  O  O278  1  0.22739123  0.64409077  0.41469643  1
  O  O279  1  0.21997224  0.61623157  0.92580770  1
  O  O280  1  0.56109228  0.12894927  0.41205439  1
  O  O281  1  0.56420830  0.13651313  0.91643901  1
  O  O282  1  0.55624320  0.62437543  0.41451994  1
  O  O283  1  0.56821173  0.62480884  0.91583266  1
  O  O284  1  0.89445940  0.13402465  0.41295312  1
  O  O285  1  0.89779031  0.12410492  0.92025889  1
  O  O286  1  0.87717831  0.62828673  0.42094895  1
  O  O287  1  0.89374846  0.62420119  0.91756843  1
  O  O288  1  0.16882474  -0.00465092  0.08879345  1
  O  O289  1  0.17068598  0.00579404  0.55889936  1
  O  O290  1  0.14395950  0.49145225  0.08105410  1
  O  O291  1  0.16409197  0.50522766  0.57855074  1
  O  O292  1  0.49951018  0.00744666  0.07564101  1
  O  O293  1  0.51162030  -0.00122598  0.58714359  1
  O  O294  1  0.50280509  0.49113266  0.07582940  1
  O  O295  1  0.53297051  0.50009332  0.58417587  1
  O  O296  1  0.83899995  0.00053319  0.08806073  1
  O  O297  1  0.82940674  0.00103825  0.58936464  1
  O  O298  1  0.83766641  0.51287895  0.07652811  1
  O  O299  1  0.81079740  0.50962187  0.57801395  1
  O  O300  1  0.00987190  0.24310129  0.08277047  1
  O  O301  1  -0.01764740  0.24962868  0.58571931  1
  O  O302  1  -0.00594340  0.75755615  0.08927599  1
  O  O303  1  -0.01916927  0.75799597  0.58158088  1
  O  O304  1  0.32007388  0.23787297  0.07617554  1
  O  O305  1  0.37524400  0.25463968  0.58411956  1
  O  O306  1  0.31785567  0.74860673  0.09339760  1
  O  O307  1  0.34746182  0.73233707  0.57429071  1
  O  O308  1  0.66917448  0.24654354  0.08427633  1
  O  O309  1  0.66342363  0.24256962  0.58351808  1
  O  O310  1  0.68186730  0.75347552  0.08750271  1
  O  O311  1  0.67083042  0.75537067  0.58902077  1
  O  O312  1  0.16237081  0.00324200  0.41142137  1
  O  O313  1  0.14876904  0.01857552  0.93389829  1
  O  O314  1  0.18327184  0.50790027  0.41779130  1
  O  O315  1  0.13925317  0.49262251  0.91605146  1
  O  O316  1  0.49157766  0.00089237  0.41430035  1
  O  O317  1  0.50206683  0.00761272  0.91420900  1
  O  O318  1  0.47824299  0.49887149  0.41299183  1
  O  O319  1  0.50625178  0.49244858  0.91511587  1
  O  O320  1  0.81844293  0.00849165  0.41572314  1
  O  O321  1  0.81948721  -0.00179515  0.91809016  1
  O  O322  1  0.82399396  0.49180096  0.41103744  1
  O  O323  1  0.81106273  0.50077758  0.91639085  1
  O  O324  1  0.33538162  0.24494574  0.41187504  1
  O  O325  1  0.32497474  0.25297716  0.91521128  1
  O  O326  1  0.32965618  0.75491351  0.41421427  1
  O  O327  1  0.33455230  0.74557517  0.93741443  1
  O  O328  1  0.64374415  0.25176425  0.41073121  1
  O  O329  1  0.66385903  0.24911649  0.91668396  1
  O  O330  1  0.66577094  0.73238411  0.42579983  1
  O  O331  1  0.65051381  0.75042805  0.91679456  1
  O  O332  1  0.99066802  0.24903685  0.41362723  1
  O  O333  1  0.96658761  0.25309798  0.91473718  1
  O  O334  1  0.98993527  0.76362411  0.42406095  1
  O  O335  1  0.97738631  0.74485074  0.91769930  1
  O  O336  1  0.20953004  0.08428604  0.19491051  1
  O  O337  1  0.22293216  0.08721830  0.69161946  1
  O  O338  1  0.20903059  0.58430655  0.20218268  1
  O  O339  1  0.20979544  0.58005202  0.69421131  1
  O  O340  1  0.54143814  0.08342522  0.19220081  1
  O  O341  1  0.54751802  0.08296840  0.69671972  1
  O  O342  1  0.54619680  0.58272591  0.20028298  1
  O  O343  1  0.54868082  0.58053192  0.69555045  1
  O  O344  1  0.87444707  0.08448003  0.19594950  1
  O  O345  1  0.86973275  0.08421660  0.69658834  1
  O  O346  1  0.87795618  0.58405456  0.19436853  1
  O  O347  1  0.87118961  0.58493402  0.69268129  1
  O  O348  1  0.04129663  0.32896317  0.19097927  1
  O  O349  1  0.04125632  0.33884085  0.68789885  1
  O  O350  1  0.04179485  0.83623314  0.19878411  1
  O  O351  1  0.02666590  0.83389816  0.69422613  1
  O  O352  1  0.37577240  0.33123958  0.19837387  1
  O  O353  1  0.38320119  0.33609609  0.69288458  1
  O  O354  1  0.37605418  0.83421550  0.19668869  1
  O  O355  1  0.38295337  0.83264275  0.70048113  1
  O  O356  1  0.71025477  0.33046002  0.19149136  1
  O  O357  1  0.70794208  0.32846213  0.69060561  1
  O  O358  1  0.71506933  0.83648566  0.19619935  1
  O  O359  1  0.71283200  0.83429430  0.69944848  1
  O  O360  1  0.20979801  0.41505347  0.19092256  1
  O  O361  1  0.21257847  0.41657587  0.70154013  1
  O  O362  1  0.21083895  0.91412127  0.19785633  1
  O  O363  1  0.22543304  0.91911949  0.69107231  1
  O  O364  1  0.54325863  0.41377623  0.18950659  1
  O  O365  1  0.54575651  0.41783475  0.69511174  1
  O  O366  1  0.54480045  0.91749646  0.20129266  1
  O  O367  1  0.54678271  0.91735211  0.69679940  1
  O  O368  1  0.87966757  0.41644348  0.19941747  1
  O  O369  1  0.87650831  0.41986720  0.69603017  1
  O  O370  1  0.87740258  0.91996051  0.19891048  1
  O  O371  1  0.87106739  0.91753218  0.69891328  1
  O  O372  1  0.04149315  0.16440802  0.19393567  1
  O  O373  1  0.02848808  0.16391659  0.69152302  1
  O  O374  1  0.04452501  0.67143887  0.19525557  1
  O  O375  1  0.04391470  0.66587135  0.70355714  1
  O  O376  1  0.37255848  0.16371442  0.19211185  1
  O  O377  1  0.38342245  0.16868059  0.69127180  1
  O  O378  1  0.37649576  0.66583829  0.19558407  1
  O  O379  1  0.38065110  0.66256358  0.69358310  1
  O  O380  1  0.70859560  0.16521886  0.19403808  1
  O  O381  1  0.70900710  0.16437243  0.69599088  1
  O  O382  1  0.71257687  0.66798635  0.19611321  1
  O  O383  1  0.70923995  0.66913548  0.69672791  1
  O  O384  1  0.12122688  0.08766067  0.30432004  1
  O  O385  1  0.11331672  0.08621898  0.81384527  1
  O  O386  1  0.12453206  0.58650123  0.30848912  1
  O  O387  1  0.12256800  0.57835144  0.80771484  1
  O  O388  1  0.45748862  0.08315598  0.30273651  1
  O  O389  1  0.46339641  0.08820144  0.80525113  1
  O  O390  1  0.45258328  0.58172536  0.30397191  1
  O  O391  1  0.45899025  0.57747390  0.80821236  1
  O  O392  1  0.78823226  0.08719091  0.30458272  1
  O  O393  1  0.78995195  0.08183936  0.80838199  1
  O  O394  1  0.78884752  0.58004552  0.30422884  1
  O  O395  1  0.78878368  0.58476345  0.80631017  1
  O  O396  1  0.28965516  0.33048063  0.30429594  1
  O  O397  1  0.29691294  0.33352369  0.80445377  1
  O  O398  1  0.29022360  0.83448804  0.30556777  1
  O  O399  1  0.30420361  0.83176816  0.80653475  1
  O  O400  1  0.61932907  0.33227152  0.30036273  1
  O  O401  1  0.62462293  0.32907849  0.80546214  1
  O  O402  1  0.62420518  0.83129125  0.30233616  1
  O  O403  1  0.62573877  0.83406016  0.80781859  1
  O  O404  1  0.95607072  0.33019028  0.30418181  1
  O  O405  1  0.95502883  0.33612129  0.80361288  1
  O  O406  1  0.95691572  0.83889190  0.30901962  1
  O  O407  1  0.95362082  0.83227381  0.81092964  1
  O  O408  1  0.12152931  0.41505916  0.29625001  1
  O  O409  1  0.12005894  0.41624641  0.80383695  1
  O  O410  1  0.12155319  0.91715237  0.30540398  1
  O  O411  1  0.11153644  0.91742074  0.80950782  1
  O  O412  1  0.45686841  0.41684366  0.30175813  1
  O  O413  1  0.46097503  0.41341256  0.80501652  1
  O  O414  1  0.45575168  0.91627232  0.30773592  1
  O  O415  1  0.46627446  0.91898137  0.80865307  1
  O  O416  1  0.78508441  0.41292577  0.30098136  1
  O  O417  1  0.78817654  0.42074525  0.80445979  1
  O  O418  1  0.78949948  0.92063518  0.30888115  1
  O  O419  1  0.78829081  0.91684323  0.80830489  1
  O  O420  1  0.29146264  0.16461166  0.30294401  1
  O  O421  1  0.30463439  0.16981936  0.80537811  1
  O  O422  1  0.29278533  0.66987085  0.30542511  1
  O  O423  1  0.29151010  0.66326282  0.80163414  1
  O  O424  1  0.62149949  0.16695616  0.30215517  1
  O  O425  1  0.62593123  0.16602804  0.80628479  1
  O  O426  1  0.62345726  0.66449095  0.30712223  1
  O  O427  1  0.62932787  0.66767326  0.80678885  1
  O  O428  1  0.95666576  0.16619911  0.30414070  1
  O  O429  1  0.95088344  0.16191332  0.80902703  1
  O  O430  1  0.95504689  0.66842117  0.30073267  1
  O  O431  1  0.95110433  0.66477964  0.80638067  1
  F  F432  1  0.03660547  0.00119150  0.20086211  1
  F  F433  1  0.02578582  0.00169917  0.69950889  1
  F  F434  1  0.04281736  0.50406114  0.20276114  1
  F  F435  1  0.04460508  0.50040164  0.70256999  1
  F  F436  1  0.37868664  -0.00084837  0.20180720  1
  F  F437  1  0.38818432  0.00271031  0.70172317  1
  F  F438  1  0.37813498  0.49888135  0.20034286  1
  F  F439  1  0.38381806  0.49853283  0.70361514  1
  F  F440  1  0.71289235  0.00121078  0.20392688  1
  F  F441  1  0.71183891  -0.00012141  0.70510039  1
  F  F442  1  0.71257518  0.49975748  0.20011508  1
  F  F443  1  0.71077887  0.50621742  0.70045743  1
  F  F444  1  0.21017623  0.24738901  0.20159547  1
  F  F445  1  0.21992279  0.26093661  0.69566260  1
  F  F446  1  0.21031816  0.75247086  0.20500976  1
  F  F447  1  0.21736314  0.74044211  0.69918563  1
  F  F448  1  0.54472811  0.24725068  0.19896835  1
  F  F449  1  0.54997823  0.24915248  0.70131189  1
  F  F450  1  0.54648111  0.74854320  0.20262871  1
  F  F451  1  0.55154925  0.75628980  0.70054401  1
  F  F452  1  0.87792190  0.24740889  0.20065794  1
  F  F453  1  0.86997936  0.24811764  0.69930125  1
  F  F454  1  0.87816166  0.75568723  0.20491414  1
  F  F455  1  0.87586131  0.75055802  0.70645666  1
  F  F456  1  0.29344561  0.00076285  0.29970026  1
  F  F457  1  0.31057729  0.00223201  0.80422903  1
  F  F458  1  0.29102820  0.49638902  0.29700757  1
  F  F459  1  0.29136213  0.49959424  0.79952637  1
  F  F460  1  0.62200583  0.00466508  0.30006533  1
  F  F461  1  0.62471087  0.00086197  0.80089988  1
  F  F462  1  0.62106976  0.49428424  0.29596947  1
  F  F463  1  0.62178988  0.50505648  0.80420817  1
  F  F464  1  0.95306307  0.00412823  0.30097205  1
  F  F465  1  0.94886857  0.00021913  0.80274646  1
  F  F466  1  0.95487917  0.50139607  0.29904498  1
  F  F467  1  0.95219120  0.50271105  0.79757991  1
  F  F468  1  0.12094380  0.24829553  0.29566942  1
  F  F469  1  0.12205396  0.26304701  0.80220093  1
  F  F470  1  0.12192183  0.75242932  0.30005128  1
  F  F471  1  0.11823023  0.74093143  0.80665827  1
  F  F472  1  0.45650303  0.24673338  0.29610890  1
  F  F473  1  0.45837514  0.25184041  0.79527762  1
  F  F474  1  0.45518286  0.74893697  0.29739106  1
  F  F475  1  0.46126179  0.74831128  0.80175637  1
  F  F476  1  0.78562582  0.24959723  0.29566744  1
  F  F477  1  0.78376185  0.24099859  0.80585250  1
  F  F478  1  0.78840491  0.75072266  0.29997675  1
  F  F479  1  0.78693672  0.74978790  0.80139646  1
