# generated using pymatgen
data_K24Na3Li5Mg64Fe17Si79(O5F)48
_symmetry_space_group_name_H-M   'P 1'
_cell_length_a   16.10877904
_cell_length_b   18.60654775
_cell_length_c   20.55863373
_cell_angle_alpha   89.98588444
_cell_angle_beta   100.00800808
_cell_angle_gamma   90.02081399
_symmetry_Int_Tables_number   1
_chemical_formula_structural   K24Na3Li5Mg64Fe17Si79(O5F)48
_chemical_formula_sum   'K24 Na3 Li5 Mg64 Fe17 Si79 O240 F48'
_cell_volume   6068.24896968
_cell_formula_units_Z   1
loop_
 _symmetry_equiv_pos_site_id
 _symmetry_equiv_pos_as_xyz
  1  'x, y, z'
loop_
 _atom_site_type_symbol
 _atom_site_label
 _atom_site_symmetry_multiplicity
 _atom_site_fract_x
 _atom_site_fract_y
 _atom_site_fract_z
 _atom_site_occupancy
  K  K0  1  -0.00447257  -0.00733745  -0.00974705  1
  K  K1  1  -0.00495864  0.00623206  0.50976180  1
  K  K2  1  0.00370274  0.50297131  -0.00130336  1
  K  K3  1  0.00714363  0.50452844  0.50425730  1
  K  K4  1  0.32805972  0.00001219  -0.01455323  1
  K  K5  1  0.32889235  0.00059911  0.51409656  1
  K  K6  1  0.33044842  0.50576835  -0.00578339  1
  K  K7  1  0.33704517  0.50505940  0.50979124  1
  K  K8  1  0.66410249  0.00497320  -0.00909143  1
  K  K9  1  0.68139428  -0.00163694  0.51320628  1
  K  K10  1  0.65440546  0.50442384  -0.01584314  1
  K  K11  1  0.67012759  0.50258246  0.50859064  1
  K  K12  1  0.17178941  0.24917888  0.00249290  1
  K  K13  1  0.17000390  0.25352780  0.50450035  1
  K  K14  1  0.16772787  0.75260709  -0.01168123  1
  K  K15  1  0.17601236  0.74195751  0.51920268  1
  K  K16  1  0.48811369  0.24357480  -0.00766088  1
  K  K17  1  0.49846193  0.25563303  0.50615338  1
  K  K18  1  0.49224023  0.74720569  -0.01367555  1
  K  K19  1  0.50058448  0.73929983  0.51000608  1
  K  K20  1  0.83169101  0.24917870  -0.00741428  1
  K  K21  1  0.83442640  0.24480235  0.50352890  1
  K  K22  1  0.82791578  0.75091075  -0.01133124  1
  K  K23  1  0.82781313  0.75640658  0.51085676  1
  Na  Na24  1  0.83268769  0.00236261  0.74800196  1
  Na  Na25  1  0.33087414  0.08039179  0.74905818  1
  Na  Na26  1  0.83262955  0.16867606  0.75006882  1
  Li  Li27  1  0.50819402  0.50265186  0.75371402  1
  Li  Li28  1  0.16671619  0.49377391  0.25099363  1
  Li  Li29  1  0.16817615  0.67445021  0.74843461  1
  Li  Li30  1  0.16522544  0.82579644  0.74435824  1
  Li  Li31  1  0.66026572  0.42384158  0.75376825  1
  Mg  Mg32  1  0.16641309  -0.00237013  0.24292441  1
  Mg  Mg33  1  0.66749624  0.74707905  0.25408342  1
  Mg  Mg34  1  0.82897272  0.50188988  0.75238357  1
  Mg  Mg35  1  0.33225927  0.24958075  0.24498504  1
  Mg  Mg36  1  0.00057344  0.74841208  0.24824716  1
  Mg  Mg37  1  0.33381081  0.75080440  0.24591587  1
  Mg  Mg38  1  0.16572044  -0.00342275  0.74507467  1
  Mg  Mg39  1  0.50229797  0.00067265  0.24723421  1
  Mg  Mg40  1  0.16744842  0.50419693  0.74932567  1
  Mg  Mg41  1  0.33282522  0.24858087  0.75067353  1
  Mg  Mg42  1  0.66793166  0.25422198  0.75458746  1
  Mg  Mg43  1  0.49789127  0.49962508  0.25280724  1
  Mg  Mg44  1  0.32859438  0.74661398  0.74743966  1
  Mg  Mg45  1  -0.00248701  0.25063497  0.74630798  1
  Mg  Mg46  1  0.66757397  0.24974469  0.25373947  1
  Mg  Mg47  1  0.00464482  0.75066367  0.74968086  1
  Mg  Mg48  1  0.00111353  0.25181759  0.25265929  1
  Mg  Mg49  1  0.83551108  0.49745544  0.25477983  1
  Mg  Mg50  1  0.83496375  -0.00037654  0.25093718  1
  Mg  Mg51  1  0.66533008  0.74979663  0.75212948  1
  Mg  Mg52  1  0.49634959  0.00074258  0.75170499  1
  Mg  Mg53  1  0.66528768  0.58261966  0.75194034  1
  Mg  Mg54  1  0.50271944  0.33762070  0.75466706  1
  Mg  Mg55  1  0.50015495  0.66201162  0.74969099  1
  Mg  Mg56  1  0.32820568  0.91391951  0.74657039  1
  Mg  Mg57  1  -0.00185549  0.91413668  0.24597046  1
  Mg  Mg58  1  0.83470544  0.83316518  0.24957691  1
  Mg  Mg59  1  0.33261183  0.91649910  0.24397057  1
  Mg  Mg60  1  0.33552721  0.58390153  0.74944432  1
  Mg  Mg61  1  0.49945967  0.16758193  0.75309677  1
  Mg  Mg62  1  0.66712622  0.58322173  0.25617154  1
  Mg  Mg63  1  0.00488638  0.41538619  0.25197453  1
  Mg  Mg64  1  0.83152390  0.66621888  0.75334297  1
  Mg  Mg65  1  0.00021673  0.58611149  0.75044759  1
  Mg  Mg66  1  0.49781412  0.83322852  0.75104202  1
  Mg  Mg67  1  0.50248493  0.83413532  0.24975791  1
  Mg  Mg68  1  0.32879435  0.58238146  0.24782621  1
  Mg  Mg69  1  0.16529596  0.16506955  0.24471835  1
  Mg  Mg70  1  0.66764779  0.41545907  0.25392467  1
  Mg  Mg71  1  0.49697660  0.33389587  0.24793866  1
  Mg  Mg72  1  0.16505334  0.16540688  0.74653361  1
  Mg  Mg73  1  0.67076973  0.91432448  0.25181723  1
  Mg  Mg74  1  -0.00163295  0.41809063  0.75072868  1
  Mg  Mg75  1  -0.00009802  0.08360715  0.24947239  1
  Mg  Mg76  1  0.83260233  0.83468809  0.74810163  1
  Mg  Mg77  1  0.83038843  0.33665970  0.75230903  1
  Mg  Mg78  1  0.50116228  0.66505447  0.25338370  1
  Mg  Mg79  1  0.83651393  0.16483824  0.25490955  1
  Mg  Mg80  1  0.16615937  0.33711661  0.24931912  1
  Mg  Mg81  1  0.00014710  0.91469352  0.74658788  1
  Mg  Mg82  1  0.83770900  0.33303802  0.25526489  1
  Mg  Mg83  1  0.66657934  0.08539408  0.75350582  1
  Mg  Mg84  1  -0.00107786  0.08245092  0.74535917  1
  Mg  Mg85  1  0.33127489  0.08445853  0.24253738  1
  Mg  Mg86  1  0.00448287  0.58032393  0.25211690  1
  Mg  Mg87  1  0.66659105  0.91815765  0.74932367  1
  Mg  Mg88  1  0.16605602  0.83390761  0.24338760  1
  Mg  Mg89  1  0.83468002  0.66296688  0.25401350  1
  Mg  Mg90  1  0.16686986  0.33509771  0.75013826  1
  Mg  Mg91  1  0.32794260  0.41627208  0.24816727  1
  Mg  Mg92  1  0.16638347  0.66414537  0.24781366  1
  Mg  Mg93  1  0.67018631  0.08407988  0.25250163  1
  Mg  Mg94  1  0.49830715  0.16591934  0.24717806  1
  Mg  Mg95  1  0.33767609  0.41888585  0.75306368  1
  Fe  Fe96  1  0.86075659  0.91655492  0.60583512  1
  Fe  Fe97  1  0.35810325  0.16404513  0.10572211  1
  Fe  Fe98  1  0.47543164  0.08370915  0.89226123  1
  Fe  Fe99  1  0.98178153  0.33430904  0.39382707  1
  Fe  Fe100  1  0.81475056  0.57999949  0.89557337  1
  Fe  Fe101  1  0.80881591  0.92069866  0.88944550  1
  Fe  Fe102  1  0.85732359  0.91759090  0.10913731  1
  Fe  Fe103  1  0.64097084  0.66305946  0.39444371  1
  Fe  Fe104  1  0.18987751  0.91223725  0.10425172  1
  Fe  Fe105  1  0.46959350  0.58153974  0.89219692  1
  Fe  Fe106  1  0.81012791  0.08601813  0.39257895  1
  Fe  Fe107  1  0.36159641  0.66645733  0.60880137  1
  Fe  Fe108  1  0.19038611  0.42123133  0.10771994  1
  Fe  Fe109  1  0.64279765  0.66658691  0.89369631  1
  Fe  Fe110  1  0.18550068  0.08277728  0.60533446  1
  Fe  Fe111  1  0.14824375  0.42333960  0.39293505  1
  Fe  Fe112  1  0.69119413  0.66786712  0.61179603  1
  Si  Si113  1  0.85597044  0.41947105  0.61652033  1
  Si  Si114  1  0.46894567  0.91118414  0.88684169  1
  Si  Si115  1  0.02705073  0.66163329  0.61568858  1
  Si  Si116  1  0.97892951  0.16795566  0.88271867  1
  Si  Si117  1  0.64611243  0.17059102  0.89233430  1
  Si  Si118  1  0.81657174  0.41216705  0.89027599  1
  Si  Si119  1  0.30150896  0.83193182  0.88015147  1
  Si  Si120  1  0.53574360  0.08202245  0.11328956  1
  Si  Si121  1  0.64354016  0.83597585  0.38812854  1
  Si  Si122  1  0.30050188  0.66705598  0.88627215  1
  Si  Si123  1  0.81285055  0.91446953  0.38745534  1
  Si  Si124  1  0.18221430  0.08245539  0.10650906  1
  Si  Si125  1  0.85866129  0.08944752  0.61038529  1
  Si  Si126  1  0.69194897  0.33380689  0.61683430  1
  Si  Si127  1  0.02103860  0.16830044  0.11370340  1
  Si  Si128  1  0.47138108  0.08328859  0.38254560  1
  Si  Si129  1  0.30452913  0.16028777  0.38145327  1
  Si  Si130  1  0.52712787  0.09002876  0.61559993  1
  Si  Si131  1  0.02449056  0.82801196  0.10982009  1
  Si  Si132  1  0.18951262  0.91289649  0.60910124  1
  Si  Si133  1  0.47402619  0.40999311  0.89135034  1
  Si  Si134  1  0.30894584  0.32483219  0.38638802  1
  Si  Si135  1  0.13944631  0.91823235  0.87900741  1
  Si  Si136  1  0.02717671  0.82676018  0.60960081  1
  Si  Si137  1  0.64469007  0.33496644  0.88801457  1
  Si  Si138  1  0.46840388  0.41426843  0.38448605  1
  Si  Si139  1  0.02018648  0.17431332  0.60820335  1
  Si  Si140  1  0.29760160  0.16934627  0.88647838  1
  Si  Si141  1  0.52929130  0.41586273  0.11709460  1
  Si  Si142  1  0.19327334  0.58033745  0.61374914  1
  Si  Si143  1  0.35862007  0.33427918  0.61641858  1
  Si  Si144  1  0.19209509  0.41623920  0.61646879  1
  Si  Si145  1  0.46361426  0.58067631  0.38706240  1
  Si  Si146  1  0.97837494  0.66935954  0.88769103  1
  Si  Si147  1  0.97686463  0.82896005  0.38479177  1
  Si  Si148  1  0.85664163  0.08754436  0.11403246  1
  Si  Si149  1  0.36117995  0.17088169  0.61234079  1
  Si  Si150  1  0.36125908  0.33732457  0.10952672  1
  Si  Si151  1  0.69468099  0.82486571  0.11557954  1
  Si  Si152  1  0.13562330  0.08191046  0.88219879  1
  Si  Si153  1  0.30485291  0.33242789  0.88662184  1
  Si  Si154  1  0.18950273  0.59273164  0.11062366  1
  Si  Si155  1  0.36168794  0.66799189  0.11389161  1
  Si  Si156  1  0.02145198  0.33229453  0.11122972  1
  Si  Si157  1  0.69641741  0.17109605  0.11804185  1
  Si  Si158  1  0.14238053  0.91133757  0.38179437  1
  Si  Si159  1  0.52490929  0.57968919  0.11771048  1
  Si  Si160  1  0.53574019  0.91516178  0.11550571  1
  Si  Si161  1  0.30588027  0.67258144  0.38211861  1
  Si  Si162  1  0.85761592  0.41588159  0.11706962  1
  Si  Si163  1  0.31224903  0.83521040  0.38171458  1
  Si  Si164  1  0.14710272  0.59142230  0.38646763  1
  Si  Si165  1  0.63914821  0.83815592  0.88754021  1
  Si  Si166  1  0.01959911  0.66621975  0.11493817  1
  Si  Si167  1  0.36812424  0.83467917  0.11020035  1
  Si  Si168  1  0.52541191  0.41314687  0.61859890  1
  Si  Si169  1  0.85783450  0.58039133  0.11792062  1
  Si  Si170  1  0.97738777  0.66376662  0.38673510  1
  Si  Si171  1  0.63447981  0.16953739  0.38837643  1
  Si  Si172  1  0.14157455  0.07610039  0.38127308  1
  Si  Si173  1  0.52265493  0.92480304  0.61636330  1
  Si  Si174  1  0.13705748  0.58245369  0.88365957  1
  Si  Si175  1  0.97948537  0.83249908  0.88559662  1
  Si  Si176  1  0.35995455  0.83717387  0.61091956  1
  Si  Si177  1  0.47624222  0.91944642  0.38308959  1
  Si  Si178  1  0.97951223  0.33053967  0.88578365  1
  Si  Si179  1  0.98525912  0.16578436  0.38850590  1
  Si  Si180  1  0.68972149  0.17029209  0.61620640  1
  Si  Si181  1  0.69142316  0.66113185  0.11866043  1
  Si  Si182  1  0.02274647  0.33894931  0.61526211  1
  Si  Si183  1  0.81037109  0.09026729  0.88901223  1
  Si  Si184  1  0.52903074  0.57688687  0.61001066  1
  Si  Si185  1  0.63676252  0.33680994  0.38641292  1
  Si  Si186  1  0.69345738  0.33455717  0.11828258  1
  Si  Si187  1  0.68247301  0.83690109  0.60980934  1
  Si  Si188  1  0.81367170  0.57710482  0.39075497  1
  Si  Si189  1  0.80746388  0.41115956  0.38997398  1
  Si  Si190  1  0.14122367  0.41894612  0.88527821  1
  Si  Si191  1  0.86159201  0.58426390  0.61380618  1
  O  O192  1  0.26184699  0.10862321  0.07370562  1
  O  O193  1  0.28270272  0.12261407  0.57685051  1
  O  O194  1  0.27085518  0.63124962  0.08272426  1
  O  O195  1  0.26226095  0.61483393  0.57440361  1
  O  O196  1  0.62116381  0.11464608  0.08880892  1
  O  O197  1  0.60493084  0.12418764  0.58235680  1
  O  O198  1  0.60861814  0.61068775  0.09155859  1
  O  O199  1  0.60874398  0.60129364  0.57603171  1
  O  O200  1  0.94046504  0.11629549  0.08513541  1
  O  O201  1  0.92952583  0.13594282  0.57768416  1
  O  O202  1  0.94016852  0.61099691  0.08887861  1
  O  O203  1  0.94664669  0.60979371  0.58486848  1
  O  O204  1  0.09564342  0.36110769  0.07435091  1
  O  O205  1  0.10506894  0.37131166  0.58745417  1
  O  O206  1  0.11091597  0.83833643  0.08021423  1
  O  O207  1  0.11360834  0.85424499  0.58318247  1
  O  O208  1  0.45261255  0.36223513  0.08748866  1
  O  O209  1  0.43792547  0.36860424  0.58598956  1
  O  O210  1  0.45275263  0.86735588  0.08556470  1
  O  O211  1  0.43536088  0.88341448  0.58351278  1
  O  O212  1  0.77428148  0.36598713  0.08847858  1
  O  O213  1  0.77013696  0.37292174  0.58631052  1
  O  O214  1  0.77391766  0.84738813  0.08234891  1
  O  O215  1  0.75751665  0.86929355  0.57436677  1
  O  O216  1  0.29110749  0.39531786  0.07738227  1
  O  O217  1  0.27114857  0.37908667  0.58729083  1
  O  O218  1  0.28945220  0.88171285  0.07433811  1
  O  O219  1  0.27301802  0.88170960  0.58064026  1
  O  O220  1  0.61354160  0.38706592  0.08986674  1
  O  O221  1  0.60305952  0.37528690  0.58613647  1
  O  O222  1  0.61437939  0.87804349  0.08777293  1
  O  O223  1  0.60013673  0.89133931  0.58443471  1
  O  O224  1  0.93539400  0.38149792  0.08590984  1
  O  O225  1  0.93783671  0.38682490  0.58731350  1
  O  O226  1  0.95566855  0.88790920  0.07945067  1
  O  O227  1  0.94847676  0.87193034  0.56891373  1
  O  O228  1  0.10396137  0.14150017  0.08433309  1
  O  O229  1  0.09196244  0.14198901  0.57052609  1
  O  O230  1  0.10436726  0.64368144  0.08536556  1
  O  O231  1  0.10481110  0.62407297  0.58583138  1
  O  O232  1  0.45594856  0.12754199  0.07758980  1
  O  O233  1  0.44548272  0.14004074  0.58395664  1
  O  O234  1  0.43963340  0.62549331  0.08748122  1
  O  O235  1  0.44617616  0.62032194  0.57233275  1
  O  O236  1  0.78240901  0.14911226  0.09062966  1
  O  O237  1  0.76890665  0.13494667  0.58722733  1
  O  O238  1  0.77369973  0.62925079  0.09055694  1
  O  O239  1  0.78748256  0.63621279  0.57850064  1
  O  O240  1  0.05943909  0.10313058  0.41049765  1
  O  O241  1  0.05628621  0.11367340  0.91502636  1
  O  O242  1  0.06304933  0.61931142  0.41674182  1
  O  O243  1  0.05897848  0.61551514  0.91557206  1
  O  O244  1  0.38647793  0.10928896  0.41005279  1
  O  O245  1  0.38200987  0.12836136  0.92150190  1
  O  O246  1  0.37947061  0.61492190  0.41188823  1
  O  O247  1  0.38030290  0.62515185  0.92793780  1
  O  O248  1  0.71378838  0.12330492  0.42421142  1
  O  O249  1  0.73575300  0.12992445  0.92337498  1
  O  O250  1  0.73697526  0.60604600  0.42422341  1
  O  O251  1  0.73047903  0.61138571  0.93816034  1
  O  O252  1  0.23719143  0.35632379  0.42339539  1
  O  O253  1  0.23030790  0.37801546  0.91485734  1
  O  O254  1  0.22897684  0.86522174  0.40980409  1
  O  O255  1  0.22626086  0.87448529  0.90979305  1
  O  O256  1  0.55853144  0.37506317  0.41464491  1
  O  O257  1  0.56516627  0.36843968  0.91967196  1
  O  O258  1  0.56155087  0.87476589  0.41303284  1
  O  O259  1  0.54953542  0.85855097  0.91354349  1
  O  O260  1  0.87649650  0.35357013  0.42215898  1
  O  O261  1  0.89685022  0.35513929  0.91698032  1
  O  O262  1  0.89421517  0.86011728  0.41204742  1
  O  O263  1  0.90351906  0.86017353  0.92142244  1
  O  O264  1  0.05649337  0.40268408  0.43352454  1
  O  O265  1  0.06266637  0.38103876  0.91476444  1
  O  O266  1  0.06337178  0.87579437  0.41230255  1
  O  O267  1  0.06404249  0.88250296  0.91314184  1
  O  O268  1  0.39892722  0.36699781  0.41477840  1
  O  O269  1  0.39811758  0.36334226  0.91926097  1
  O  O270  1  0.39403477  0.88626223  0.41095768  1
  O  O271  1  0.38923016  0.87222677  0.91467111  1
  O  O272  1  0.71826174  0.38725055  0.41504764  1
  O  O273  1  0.73211398  0.37950604  0.91724547  1
  O  O274  1  0.72817260  0.88483891  0.41431415  1
  O  O275  1  0.70821290  0.89786499  0.92001505  1
  O  O276  1  0.22468167  0.12556197  0.41094610  1
  O  O277  1  0.21732708  0.13108054  0.91384588  1
  O  O278  1  0.21902439  0.65526646  0.40985455  1
  O  O279  1  0.21839299  0.63160319  0.91407388  1
  O  O280  1  0.54767726  0.13886033  0.41265451  1
  O  O281  1  0.57382103  0.13626221  0.92893553  1
  O  O282  1  0.54515550  0.62418128  0.42277300  1
  O  O283  1  0.55859374  0.63389555  0.93758119  1
  O  O284  1  0.90385072  0.14479476  0.42147326  1
  O  O285  1  0.89380179  0.14474934  0.91084207  1
  O  O286  1  0.90000247  0.62518881  0.41625740  1
  O  O287  1  0.90440014  0.64464971  0.92642512  1
  O  O288  1  0.14884298  0.00446919  0.07730131  1
  O  O289  1  0.16602635  -0.01146022  0.56990887  1
  O  O290  1  0.16965914  0.51629551  0.07449987  1
  O  O291  1  0.17667875  0.49652476  0.58489585  1
  O  O292  1  0.52704166  -0.00229429  0.08770971  1
  O  O293  1  0.50974465  0.00786707  0.58669357  1
  O  O294  1  0.50946080  0.49765440  0.08874060  1
  O  O295  1  0.51135686  0.49203695  0.58427580  1
  O  O296  1  0.82438431  0.01204195  0.08078248  1
  O  O297  1  0.84657093  0.01261891  0.57285092  1
  O  O298  1  0.83984346  0.49833490  0.08907999  1
  O  O299  1  0.84143397  0.50062261  0.58562033  1
  O  O300  1  -0.00442763  0.24923406  0.08489141  1
  O  O301  1  0.00468436  0.25924043  0.58348438  1
  O  O302  1  -0.01210787  0.74585158  0.08780387  1
  O  O303  1  0.01426589  0.74196252  0.58205636  1
  O  O304  1  0.33936657  0.25902974  0.07599899  1
  O  O305  1  0.34602233  0.25415620  0.58232754  1
  O  O306  1  0.36093696  0.75005901  0.08465091  1
  O  O307  1  0.35261652  0.76063649  0.57276537  1
  O  O308  1  0.67157494  0.25287584  0.08966989  1
  O  O309  1  0.68005179  0.25236211  0.58371545  1
  O  O310  1  0.66731213  0.74205061  0.09094934  1
  O  O311  1  0.65541496  0.75875366  0.57758443  1
  O  O312  1  0.16118264  -0.00634666  0.40945429  1
  O  O313  1  0.15327159  0.00008459  0.91133857  1
  O  O314  1  0.18308189  0.51816898  0.42177725  1
  O  O315  1  0.15201327  0.50040485  0.91570364  1
  O  O316  1  0.49170974  0.00176493  0.41191598  1
  O  O317  1  0.48354972  -0.01197605  0.92457979  1
  O  O318  1  0.46896728  0.49620579  0.41327089  1
  O  O319  1  0.47826958  0.48642398  0.92843716  1
  O  O320  1  0.83730163  -0.00860825  0.42096653  1
  O  O321  1  0.83613725  0.01419403  0.92514374  1
  O  O322  1  0.83359332  0.49342308  0.41642768  1
  O  O323  1  0.84410426  0.48593588  0.92950546  1
  O  O324  1  0.32683587  0.24032759  0.41227924  1
  O  O325  1  0.29982634  0.25193790  0.91759542  1
  O  O326  1  0.33514115  0.75370551  0.40977012  1
  O  O327  1  0.30386164  0.75135889  0.91374065  1
  O  O328  1  0.64546219  0.25425339  0.41527745  1
  O  O329  1  0.66154330  0.25421326  0.92040328  1
  O  O330  1  0.65882564  0.75864031  0.42282246  1
  O  O331  1  0.66941504  0.76160850  0.92118666  1
  O  O332  1  1.02508347  0.24140645  0.41747982  1
  O  O333  1  1.00447448  0.24905362  0.91391914  1
  O  O334  1  0.99086731  0.74684035  0.41432018  1
  O  O335  1  1.00876702  0.75091204  0.91312364  1
  O  O336  1  0.20617508  0.08274258  0.18865491  1
  O  O337  1  0.19791620  0.08349464  0.69504220  1
  O  O338  1  0.21194166  0.59067142  0.19079814  1
  O  O339  1  0.21319174  0.57854893  0.69336231  1
  O  O340  1  0.54824034  0.08356753  0.19472000  1
  O  O341  1  0.54319693  0.08901987  0.69532578  1
  O  O342  1  0.54175758  0.58044194  0.19820321  1
  O  O343  1  0.54545732  0.58449654  0.68978483  1
  O  O344  1  0.87810636  0.08498562  0.19512711  1
  O  O345  1  0.88604370  0.08671643  0.68846230  1
  O  O346  1  0.87608642  0.58117193  0.19854664  1
  O  O347  1  0.87858113  0.58296211  0.69437938  1
  O  O348  1  0.04200684  0.33168648  0.19180444  1
  O  O349  1  0.04300844  0.33775829  0.69557153  1
  O  O350  1  0.04210866  0.83056238  0.19198556  1
  O  O351  1  0.03804069  0.83019632  0.68916929  1
  O  O352  1  0.37756518  0.33449066  0.19165183  1
  O  O353  1  0.37524853  0.33412098  0.69655210  1
  O  O354  1  0.38082442  0.83429400  0.19167349  1
  O  O355  1  0.37670816  0.83282274  0.69129156  1
  O  O356  1  0.71110214  0.33394062  0.19896147  1
  O  O357  1  0.71172953  0.33178902  0.69582493  1
  O  O358  1  0.71088440  0.82884037  0.19709345  1
  O  O359  1  0.70410056  0.83466377  0.69079955  1
  O  O360  1  0.21284487  0.41400139  0.19789556  1
  O  O361  1  0.20962570  0.41608587  0.69673701  1
  O  O362  1  0.21261413  0.91536482  0.19677941  1
  O  O363  1  0.21010764  0.91928884  0.68851919  1
  O  O364  1  0.54573048  0.41668463  0.19793486  1
  O  O365  1  0.54116269  0.41239901  0.69711332  1
  O  O366  1  0.54833911  0.91556859  0.19641411  1
  O  O367  1  0.54036823  0.91918003  0.69632106  1
  O  O368  1  0.87384953  0.41633790  0.19737571  1
  O  O369  1  0.87561926  0.41903359  0.69657903  1
  O  O370  1  0.87720396  0.91581232  0.20161570  1
  O  O371  1  0.88283502  0.90859463  0.69503339  1
  O  O372  1  0.04095811  0.16664672  0.19452523  1
  O  O373  1  0.04180431  0.17154644  0.68896235  1
  O  O374  1  0.04113652  0.66483052  0.19564024  1
  O  O375  1  0.03928574  0.66475815  0.69484947  1
  O  O376  1  0.37879152  0.16634510  0.19817735  1
  O  O377  1  0.37983686  0.17552833  0.69191968  1
  O  O378  1  0.37878791  0.66693603  0.19465197  1
  O  O379  1  0.37845468  0.66625562  0.69930228  1
  O  O380  1  0.71052038  0.17008309  0.19848039  1
  O  O381  1  0.69734905  0.17121639  0.69497378  1
  O  O382  1  0.71203745  0.66189050  0.19935777  1
  O  O383  1  0.71218594  0.66811984  0.70233173  1
  O  O384  1  0.12535382  0.07955157  0.30064431  1
  O  O385  1  0.12032804  0.08478789  0.80241388  1
  O  O386  1  0.12330216  0.58956630  0.30617487  1
  O  O387  1  0.11892578  0.57795980  0.80455791  1
  O  O388  1  0.45721441  0.08185705  0.30216942  1
  O  O389  1  0.46421898  0.08461432  0.80255716  1
  O  O390  1  0.45278888  0.58276367  0.30596879  1
  O  O391  1  0.45434399  0.58198963  0.80210851  1
  O  O392  1  0.78928904  0.08289268  0.30033514  1
  O  O393  1  0.77994503  0.08585284  0.81103700  1
  O  O394  1  0.79270709  0.58016119  0.30939649  1
  O  O395  1  0.79182786  0.58291435  0.80381579  1
  O  O396  1  0.29273664  0.32836082  0.30548472  1
  O  O397  1  0.28834428  0.33446417  0.80621995  1
  O  O398  1  0.29385055  0.83436361  0.30132412  1
  O  O399  1  0.29106683  0.83047266  0.80111211  1
  O  O400  1  0.62084448  0.33401660  0.30575905  1
  O  O401  1  0.62240017  0.33320860  0.80881113  1
  O  O402  1  0.62445567  0.83371555  0.30662671  1
  O  O403  1  0.62041737  0.83602995  0.80593735  1
  O  O404  1  0.95703565  0.33387709  0.30068905  1
  O  O405  1  0.96039789  0.33436702  0.80566903  1
  O  O406  1  0.95992655  0.82942323  0.30425780  1
  O  O407  1  0.95930553  0.83236390  0.80528388  1
  O  O408  1  0.12146613  0.41367465  0.30215323  1
  O  O409  1  0.12292467  0.41711416  0.80503001  1
  O  O410  1  0.12221345  0.91276209  0.30143812  1
  O  O411  1  0.12003003  0.91843207  0.79997716  1
  O  O412  1  0.45427349  0.41462603  0.30388973  1
  O  O413  1  0.45340059  0.41005800  0.81149912  1
  O  O414  1  0.45760122  0.91784472  0.30228882  1
  O  O415  1  0.45257266  0.91549568  0.80611200  1
  O  O416  1  0.78902267  0.41407559  0.30849145  1
  O  O417  1  0.80127727  0.41748616  0.81065782  1
  O  O418  1  0.79137083  0.91442316  0.30638218  1
  O  O419  1  0.78341228  0.91005663  0.80028100  1
  O  O420  1  0.28681398  0.16252410  0.30111196  1
  O  O421  1  0.28208786  0.17508430  0.80687749  1
  O  O422  1  0.29053460  0.66988204  0.30159723  1
  O  O423  1  0.29112938  0.66430320  0.80697449  1
  O  O424  1  0.62098394  0.16782861  0.30714243  1
  O  O425  1  0.62473401  0.17000280  0.81152358  1
  O  O426  1  0.62120215  0.66506998  0.30196569  1
  O  O427  1  0.61944804  0.66693483  0.80189188  1
  O  O428  1  0.96125286  0.16516853  0.30650163  1
  O  O429  1  0.96881574  0.16898879  0.80367794  1
  O  O430  1  0.95809755  0.66449420  0.30602378  1
  O  O431  1  0.95736761  0.66602027  0.80703923  1
  F  F432  1  0.04357369  -0.00067892  0.20074503  1
  F  F433  1  0.04434304  -0.00052713  0.69594824  1
  F  F434  1  0.03605712  0.49996757  0.19996669  1
  F  F435  1  0.04484226  0.49881935  0.70112358  1
  F  F436  1  0.38187958  -0.00026437  0.19828763  1
  F  F437  1  0.38197620  -0.01042886  0.69671696  1
  F  F438  1  0.38084643  0.50073414  0.20113040  1
  F  F439  1  0.36944282  0.49684458  0.69970289  1
  F  F440  1  0.71081662  -0.00213950  0.20295492  1
  F  F441  1  0.69440031  0.00446054  0.69670404  1
  F  F442  1  0.71209839  0.49913167  0.20720123  1
  F  F443  1  0.71325413  0.50018670  0.70154035  1
  F  F444  1  0.21167088  0.24906438  0.19967647  1
  F  F445  1  0.21144508  0.25339058  0.70023875  1
  F  F446  1  0.21362870  0.74975436  0.19961345  1
  F  F447  1  0.21477169  0.74660658  0.69450681  1
  F  F448  1  0.54765494  0.25078151  0.20284017  1
  F  F449  1  0.54509334  0.25229923  0.70688739  1
  F  F450  1  0.54560779  0.74979760  0.20298265  1
  F  F451  1  0.54323134  0.75255895  0.70220508  1
  F  F452  1  0.87642195  0.24824217  0.20456192  1
  F  F453  1  0.88151205  0.26426103  0.69832454  1
  F  F454  1  0.87777783  0.74588403  0.20452366  1
  F  F455  1  0.87943756  0.74734054  0.70430265  1
  F  F456  1  0.28992541  0.00144565  0.29348382  1
  F  F457  1  0.28129134  -0.01179765  0.80065728  1
  F  F458  1  0.29530954  0.50102785  0.29831635  1
  F  F459  1  0.28588527  0.49830079  0.80085641  1
  F  F460  1  0.62155915  -0.00035037  0.29849445  1
  F  F461  1  0.61767175  0.00105954  0.79848404  1
  F  F462  1  0.61979045  0.49815069  0.30172012  1
  F  F463  1  0.62425475  0.50363944  0.80306982  1
  F  F464  1  0.95870680  -0.00048449  0.29836422  1
  F  F465  1  0.96951484  0.00090441  0.79952246  1
  F  F466  1  0.95470876  0.50015098  0.30062047  1
  F  F467  1  0.95601896  0.50064667  0.79790469  1
  F  F468  1  0.12411679  0.24732006  0.29434074  1
  F  F469  1  0.11991901  0.25220045  0.79436888  1
  F  F470  1  0.12293175  0.75099562  0.29425878  1
  F  F471  1  0.12000089  0.74976588  0.79792328  1
  F  F472  1  0.45529650  0.25105884  0.29702273  1
  F  F473  1  0.45266959  0.25114726  0.80060181  1
  F  F474  1  0.45417666  0.75172080  0.29693888  1
  F  F475  1  0.45228986  0.75177408  0.79798679  1
  F  F476  1  0.78720754  0.24990519  0.30145698  1
  F  F477  1  0.78546438  0.26095684  0.80420924  1
  F  F478  1  0.79015706  0.74808986  0.30023856  1
  F  F479  1  0.78874663  0.75280893  0.79892669  1
