# generated using pymatgen
data_K24Na3Li5Mg64Fe17Si79(O5F)48
_symmetry_space_group_name_H-M   'P 1'
_cell_length_a   16.08921039
_cell_length_b   18.57286326
_cell_length_c   20.54652860
_cell_angle_alpha   89.99749332
_cell_angle_beta   100.00946885
_cell_angle_gamma   90.02043360
_symmetry_Int_Tables_number   1
_chemical_formula_structural   K24Na3Li5Mg64Fe17Si79(O5F)48
_chemical_formula_sum   'K24 Na3 Li5 Mg64 Fe17 Si79 O240 F48'
_cell_volume   6046.31569097
_cell_formula_units_Z   1
loop_
 _symmetry_equiv_pos_site_id
 _symmetry_equiv_pos_as_xyz
  1  'x, y, z'
loop_
 _atom_site_type_symbol
 _atom_site_label
 _atom_site_symmetry_multiplicity
 _atom_site_fract_x
 _atom_site_fract_y
 _atom_site_fract_z
 _atom_site_occupancy
  K  K0  1  -0.00201674  -0.00173677  -0.00475766  1
  K  K1  1  -0.00181354  0.00434376  0.49802569  1
  K  K2  1  0.01433621  0.49693619  0.00108606  1
  K  K3  1  0.00284302  0.50828559  0.49999920  1
  K  K4  1  0.33220983  0.00330384  0.00696568  1
  K  K5  1  0.33454841  -0.00719112  0.49425937  1
  K  K6  1  0.33066614  0.51280387  0.00827690  1
  K  K7  1  0.33928897  0.50152561  0.49177899  1
  K  K8  1  0.67067986  -0.00425419  0.00315301  1
  K  K9  1  0.66617204  -0.00866447  0.49813427  1
  K  K10  1  0.66244366  0.50757892  0.01216839  1
  K  K11  1  0.66285552  0.50670274  0.48489689  1
  K  K12  1  0.16990707  0.24836169  0.00257776  1
  K  K13  1  0.15911761  0.24700185  0.49885851  1
  K  K14  1  0.16614727  0.74557403  0.00000744  1
  K  K15  1  0.15797425  0.75530523  0.49975734  1
  K  K16  1  0.48886190  0.23990263  0.00939663  1
  K  K17  1  0.50472427  0.24532088  0.49172606  1
  K  K18  1  0.50168692  0.74256246  0.01319022  1
  K  K19  1  0.50407507  0.74963969  0.49385385  1
  K  K20  1  0.84407870  0.24430005  -0.00151829  1
  K  K21  1  0.83201196  0.25255844  0.49669598  1
  K  K22  1  0.83276838  0.75582732  0.00021992  1
  K  K23  1  0.83491591  0.74460614  0.49747979  1
  Na  Na24  1  0.66647510  0.74482896  0.24768559  1
  Na  Na25  1  -0.00018492  0.08260199  0.75594566  1
  Na  Na26  1  0.16275984  0.16754038  0.75558109  1
  Li  Li27  1  0.66887260  0.75126429  0.74608662  1
  Li  Li28  1  0.16218407  0.50070898  0.75259523  1
  Li  Li29  1  0.66415592  0.58713191  0.24942451  1
  Li  Li30  1  0.84005171  0.16419837  0.75390802  1
  Li  Li31  1  0.32848268  0.91677345  0.24317575  1
  Mg  Mg32  1  0.83344025  0.50046542  0.75034010  1
  Mg  Mg33  1  0.00002096  0.25144028  0.25615653  1
  Mg  Mg34  1  0.66569794  0.24940798  0.25383748  1
  Mg  Mg35  1  0.50335706  0.50262620  0.25148037  1
  Mg  Mg36  1  0.33526136  0.24999371  0.24673803  1
  Mg  Mg37  1  0.83013972  0.50138624  0.25156027  1
  Mg  Mg38  1  0.16727280  -0.00009026  0.74995626  1
  Mg  Mg39  1  0.66800631  0.24962451  0.75143943  1
  Mg  Mg40  1  0.33359468  0.74896677  0.74890149  1
  Mg  Mg41  1  0.49692700  -0.00261950  0.24530684  1
  Mg  Mg42  1  0.83326455  -0.00016060  0.25363163  1
  Mg  Mg43  1  0.33283145  0.75450218  0.24674884  1
  Mg  Mg44  1  0.00006498  0.75262152  0.24842967  1
  Mg  Mg45  1  0.16899638  0.49892019  0.24874365  1
  Mg  Mg46  1  0.49842044  0.50077926  0.75094715  1
  Mg  Mg47  1  0.50231513  -0.00152138  0.74551000  1
  Mg  Mg48  1  0.33057236  0.24977884  0.75052996  1
  Mg  Mg49  1  0.16884242  -0.00050594  0.24881511  1
  Mg  Mg50  1  -0.00317111  0.24865714  0.75406901  1
  Mg  Mg51  1  0.00194537  0.74927246  0.74811019  1
  Mg  Mg52  1  0.83403391  0.00284435  0.75108159  1
  Mg  Mg53  1  0.33195372  0.08341451  0.74890247  1
  Mg  Mg54  1  0.50111964  0.66736626  0.74893905  1
  Mg  Mg55  1  0.00146869  0.58362832  0.25047761  1
  Mg  Mg56  1  0.50273407  0.66530197  0.24964638  1
  Mg  Mg57  1  0.00302328  0.58353399  0.74906306  1
  Mg  Mg58  1  0.83165303  0.83358851  0.74627013  1
  Mg  Mg59  1  0.16860746  0.33617847  0.24960758  1
  Mg  Mg60  1  0.66617115  0.41685381  0.75179017  1
  Mg  Mg61  1  0.66644037  0.58690449  0.75011438  1
  Mg  Mg62  1  0.66972949  0.08452352  0.74929728  1
  Mg  Mg63  1  0.49806790  0.16445916  0.24758908  1
  Mg  Mg64  1  0.66568805  0.91296335  0.74593147  1
  Mg  Mg65  1  0.83559000  0.83287724  0.25130889  1
  Mg  Mg66  1  0.16484529  0.83341683  0.74645955  1
  Mg  Mg67  1  0.49844566  0.33483745  0.75054684  1
  Mg  Mg68  1  0.16362613  0.66273113  0.74815647  1
  Mg  Mg69  1  0.33537157  0.58589297  0.24840607  1
  Mg  Mg70  1  0.33509335  0.91492591  0.74547599  1
  Mg  Mg71  1  0.49929328  0.16579308  0.74781878  1
  Mg  Mg72  1  0.66836206  0.91344665  0.25118551  1
  Mg  Mg73  1  0.16644947  0.83670434  0.24791030  1
  Mg  Mg74  1  0.00030787  0.08605488  0.25585444  1
  Mg  Mg75  1  0.66856951  0.08247900  0.25308632  1
  Mg  Mg76  1  0.66492471  0.41762576  0.25124944  1
  Mg  Mg77  1  0.00253399  0.41689657  0.75474743  1
  Mg  Mg78  1  0.50354935  0.83216981  0.74496236  1
  Mg  Mg79  1  0.33089304  0.08185624  0.24303629  1
  Mg  Mg80  1  0.49985184  0.33466013  0.24865560  1
  Mg  Mg81  1  0.83435840  0.33516572  0.25764627  1
  Mg  Mg82  1  0.33506694  0.41538647  0.25006315  1
  Mg  Mg83  1  0.32895548  0.58252830  0.75058823  1
  Mg  Mg84  1  0.16650466  0.16643591  0.24929823  1
  Mg  Mg85  1  0.00304435  0.41678797  0.25351907  1
  Mg  Mg86  1  -0.00030725  0.91593435  0.74744928  1
  Mg  Mg87  1  0.32856893  0.41717902  0.75182876  1
  Mg  Mg88  1  0.83450318  0.33116200  0.75597127  1
  Mg  Mg89  1  0.16417363  0.33498197  0.75235443  1
  Mg  Mg90  1  0.00151804  0.91580785  0.24877295  1
  Mg  Mg91  1  0.16687604  0.66769411  0.24902414  1
  Mg  Mg92  1  0.49755644  0.83288598  0.24677698  1
  Mg  Mg93  1  0.83263436  0.66590406  0.24924639  1
  Mg  Mg94  1  0.83543568  0.16581068  0.25704646  1
  Mg  Mg95  1  0.83273875  0.66767773  0.74960028  1
  Fe  Fe96  1  0.47476348  0.58580887  0.39151086  1
  Fe  Fe97  1  0.02257909  0.83965631  0.60746479  1
  Fe  Fe98  1  0.35551128  0.15870606  0.10595703  1
  Fe  Fe99  1  0.36340890  0.33337782  0.10644070  1
  Fe  Fe100  1  0.97735712  0.17178955  0.39695761  1
  Fe  Fe101  1  0.18529366  0.91501500  0.10674373  1
  Fe  Fe102  1  0.14819130  0.41902065  0.39163247  1
  Fe  Fe103  1  0.64078379  0.32981376  0.39012618  1
  Fe  Fe104  1  0.97814643  0.83201293  0.38955915  1
  Fe  Fe105  1  0.97817917  0.16509650  0.89638900  1
  Fe  Fe106  1  0.19315883  0.41978193  0.10757460  1
  Fe  Fe107  1  0.02216225  0.66541295  0.60613021  1
  Fe  Fe108  1  0.52633700  0.91340436  0.60527928  1
  Fe  Fe109  1  0.01771940  0.83050437  0.10551472  1
  Fe  Fe110  1  0.52829595  0.58586879  0.10920524  1
  Fe  Fe111  1  0.14334580  0.58454835  0.89070064  1
  Fe  Fe112  1  0.80676424  0.07879454  0.39435149  1
  Si  Si113  1  0.80607041  0.42165782  0.39016161  1
  Si  Si114  1  0.30851668  0.32915745  0.88674974  1
  Si  Si115  1  0.80302824  0.07902434  0.88928647  1
  Si  Si116  1  0.47093608  0.41338707  0.39024336  1
  Si  Si117  1  0.47764301  0.08302548  0.88378039  1
  Si  Si118  1  0.64061813  0.16772414  0.88542517  1
  Si  Si119  1  0.47393637  0.58119594  0.88498829  1
  Si  Si120  1  0.14680755  0.08494466  0.38834689  1
  Si  Si121  1  0.86052197  0.41340584  0.11828392  1
  Si  Si122  1  0.86158828  0.57669728  0.11454772  1
  Si  Si123  1  0.97437203  0.33738251  0.89207052  1
  Si  Si124  1  0.69470952  0.16898931  0.11726370  1
  Si  Si125  1  0.70019705  0.83354677  0.11398502  1
  Si  Si126  1  0.84995582  0.08818769  0.61667944  1
  Si  Si127  1  0.63594541  0.15844525  0.38861711  1
  Si  Si128  1  0.14591171  0.92141145  0.38747722  1
  Si  Si129  1  0.80297790  0.58605680  0.88614208  1
  Si  Si130  1  0.35726005  0.33648629  0.61557938  1
  Si  Si131  1  0.96914878  0.66844350  0.88774521  1
  Si  Si132  1  0.53401109  0.41453812  0.11020587  1
  Si  Si133  1  0.52387705  0.41994931  0.61558609  1
  Si  Si134  1  0.30747781  0.83609244  0.38241851  1
  Si  Si135  1  0.63689347  0.83523385  0.38375253  1
  Si  Si136  1  0.52046503  0.08659602  0.61012188  1
  Si  Si137  1  0.17883842  0.08288052  0.11033011  1
  Si  Si138  1  0.63907483  0.83054495  0.88302393  1
  Si  Si139  1  0.02347984  0.33241682  0.11528686  1
  Si  Si140  1  0.98051359  0.66215414  0.38462050  1
  Si  Si141  1  0.01990409  0.16689652  0.61649301  1
  Si  Si142  1  0.85634910  0.41097433  0.61856147  1
  Si  Si143  1  0.81111415  0.58766132  0.38474191  1
  Si  Si144  1  0.35527642  0.17085979  0.61371226  1
  Si  Si145  1  0.97274799  0.83490993  0.88303097  1
  Si  Si146  1  0.15091055  0.07520408  0.89165032  1
  Si  Si147  1  0.19882845  0.91934092  0.61074554  1
  Si  Si148  1  0.53247881  0.91092772  0.11249716  1
  Si  Si149  1  0.47285673  0.41489858  0.88659102  1
  Si  Si150  1  0.85490588  0.57570444  0.61318203  1
  Si  Si151  1  0.80584492  0.42023120  0.88762342  1
  Si  Si152  1  0.14453546  0.41399074  0.88856749  1
  Si  Si153  1  0.69489545  0.66426021  0.61490227  1
  Si  Si154  1  0.85677576  0.92517004  0.61180369  1
  Si  Si155  1  0.31315008  0.83419764  0.88304493  1
  Si  Si156  1  0.18721993  0.59174407  0.11295280  1
  Si  Si157  1  0.19062210  0.08460099  0.61474495  1
  Si  Si158  1  0.68822574  0.33418286  0.61701602  1
  Si  Si159  1  0.30788567  0.32650215  0.38765796  1
  Si  Si160  1  0.97586117  0.34396054  0.39283820  1
  Si  Si161  1  0.69993847  0.83138218  0.60997731  1
  Si  Si162  1  0.64050963  0.33422158  0.88658721  1
  Si  Si163  1  0.85855087  0.08789305  0.11725584  1
  Si  Si164  1  0.35764131  0.66319719  0.61488487  1
  Si  Si165  1  0.47353935  0.91608942  0.38102586  1
  Si  Si166  1  0.31003036  0.16442188  0.38262120  1
  Si  Si167  1  0.64344532  0.66901052  0.38911778  1
  Si  Si168  1  0.02167343  0.16973625  0.11769939  1
  Si  Si169  1  0.31332526  0.67022970  0.88653711  1
  Si  Si170  1  0.47688854  0.91775562  0.88292197  1
  Si  Si171  1  0.30405036  0.67327083  0.38610401  1
  Si  Si172  1  0.63634160  0.66557704  0.88451118  1
  Si  Si173  1  0.47005764  0.07961828  0.38165407  1
  Si  Si174  1  0.19598581  0.58069939  0.61205174  1
  Si  Si175  1  0.36054993  0.83846926  0.11059835  1
  Si  Si176  1  0.31372585  0.16275520  0.88617684  1
  Si  Si177  1  0.69895265  0.33198720  0.11799579  1
  Si  Si178  1  0.18981935  0.41498519  0.61744378  1
  Si  Si179  1  0.02354235  0.33118993  0.61662110  1
  Si  Si180  1  0.80716839  0.90946861  0.38919845  1
  Si  Si181  1  0.68646871  0.16998832  0.61522300  1
  Si  Si182  1  0.85540313  0.92524899  0.11124341  1
  Si  Si183  1  0.52593874  0.58633468  0.61519097  1
  Si  Si184  1  0.14595420  0.91180097  0.88593157  1
  Si  Si185  1  0.70400168  0.66649480  0.10991441  1
  Si  Si186  1  0.35887224  0.82778625  0.61103927  1
  Si  Si187  1  0.80390270  0.91390658  0.88375071  1
  Si  Si188  1  0.53392478  0.07757696  0.11124361  1
  Si  Si189  1  0.01780741  0.66363448  0.11362174  1
  Si  Si190  1  0.35512709  0.67267183  0.11111530  1
  Si  Si191  1  0.14658925  0.58611772  0.38462382  1
  O  O192  1  0.25922210  0.10215578  0.07573338  1
  O  O193  1  0.26526942  0.13064532  0.58499203  1
  O  O194  1  0.26561165  0.62978469  0.08345037  1
  O  O195  1  0.28388113  0.60598373  0.58484022  1
  O  O196  1  0.61666560  0.11561801  0.08520692  1
  O  O197  1  0.59987185  0.12602488  0.58261616  1
  O  O198  1  0.61726196  0.63035719  0.07161196  1
  O  O199  1  0.60470986  0.62251094  0.58644278  1
  O  O200  1  0.94096594  0.11724817  0.08784907  1
  O  O201  1  0.93248239  0.12136104  0.58765561  1
  O  O202  1  0.94903567  0.59776972  0.08774619  1
  O  O203  1  0.93000000  0.60204434  0.57698454  1
  O  O204  1  0.09996520  0.35623622  0.07912464  1
  O  O205  1  0.10301957  0.36943876  0.58801626  1
  O  O206  1  0.10770813  0.84940955  0.06361993  1
  O  O207  1  0.12005107  0.87247356  0.57607767  1
  O  O208  1  0.46658964  0.35433504  0.07804617  1
  O  O209  1  0.43648257  0.37540924  0.58704321  1
  O  O210  1  0.44619162  0.86749894  0.08175954  1
  O  O211  1  0.43733802  0.84853572  0.57535340  1
  O  O212  1  0.78325604  0.35792036  0.08827932  1
  O  O213  1  0.77135569  0.36324121  0.58917153  1
  O  O214  1  0.76777776  0.88082573  0.07990818  1
  O  O215  1  0.78168175  0.86653263  0.58256924  1
  O  O216  1  0.28363943  0.39900471  0.06724246  1
  O  O217  1  0.26937173  0.37856963  0.58677905  1
  O  O218  1  0.28686037  0.89154813  0.07547952  1
  O  O219  1  0.28291080  0.88558891  0.58460089  1
  O  O220  1  0.62502661  0.38812662  0.08754971  1
  O  O221  1  0.60440384  0.38386355  0.58805227  1
  O  O222  1  0.60679713  0.86754135  0.08248136  1
  O  O223  1  0.61766971  0.87392729  0.57188596  1
  O  O224  1  0.94206164  0.38578901  0.08741710  1
  O  O225  1  0.93553702  0.37607203  0.58806849  1
  O  O226  1  0.92894667  0.89695912  0.07378943  1
  O  O227  1  0.93884738  0.90923916  0.57948325  1
  O  O228  1  0.10408530  0.14539159  0.08698088  1
  O  O229  1  0.09977396  0.12577266  0.58879503  1
  O  O230  1  0.10583184  0.64507219  0.08686121  1
  O  O231  1  0.11905722  0.62880074  0.57472103  1
  O  O232  1  0.44975750  0.11598940  0.07336382  1
  O  O233  1  0.43460512  0.13605248  0.58402654  1
  O  O234  1  0.42720137  0.63675065  0.07544597  1
  O  O235  1  0.44272810  0.63544297  0.58687765  1
  O  O236  1  0.77907355  0.14212526  0.08834158  1
  O  O237  1  0.76762585  0.13952296  0.58536659  1
  O  O238  1  0.78428786  0.62894505  0.07915331  1
  O  O239  1  0.76702046  0.62025557  0.58364924  1
  O  O240  1  0.07242114  0.11108281  0.42628297  1
  O  O241  1  0.07889834  0.11180903  0.92658442  1
  O  O242  1  0.05675983  0.60335949  0.40996661  1
  O  O243  1  0.05021941  0.62465868  0.92444367  1
  O  O244  1  0.38639084  0.10732059  0.41078263  1
  O  O245  1  0.40140157  0.11845702  0.91619117  1
  O  O246  1  0.37955642  0.62305520  0.42403738  1
  O  O247  1  0.39821606  0.62078365  0.91444835  1
  O  O248  1  0.70084667  0.09568658  0.41896624  1
  O  O249  1  0.72339245  0.12081670  0.91693847  1
  O  O250  1  0.73520699  0.62701324  0.41610619  1
  O  O251  1  0.72437696  0.62361232  0.91522954  1
  O  O252  1  0.22833561  0.34649300  0.42313253  1
  O  O253  1  0.22607903  0.35909513  0.91415855  1
  O  O254  1  0.23027655  0.87114851  0.41513647  1
  O  O255  1  0.23039763  0.86158547  0.91307617  1
  O  O256  1  0.54494584  0.35821386  0.42368448  1
  O  O257  1  0.56146482  0.37151526  0.91558446  1
  O  O258  1  0.55488657  0.86637968  0.41458120  1
  O  O259  1  0.56342763  0.87281553  0.91365837  1
  O  O260  1  0.88822721  0.37078271  0.41831008  1
  O  O261  1  0.89539800  0.38235657  0.91845426  1
  O  O262  1  0.87508199  0.84778674  0.41802267  1
  O  O263  1  0.89654961  0.87753893  0.91242731  1
  O  O264  1  0.04600871  0.40425115  0.42165758  1
  O  O265  1  0.06179774  0.38290172  0.91825426  1
  O  O266  1  0.06816855  0.89624178  0.42239346  1
  O  O267  1  0.06310624  0.87555801  0.91121389  1
  O  O268  1  0.38462915  0.38252776  0.41597414  1
  O  O269  1  0.39508466  0.37608497  0.91519546  1
  O  O270  1  0.39191146  0.88516128  0.41103968  1
  O  O271  1  0.39536291  0.88583402  0.91219968  1
  O  O272  1  0.72967929  0.39315905  0.42519973  1
  O  O273  1  0.72756660  0.37895202  0.91567410  1
  O  O274  1  0.71633311  0.88782185  0.41341240  1
  O  O275  1  0.73092585  0.86735745  0.91390534  1
  O  O276  1  0.22895589  0.13810362  0.41504753  1
  O  O277  1  0.24041878  0.12146177  0.91759121  1
  O  O278  1  0.21378457  0.65195475  0.40994147  1
  O  O279  1  0.23834726  0.64400710  0.92295881  1
  O  O280  1  0.54496772  0.13554650  0.41243244  1
  O  O281  1  0.56123562  0.13118441  0.91424832  1
  O  O282  1  0.57469826  0.63587378  0.43079952  1
  O  O283  1  0.56162067  0.62394491  0.91541558  1
  O  O284  1  0.88682742  0.14373178  0.43489766  1
  O  O285  1  0.88796427  0.11568195  0.92794542  1
  O  O286  1  0.89804636  0.63201120  0.41473087  1
  O  O287  1  0.88604465  0.63373535  0.91551105  1
  O  O288  1  0.13898477  0.00689986  0.08148600  1
  O  O289  1  0.18943979  0.00355701  0.58200071  1
  O  O290  1  0.16321652  0.51494241  0.07848811  1
  O  O291  1  0.17922736  0.49620859  0.58653727  1
  O  O292  1  0.53328288  -0.00659125  0.08278388  1
  O  O293  1  0.50258782  0.00913654  0.57503214  1
  O  O294  1  0.51501607  0.49192462  0.07349655  1
  O  O295  1  0.51132717  0.50290125  0.58729755  1
  O  O296  1  0.83182504  0.00898897  0.08494072  1
  O  O297  1  0.82479080  0.00713683  0.58586625  1
  O  O298  1  0.83571862  0.49419806  0.08755262  1
  O  O299  1  0.83387869  0.49150320  0.58876266  1
  O  O300  1  -0.00807665  0.25032619  0.09004116  1
  O  O301  1  0.01253487  0.24978800  0.58376033  1
  O  O302  1  -0.02298419  0.73638179  0.07947307  1
  O  O303  1  -0.00985156  0.75268451  0.56747151  1
  O  O304  1  0.33410587  0.24593434  0.06421528  1
  O  O305  1  0.34735031  0.25420250  0.58592479  1
  O  O306  1  0.34219717  0.75568937  0.08113465  1
  O  O307  1  0.32999486  0.74430831  0.58716938  1
  O  O308  1  0.67438376  0.25066356  0.08723183  1
  O  O309  1  0.66814282  0.25321261  0.58730130  1
  O  O310  1  0.70327493  0.75194717  0.08374579  1
  O  O311  1  0.69110770  0.74598642  0.58465772  1
  O  O312  1  0.17699380  0.00317086  0.41379038  1
  O  O313  1  0.16647536  -0.00932715  0.92117348  1
  O  O314  1  0.18573942  0.51259381  0.41952232  1
  O  O315  1  0.16834736  0.49073221  0.92377075  1
  O  O316  1  0.49103483  -0.00179897  0.41215333  1
  O  O317  1  0.49374558  0.00031910  0.91203301  1
  O  O318  1  0.48941569  0.49160029  0.42583876  1
  O  O319  1  0.48462515  0.49817187  0.91364632  1
  O  O320  1  0.83855933  -0.01470319  0.42388813  1
  O  O321  1  0.80006638  -0.00575515  0.91633094  1
  O  O322  1  0.82523602  0.50571306  0.41626910  1
  O  O323  1  0.80968662  0.50336915  0.91604107  1
  O  O324  1  0.33987143  0.24397524  0.41335083  1
  O  O325  1  0.32609820  0.24618893  0.91400587  1
  O  O326  1  0.32560696  0.75576343  0.41527413  1
  O  O327  1  0.34046585  0.75356048  0.91128248  1
  O  O328  1  0.66416295  0.23551335  0.42312892  1
  O  O329  1  0.65217350  0.25095284  0.91427228  1
  O  O330  1  0.65866223  0.75439110  0.41475247  1
  O  O331  1  0.64229094  0.74828860  0.91366997  1
  O  O332  1  1.00457037  0.26687294  0.42642400  1
  O  O333  1  0.98097460  0.26135930  0.93047308  1
  O  O334  1  1.01165379  0.73820160  0.41764719  1
  O  O335  1  0.97539671  0.75327156  0.91410496  1
  O  O336  1  0.20393144  0.08536377  0.19187150  1
  O  O337  1  0.21517949  0.07855457  0.69384519  1
  O  O338  1  0.20946115  0.58703671  0.19392984  1
  O  O339  1  0.21442735  0.58623873  0.69223910  1
  O  O340  1  0.54695286  0.08050783  0.19186458  1
  O  O341  1  0.54058485  0.08537429  0.69152953  1
  O  O342  1  0.54473646  0.58373795  0.19897339  1
  O  O343  1  0.54312850  0.58303274  0.69567579  1
  O  O344  1  0.87688102  0.08522133  0.19707994  1
  O  O345  1  0.86372923  0.08403047  0.69540319  1
  O  O346  1  0.87784570  0.58032267  0.19468736  1
  O  O347  1  0.87296820  0.58142029  0.69439146  1
  O  O348  1  0.04108499  0.33298958  0.19618079  1
  O  O349  1  0.04071017  0.33416236  0.69678071  1
  O  O350  1  0.04520320  0.83489437  0.19742738  1
  O  O351  1  0.04487425  0.83279783  0.70007600  1
  O  O352  1  0.37930291  0.33338750  0.19990524  1
  O  O353  1  0.37774087  0.33526226  0.69611521  1
  O  O354  1  0.37771331  0.83464877  0.19063539  1
  O  O355  1  0.37849547  0.83070837  0.69242718  1
  O  O356  1  0.71561578  0.33088943  0.19803061  1
  O  O357  1  0.70577666  0.33538240  0.69754090  1
  O  O358  1  0.71759548  0.83961560  0.19307891  1
  O  O359  1  0.71236317  0.83544587  0.69025219  1
  O  O360  1  0.21446173  0.41678648  0.19965059  1
  O  O361  1  0.21092174  0.41412761  0.69717415  1
  O  O362  1  0.20658836  0.91763619  0.19751836  1
  O  O363  1  0.21453924  0.91701485  0.69203821  1
  O  O364  1  0.54476802  0.41737321  0.19140768  1
  O  O365  1  0.54200237  0.41816922  0.69636946  1
  O  O366  1  0.54657551  0.91409933  0.19237435  1
  O  O367  1  0.54495173  0.91596177  0.69724542  1
  O  O368  1  0.87767238  0.41498431  0.19858097  1
  O  O369  1  0.87392305  0.41398845  0.69906596  1
  O  O370  1  0.87491588  0.92159554  0.19183784  1
  O  O371  1  0.87358039  0.91921462  0.69296651  1
  O  O372  1  0.04164349  0.16807424  0.19796994  1
  O  O373  1  0.03591798  0.17465044  0.69442256  1
  O  O374  1  0.04028501  0.66551125  0.19461358  1
  O  O375  1  0.04230430  0.66697846  0.69861630  1
  O  O376  1  0.37828058  0.16558963  0.19800935  1
  O  O377  1  0.37601287  0.16830554  0.69430541  1
  O  O378  1  0.37289544  0.67036284  0.19180536  1
  O  O379  1  0.37767881  0.66413165  0.69568911  1
  O  O380  1  0.71038056  0.16806612  0.19734581  1
  O  O381  1  0.70027171  0.16887114  0.69502668  1
  O  O382  1  0.72028833  0.66030578  0.18860169  1
  O  O383  1  0.71215617  0.66250024  0.69478075  1
  O  O384  1  0.12479486  0.08633727  0.30743528  1
  O  O385  1  0.13456115  0.07124316  0.81290301  1
  O  O386  1  0.12636454  0.58387662  0.30338087  1
  O  O387  1  0.12172117  0.58391491  0.80040313  1
  O  O388  1  0.45607816  0.07965719  0.30166296  1
  O  O389  1  0.45949188  0.08318197  0.80324223  1
  O  O390  1  0.45307483  0.58545347  0.30042656  1
  O  O391  1  0.45731161  0.58264713  0.80445216  1
  O  O392  1  0.78866932  0.08249373  0.30147525  1
  O  O393  1  0.78507236  0.07927023  0.80927720  1
  O  O394  1  0.79447522  0.58458075  0.30519371  1
  O  O395  1  0.78706465  0.58343069  0.80565257  1
  O  O396  1  0.28960657  0.32911615  0.30707886  1
  O  O397  1  0.29297337  0.33235258  0.80628513  1
  O  O398  1  0.28773492  0.83201656  0.30316916  1
  O  O399  1  0.29388031  0.83443677  0.80241264  1
  O  O400  1  0.62118626  0.33251375  0.29842489  1
  O  O401  1  0.62080116  0.33537228  0.80599556  1
  O  O402  1  0.61692460  0.83828805  0.30433607  1
  O  O403  1  0.62141497  0.83339857  0.80363691  1
  O  O404  1  0.95742492  0.33765402  0.31088646  1
  O  O405  1  0.95419903  0.33745037  0.81109541  1
  O  O406  1  0.95600059  0.83538137  0.29808496  1
  O  O407  1  0.95376147  0.83243948  0.80292798  1
  O  O408  1  0.12336191  0.41727786  0.30024044  1
  O  O409  1  0.12280604  0.41480177  0.80822258  1
  O  O410  1  0.12490134  0.91943892  0.30698449  1
  O  O411  1  0.12937287  0.91407130  0.80576086  1
  O  O412  1  0.45699568  0.41654157  0.30892463  1
  O  O413  1  0.45696466  0.41542667  0.80586084  1
  O  O414  1  0.45910522  0.91673505  0.30166790  1
  O  O415  1  0.45790438  0.91615026  0.80269526  1
  O  O416  1  0.78954174  0.41836996  0.30910455  1
  O  O417  1  0.78703161  0.41910911  0.80703804  1
  O  O418  1  0.78985834  0.91471855  0.30730304  1
  O  O419  1  0.78566753  0.91443852  0.80358279  1
  O  O420  1  0.28925207  0.16588091  0.30257004  1
  O  O421  1  0.30248294  0.16486384  0.80666191  1
  O  O422  1  0.29048343  0.67014518  0.30512865  1
  O  O423  1  0.29371324  0.66732079  0.80556702  1
  O  O424  1  0.62080168  0.16300258  0.30677742  1
  O  O425  1  0.62130889  0.16762824  0.80492203  1
  O  O426  1  0.61697472  0.66334570  0.31077424  1
  O  O427  1  0.61906988  0.66278874  0.80498707  1
  O  O428  1  0.95643124  0.16836940  0.30435598  1
  O  O429  1  0.95156343  0.17543443  0.80906604  1
  O  O430  1  0.95886399  0.66470488  0.30371748  1
  O  O431  1  0.95284451  0.66613398  0.80682466  1
  F  F432  1  0.04403476  0.00399045  0.20592100  1
  F  F433  1  0.05161261  -0.00817902  0.70001527  1
  F  F434  1  0.04414757  0.50065781  0.20162034  1
  F  F435  1  0.03481392  0.49637196  0.70053690  1
  F  F436  1  0.38155955  0.00416981  0.19442250  1
  F  F437  1  0.38089718  0.00114754  0.69994155  1
  F  F438  1  0.37950065  0.49955188  0.20190275  1
  F  F439  1  0.37989128  0.49829746  0.70191591  1
  F  F440  1  0.71157272  -0.00148489  0.20211040  1
  F  F441  1  0.70929897  0.00012674  0.70230633  1
  F  F442  1  0.71578780  0.49220488  0.20060437  1
  F  F443  1  0.70932491  0.49975276  0.70332181  1
  F  F444  1  0.21066286  0.25015004  0.20178864  1
  F  F445  1  0.21625171  0.25904628  0.70041213  1
  F  F446  1  0.21121994  0.75012980  0.20051352  1
  F  F447  1  0.21412606  0.74927642  0.70248599  1
  F  F448  1  0.54692690  0.24542515  0.20044724  1
  F  F449  1  0.54414041  0.25246286  0.70242923  1
  F  F450  1  0.53260770  0.74991836  0.19588376  1
  F  F451  1  0.54178940  0.74692423  0.69875328  1
  F  F452  1  0.87752205  0.25299175  0.20732408  1
  F  F453  1  0.87607260  0.25779802  0.70308972  1
  F  F454  1  0.87877365  0.74858408  0.19919574  1
  F  F455  1  0.87783129  0.74877970  0.70062376  1
  F  F456  1  0.28773119  0.00687937  0.29655056  1
  F  F457  1  0.29434642  -0.00286740  0.79666552  1
  F  F458  1  0.29021822  0.50324120  0.29734190  1
  F  F459  1  0.29771482  0.50002978  0.80175247  1
  F  F460  1  0.61842767  -0.00185213  0.29502796  1
  F  F461  1  0.62036483  0.00215832  0.79746013  1
  F  F462  1  0.62022476  0.49321170  0.30258951  1
  F  F463  1  0.62008717  0.50039153  0.79931897  1
  F  F464  1  0.95472719  -0.00022999  0.29895937  1
  F  F465  1  0.94889533  -0.01300784  0.80288708  1
  F  F466  1  0.95389858  0.50086677  0.29752200  1
  F  F467  1  0.95107564  0.50107140  0.80005208  1
  F  F468  1  0.12278445  0.25066266  0.29807211  1
  F  F469  1  0.11633257  0.26118186  0.80448868  1
  F  F470  1  0.12217117  0.74988794  0.29630400  1
  F  F471  1  0.12561978  0.74995259  0.79962463  1
  F  F472  1  0.45762963  0.24794114  0.29848194  1
  F  F473  1  0.45575868  0.25005616  0.79748196  1
  F  F474  1  0.45226761  0.75197987  0.29699311  1
  F  F475  1  0.45581835  0.75042375  0.79709344  1
  F  F476  1  0.78740836  0.25030076  0.30274920  1
  F  F477  1  0.77943000  0.25880696  0.80551503  1
  F  F478  1  0.80030167  0.74871108  0.29984909  1
  F  F479  1  0.79011139  0.75067072  0.79701010  1
