# generated using pymatgen
data_K24Na3Li5Mg64Fe17Si79(O5F)48
_symmetry_space_group_name_H-M   'P 1'
_cell_length_a   16.11539518
_cell_length_b   18.62332918
_cell_length_c   20.59957782
_cell_angle_alpha   89.99221549
_cell_angle_beta   100.03412628
_cell_angle_gamma   90.03670248
_symmetry_Int_Tables_number   1
_chemical_formula_structural   K24Na3Li5Mg64Fe17Si79(O5F)48
_chemical_formula_sum   'K24 Na3 Li5 Mg64 Fe17 Si79 O240 F48'
_cell_volume   6087.82666354
_cell_formula_units_Z   1
loop_
 _symmetry_equiv_pos_site_id
 _symmetry_equiv_pos_as_xyz
  1  'x, y, z'
loop_
 _atom_site_type_symbol
 _atom_site_label
 _atom_site_symmetry_multiplicity
 _atom_site_fract_x
 _atom_site_fract_y
 _atom_site_fract_z
 _atom_site_occupancy
  K  K0  1  -0.00527638  0.01023975  -0.00626799  1
  K  K1  1  0.01553980  0.00599526  0.50940890  1
  K  K2  1  0.00163957  0.49259818  -0.00701339  1
  K  K3  1  -0.00045752  0.48665729  0.49704547  1
  K  K4  1  0.34170527  0.01053425  -0.01501835  1
  K  K5  1  0.33592386  0.00603017  0.50341935  1
  K  K6  1  0.34014582  0.49195751  0.00229101  1
  K  K7  1  0.34518393  0.49150483  0.49431026  1
  K  K8  1  0.66134226  0.01245546  -0.00934805  1
  K  K9  1  0.65616535  0.01391836  0.50797916  1
  K  K10  1  0.67189883  0.48536977  -0.00184026  1
  K  K11  1  0.66430701  0.48397238  0.49136860  1
  K  K12  1  0.15045464  0.23884805  0.00260629  1
  K  K13  1  0.17277494  0.24110909  0.49800445  1
  K  K14  1  0.16959052  0.75081625  -0.00017445  1
  K  K15  1  0.16731717  0.76386407  0.50605563  1
  K  K16  1  0.50221157  0.24413430  0.00568969  1
  K  K17  1  0.50745939  0.24057486  0.49929659  1
  K  K18  1  0.48855102  0.76008173  -0.00454501  1
  K  K19  1  0.49550018  0.76014791  0.49962187  1
  K  K20  1  0.83616501  0.24871572  -0.00360846  1
  K  K21  1  0.82960795  0.23622108  0.50556924  1
  K  K22  1  0.83440894  0.75198172  -0.00858402  1
  K  K23  1  0.83618881  0.75735961  0.50798596  1
  Na  Na24  1  0.17483848  0.00319831  0.76201749  1
  Na  Na25  1  0.33403631  0.08260509  0.75589266  1
  Na  Na26  1  0.50375931  0.32865005  0.24604234  1
  Li  Li27  1  -0.00857763  0.24206933  0.74918114  1
  Li  Li28  1  0.66127256  0.24854127  0.24602424  1
  Li  Li29  1  0.50269775  0.32890592  0.74693850  1
  Li  Li30  1  0.83346196  0.16840588  0.74552190  1
  Li  Li31  1  0.16727529  0.16639857  0.25123830  1
  Mg  Mg32  1  0.83278090  0.00493089  0.74849106  1
  Mg  Mg33  1  0.83119000  0.00029221  0.24947238  1
  Mg  Mg34  1  0.33619557  0.25071118  0.74950972  1
  Mg  Mg35  1  0.66786512  0.75047163  0.74948049  1
  Mg  Mg36  1  0.83493073  0.50017766  0.75087534  1
  Mg  Mg37  1  0.33131630  0.75008263  0.25666499  1
  Mg  Mg38  1  0.16544945  0.49717444  0.24846319  1
  Mg  Mg39  1  0.83302500  0.49813934  0.24492992  1
  Mg  Mg40  1  0.33070606  0.24804552  0.25022496  1
  Mg  Mg41  1  0.00216128  0.24976760  0.24604275  1
  Mg  Mg42  1  0.66797354  0.25017556  0.74668222  1
  Mg  Mg43  1  0.00240831  0.75372217  0.75591194  1
  Mg  Mg44  1  0.16621210  0.49767659  0.74983933  1
  Mg  Mg45  1  0.66406974  0.75044842  0.24904206  1
  Mg  Mg46  1  0.16463367  0.00113262  0.25587246  1
  Mg  Mg47  1  0.50212765  0.49821100  0.74771259  1
  Mg  Mg48  1  0.50087634  0.49600927  0.24877547  1
  Mg  Mg49  1  0.33377483  0.75028038  0.75331901  1
  Mg  Mg50  1  -0.00046576  0.75083677  0.25328698  1
  Mg  Mg51  1  0.49951269  -0.00020196  0.74773489  1
  Mg  Mg52  1  0.49677659  0.00178627  0.25200168  1
  Mg  Mg53  1  -0.00253090  0.58338206  0.24812972  1
  Mg  Mg54  1  0.16547293  0.33230754  0.74911028  1
  Mg  Mg55  1  0.33721493  0.41593604  0.74844923  1
  Mg  Mg56  1  0.33762584  0.91517540  0.75530110  1
  Mg  Mg57  1  -0.00274957  0.41361957  0.24453365  1
  Mg  Mg58  1  0.49988584  0.16521015  0.24906510  1
  Mg  Mg59  1  0.16706387  0.66513822  0.25437132  1
  Mg  Mg60  1  0.33502800  0.41322612  0.24921686  1
  Mg  Mg61  1  0.33187505  0.91507165  0.25799799  1
  Mg  Mg62  1  0.16451781  0.33009886  0.24870705  1
  Mg  Mg63  1  0.00040317  0.41200339  0.74849262  1
  Mg  Mg64  1  0.83143340  0.83433478  0.25161794  1
  Mg  Mg65  1  0.16483841  0.17030741  0.75312107  1
  Mg  Mg66  1  0.16911698  0.66552986  0.75412027  1
  Mg  Mg67  1  0.49666831  0.83435299  0.25243374  1
  Mg  Mg68  1  0.00187210  0.58472533  0.75335728  1
  Mg  Mg69  1  0.66544570  0.91720925  0.74893098  1
  Mg  Mg70  1  0.83534775  0.83632603  0.75141686  1
  Mg  Mg71  1  0.83522675  0.32951859  0.74502424  1
  Mg  Mg72  1  0.50181712  0.66543782  0.75026714  1
  Mg  Mg73  1  0.16794378  0.83576834  0.25755265  1
  Mg  Mg74  1  0.49862837  0.66459148  0.25015164  1
  Mg  Mg75  1  0.66754176  0.41540284  0.74670273  1
  Mg  Mg76  1  0.66240938  0.08626259  0.24693961  1
  Mg  Mg77  1  0.50060307  0.83546650  0.74897752  1
  Mg  Mg78  1  0.83033298  0.33280813  0.24214138  1
  Mg  Mg79  1  0.66198714  0.91711157  0.24829593  1
  Mg  Mg80  1  0.00334519  0.91933910  0.75645646  1
  Mg  Mg81  1  0.83076136  0.66592927  0.24816323  1
  Mg  Mg82  1  -0.00034793  0.08651396  0.74932796  1
  Mg  Mg83  1  0.66368696  0.58229701  0.24628200  1
  Mg  Mg84  1  0.83725096  0.66630882  0.75344920  1
  Mg  Mg85  1  0.33499068  0.58164783  0.25455564  1
  Mg  Mg86  1  0.17156983  0.83775151  0.75889662  1
  Mg  Mg87  1  0.66622018  0.41067219  0.24460244  1
  Mg  Mg88  1  0.33465840  0.58276401  0.75164930  1
  Mg  Mg89  1  0.50037303  0.16849177  0.74579974  1
  Mg  Mg90  1  0.83000201  0.16755166  0.24701553  1
  Mg  Mg91  1  0.66549530  0.08711340  0.74753882  1
  Mg  Mg92  1  0.67127808  0.58375760  0.75092264  1
  Mg  Mg93  1  0.33061331  0.08559734  0.25175360  1
  Mg  Mg94  1  0.00083895  0.08499123  0.25084646  1
  Mg  Mg95  1  0.00100798  0.91634951  0.25467576  1
  Fe  Fe96  1  0.52270585  0.91114609  0.60661253  1
  Fe  Fe97  1  0.47419320  0.91578273  0.89312710  1
  Fe  Fe98  1  0.13462287  0.92008073  0.39645018  1
  Fe  Fe99  1  0.52562855  0.41524075  0.10544138  1
  Fe  Fe100  1  0.47751082  0.08746648  0.38980497  1
  Fe  Fe101  1  0.02835676  0.33132998  0.10584055  1
  Fe  Fe102  1  0.85819178  0.41999322  0.10454800  1
  Fe  Fe103  1  0.47837132  0.09019083  0.88922781  1
  Fe  Fe104  1  0.14398513  0.08979843  0.89291903  1
  Fe  Fe105  1  0.48231354  0.41128501  0.38926590  1
  Fe  Fe106  1  0.97609453  0.84069814  0.89225391  1
  Fe  Fe107  1  0.69774376  0.17145335  0.60808631  1
  Fe  Fe108  1  0.51727595  0.08467053  0.10921487  1
  Fe  Fe109  1  0.51821083  0.08663874  0.60528181  1
  Fe  Fe110  1  0.30954701  0.83056827  0.39770480  1
  Fe  Fe111  1  0.30444272  0.82747664  0.89634683  1
  Fe  Fe112  1  0.81168469  0.58361419  0.89060551  1
  Si  Si113  1  0.64570639  0.33651727  0.87963791  1
  Si  Si114  1  0.51795890  0.91359962  0.11525367  1
  Si  Si115  1  0.34681740  0.17030329  0.11206728  1
  Si  Si116  1  0.48059805  0.91671160  0.38962071  1
  Si  Si117  1  0.85955618  0.07878755  0.11490128  1
  Si  Si118  1  0.52534367  0.58708351  0.61361910  1
  Si  Si119  1  0.68786819  0.83636062  0.11534191  1
  Si  Si120  1  0.03349370  0.83592070  0.61936531  1
  Si  Si121  1  0.35347686  0.82683481  0.61418293  1
  Si  Si122  1  0.97023540  0.33341505  0.38193457  1
  Si  Si123  1  0.64073759  0.66465086  0.88621861  1
  Si  Si124  1  0.35539898  0.83043208  0.11961939  1
  Si  Si125  1  0.02610363  0.33251748  0.61208312  1
  Si  Si126  1  0.96464104  0.83114940  0.38972925  1
  Si  Si127  1  0.52502509  0.42156395  0.61254949  1
  Si  Si128  1  0.30460051  0.33510917  0.38712454  1
  Si  Si129  1  0.02947609  0.67066882  0.61745032  1
  Si  Si130  1  0.02305974  0.15988121  0.11384446  1
  Si  Si131  1  0.30605090  0.18080555  0.88986702  1
  Si  Si132  1  0.13538226  0.08918606  0.38887045  1
  Si  Si133  1  0.85747827  0.91351341  0.11674738  1
  Si  Si134  1  0.35599983  0.34015488  0.61272387  1
  Si  Si135  1  0.69477498  0.16038159  0.11170496  1
  Si  Si136  1  0.48106758  0.58204323  0.38738958  1
  Si  Si137  1  0.81338450  0.41441864  0.88284661  1
  Si  Si138  1  0.02818884  0.16665539  0.61352012  1
  Si  Si139  1  0.14150522  0.91848677  0.89537243  1
  Si  Si140  1  0.98339284  0.67019102  0.89110461  1
  Si  Si141  1  0.19185185  0.91542275  0.11872851  1
  Si  Si142  1  0.13635174  0.41450287  0.38382082  1
  Si  Si143  1  0.80898464  0.41859565  0.38244054  1
  Si  Si144  1  0.69947068  0.83054453  0.61148067  1
  Si  Si145  1  0.30273291  0.16861149  0.38607028  1
  Si  Si146  1  0.64349708  0.17466495  0.88536239  1
  Si  Si147  1  0.64911255  0.16750967  0.38465960  1
  Si  Si148  1  0.69581420  0.32799317  0.10570604  1
  Si  Si149  1  0.68856985  0.67240501  0.11397434  1
  Si  Si150  1  0.35329768  0.17696551  0.60979730  1
  Si  Si151  1  0.80800536  0.07953033  0.38382950  1
  Si  Si152  1  0.96836879  0.16182357  0.88408715  1
  Si  Si153  1  0.97271051  0.66517004  0.38558916  1
  Si  Si154  1  0.18893098  0.41764148  0.61263316  1
  Si  Si155  1  0.19740268  0.92004302  0.62027892  1
  Si  Si156  1  0.64033934  0.83188521  0.38424693  1
  Si  Si157  1  0.13803829  0.57988101  0.38600364  1
  Si  Si158  1  0.86524388  0.58553175  0.61504562  1
  Si  Si159  1  0.65466193  0.32851565  0.38459185  1
  Si  Si160  1  0.69599640  0.66432739  0.61423082  1
  Si  Si161  1  0.31008071  0.65784001  0.39089635  1
  Si  Si162  1  0.80162693  0.91537220  0.38450430  1
  Si  Si163  1  0.14033575  0.57606517  0.88635053  1
  Si  Si164  1  0.86530137  0.07973029  0.61060462  1
  Si  Si165  1  0.47789028  0.58181104  0.88372592  1
  Si  Si166  1  0.86547597  0.91539979  0.61572546  1
  Si  Si167  1  0.02543694  0.83311439  0.11823663  1
  Si  Si168  1  0.80049005  0.91808184  0.88678529  1
  Si  Si169  1  0.48076284  0.41925105  0.88144929  1
  Si  Si170  1  0.35302551  0.33179166  0.11332296  1
  Si  Si171  1  0.52213060  0.58740579  0.11131749  1
  Si  Si172  1  0.97298224  0.32683804  0.88019250  1
  Si  Si173  1  0.19067816  0.07832397  0.11822727  1
  Si  Si174  1  0.13969423  0.41125268  0.88391871  1
  Si  Si175  1  0.31352575  0.34177276  0.88431854  1
  Si  Si176  1  0.19076056  0.58365337  0.11741066  1
  Si  Si177  1  0.86398449  0.42110412  0.61264257  1
  Si  Si178  1  0.30974771  0.65504709  0.88977641  1
  Si  Si179  1  0.19334503  0.08881921  0.61684253  1
  Si  Si180  1  0.64042553  0.82853783  0.88549894  1
  Si  Si181  1  0.19678787  0.41825207  0.11258460  1
  Si  Si182  1  0.35572971  0.66706943  0.11864991  1
  Si  Si183  1  0.69396041  0.34323719  0.60858032  1
  Si  Si184  1  0.80602739  0.58308010  0.38309054  1
  Si  Si185  1  0.35479707  0.66326893  0.61610813  1
  Si  Si186  1  0.80173312  0.08374307  0.88264876  1
  Si  Si187  1  0.02543135  0.66801243  0.11679933  1
  Si  Si188  1  0.64258568  0.66822993  0.38393715  1
  Si  Si189  1  0.19002902  0.58142319  0.61590135  1
  Si  Si190  1  0.85369344  0.59101890  0.11160990  1
  Si  Si191  1  0.96787469  0.16943173  0.38332825  1
  O  O192  1  0.26480945  0.11730795  0.08592628  1
  O  O193  1  0.26496663  0.13097583  0.58251548  1
  O  O194  1  0.27134088  0.61905754  0.08910816  1
  O  O195  1  0.27281929  0.61120501  0.58733505  1
  O  O196  1  0.61611153  0.11143554  0.07794970  1
  O  O197  1  0.60138456  0.12772513  0.56603307  1
  O  O198  1  0.60365799  0.62648618  0.08500847  1
  O  O199  1  0.60397414  0.62624060  0.58465444  1
  O  O200  1  0.94187601  0.10615304  0.08584666  1
  O  O201  1  0.94423387  0.11980068  0.58144070  1
  O  O202  1  0.93770984  0.62648498  0.08672756  1
  O  O203  1  0.93743781  0.63374048  0.58586505  1
  O  O204  1  0.12503971  0.36604405  0.07479669  1
  O  O205  1  0.10342180  0.37210045  0.57998221  1
  O  O206  1  0.10464318  0.86950536  0.09024154  1
  O  O207  1  0.10625244  0.87947207  0.58863760  1
  O  O208  1  0.43378789  0.35191452  0.07985637  1
  O  O209  1  0.43568227  0.37904887  0.58429122  1
  O  O210  1  0.44031860  0.85514066  0.09212465  1
  O  O211  1  0.42974144  0.84860776  0.57761555  1
  O  O212  1  0.77494206  0.35323585  0.07108946  1
  O  O213  1  0.76898918  0.39307061  0.58217624  1
  O  O214  1  0.77084018  0.86823530  0.08788423  1
  O  O215  1  0.78128191  0.86782567  0.58472983  1
  O  O216  1  0.28395151  0.39656127  0.08611725  1
  O  O217  1  0.27115442  0.38986365  0.58246989  1
  O  O218  1  0.27081972  0.87722432  0.09060823  1
  O  O219  1  0.26899447  0.87656330  0.58741977  1
  O  O220  1  0.61409175  0.37391436  0.06992702  1
  O  O221  1  0.60395618  0.38765964  0.58160786  1
  O  O222  1  0.60313519  0.88246973  0.08810524  1
  O  O223  1  0.61509009  0.86695517  0.57322698  1
  O  O224  1  0.94999747  0.39717598  0.06679016  1
  O  O225  1  0.93721543  0.37628638  0.58173215  1
  O  O226  1  0.93676510  0.87549851  0.08889244  1
  O  O227  1  0.94237012  0.87201623  0.58815327  1
  O  O228  1  0.10274672  0.11995777  0.08815448  1
  O  O229  1  0.10381529  0.12814830  0.58055645  1
  O  O230  1  0.10546525  0.63138663  0.08886782  1
  O  O231  1  0.10519512  0.62930488  0.58705036  1
  O  O232  1  0.42454794  0.14466987  0.07745315  1
  O  O233  1  0.42438705  0.14533753  0.57224078  1
  O  O234  1  0.43752829  0.63944020  0.08820076  1
  O  O235  1  0.43724410  0.63208084  0.58635068  1
  O  O236  1  0.77890740  0.12768616  0.08297299  1
  O  O237  1  0.78189687  0.11940090  0.57284658  1
  O  O238  1  0.77424007  0.64744384  0.08741862  1
  O  O239  1  0.77125648  0.61902695  0.58593643  1
  O  O240  1  0.05738011  0.13301028  0.41575515  1
  O  O241  1  0.04623612  0.11727278  0.92616705  1
  O  O242  1  0.06101624  0.62214880  0.41467476  1
  O  O243  1  0.06439068  0.61442946  0.91617584  1
  O  O244  1  0.38187581  0.12147313  0.42211077  1
  O  O245  1  0.38382614  0.12855819  0.91912620  1
  O  O246  1  0.39469979  0.60766041  0.41468649  1
  O  O247  1  0.39218839  0.60146988  0.91285187  1
  O  O248  1  0.72928087  0.11207917  0.41407343  1
  O  O249  1  0.72534401  0.12225516  0.91359318  1
  O  O250  1  0.72710869  0.61962203  0.41284523  1
  O  O251  1  0.71154305  0.60923720  0.92131397  1
  O  O252  1  0.22316216  0.37336279  0.41526157  1
  O  O253  1  0.23195902  0.37605492  0.91333380  1
  O  O254  1  0.22060634  0.86163529  0.43561512  1
  O  O255  1  0.20594357  0.85433609  0.92661977  1
  O  O256  1  0.57790612  0.35422318  0.42101815  1
  O  O257  1  0.56308125  0.36886186  0.90881992  1
  O  O258  1  0.55726213  0.85554094  0.41270951  1
  O  O259  1  0.56154902  0.84675208  0.92022418  1
  O  O260  1  0.90016546  0.38083116  0.41289157  1
  O  O261  1  0.89305359  0.36036359  0.91022023  1
  O  O262  1  0.87551166  0.85689673  0.41299583  1
  O  O263  1  0.87781935  0.86934728  0.92400015  1
  O  O264  1  0.06027706  0.37305716  0.41309148  1
  O  O265  1  0.06233543  0.37020659  0.91096226  1
  O  O266  1  0.03793148  0.88092588  0.42757363  1
  O  O267  1  0.05512756  0.90945016  0.92737449  1
  O  O268  1  0.38607394  0.37943300  0.42319796  1
  O  O269  1  0.39642651  0.39381085  0.91140554  1
  O  O270  1  0.40368297  0.88994928  0.42446068  1
  O  O271  1  0.39346749  0.88041303  0.93951983  1
  O  O272  1  0.73720479  0.38067851  0.41716412  1
  O  O273  1  0.72737065  0.38759186  0.90954028  1
  O  O274  1  0.71883309  0.88601366  0.41312885  1
  O  O275  1  0.71694085  0.88543548  0.91347433  1
  O  O276  1  0.21797533  0.13979529  0.41374336  1
  O  O277  1  0.22573033  0.16028646  0.92434855  1
  O  O278  1  0.22943423  0.61576789  0.41639533  1
  O  O279  1  0.23131061  0.61244523  0.91645272  1
  O  O280  1  0.57044192  0.14761528  0.41999177  1
  O  O281  1  0.56843246  0.15278452  0.92349890  1
  O  O282  1  0.55958270  0.64068626  0.41300893  1
  O  O283  1  0.55082303  0.64145844  0.91080749  1
  O  O284  1  0.89306585  0.12666835  0.41319913  1
  O  O285  1  0.88521795  0.13098415  0.91401138  1
  O  O286  1  0.89419820  0.62598163  0.41386063  1
  O  O287  1  0.90381963  0.64350954  0.92362029  1
  O  O288  1  0.17896407  -0.00410335  0.08765980  1
  O  O289  1  0.18925834  0.00313939  0.59147652  1
  O  O290  1  0.17608460  0.50304474  0.08680216  1
  O  O291  1  0.16924900  0.50070284  0.58479503  1
  O  O292  1  0.49022789  -0.01116936  0.08141208  1
  O  O293  1  0.49672446  -0.00257848  0.56552467  1
  O  O294  1  0.50297124  0.51229552  0.07335818  1
  O  O295  1  0.51203650  0.50536213  0.58279868  1
  O  O296  1  0.84354219  -0.00492931  0.08769767  1
  O  O297  1  0.86264852  -0.00496692  0.58185648  1
  O  O298  1  0.82742493  0.51619573  0.07644040  1
  O  O299  1  0.87022762  0.50444390  0.58404953  1
  O  O300  1  0.00545279  0.23551424  0.07566120  1
  O  O301  1  0.01694712  0.25025945  0.58250851  1
  O  O302  1  0.01564609  0.75075449  0.08863432  1
  O  O303  1  0.02806859  0.75287889  0.58829208  1
  O  O304  1  0.31626465  0.25214170  0.08567585  1
  O  O305  1  0.33430761  0.26098211  0.57994906  1
  O  O306  1  0.33379510  0.74855160  0.09094996  1
  O  O307  1  0.32700320  0.74285581  0.58772268  1
  O  O308  1  0.68015244  0.24249775  0.08389099  1
  O  O309  1  0.69239441  0.26744883  0.57190134  1
  O  O310  1  0.67086024  0.75471092  0.08624954  1
  O  O311  1  0.69985996  0.74525944  0.58395657  1
  O  O312  1  0.14621582  0.01471782  0.42996641  1
  O  O313  1  0.18206159  -0.00346313  0.91870679  1
  O  O314  1  0.13811759  0.49722312  0.41474803  1
  O  O315  1  0.14341955  0.49333479  0.91425377  1
  O  O316  1  0.51684413  -0.00597739  0.41573793  1
  O  O317  1  0.50770590  0.00312933  0.93068924  1
  O  O318  1  0.50957517  0.50701930  0.42291766  1
  O  O319  1  0.50609018  0.50094668  0.91144533  1
  O  O320  1  0.82573683  -0.00353041  0.41250467  1
  O  O321  1  0.81226091  0.00169776  0.91505544  1
  O  O322  1  0.81851052  0.50166181  0.41293770  1
  O  O323  1  0.84110031  0.49024989  0.91830200  1
  O  O324  1  0.31055463  0.25234720  0.41472526  1
  O  O325  1  0.33588565  0.26396130  0.91735813  1
  O  O326  1  0.32738580  0.73326815  0.42794053  1
  O  O327  1  0.32544353  0.72966516  0.92803606  1
  O  O328  1  0.68580544  0.24730598  0.41063086  1
  O  O329  1  0.67088045  0.25750596  0.91138811  1
  O  O330  1  0.66673583  0.74998501  0.41199207  1
  O  O331  1  0.67024899  0.74596166  0.91203271  1
  O  O332  1  0.96980306  0.25210600  0.41274604  1
  O  O333  1  0.98337403  0.24635021  0.91107254  1
  O  O334  1  0.97889445  0.74647978  0.41623714  1
  O  O335  1  1.01408028  0.74775589  0.92155743  1
  O  O336  1  0.20919731  0.07675653  0.19788930  1
  O  O337  1  0.20608205  0.09550135  0.69437139  1
  O  O338  1  0.20823985  0.58449147  0.19785375  1
  O  O339  1  0.20856686  0.58191698  0.69610012  1
  O  O340  1  0.54343896  0.07879742  0.19998004  1
  O  O341  1  0.54607094  0.08376887  0.69650880  1
  O  O342  1  0.54185307  0.58693086  0.19250347  1
  O  O343  1  0.54474569  0.58512345  0.69377558  1
  O  O344  1  0.87664982  0.07976599  0.19536729  1
  O  O345  1  0.87967789  0.07895507  0.69003350  1
  O  O346  1  0.87485325  0.58789146  0.19308405  1
  O  O347  1  0.88280241  0.58520456  0.69492289  1
  O  O348  1  0.04469006  0.33372546  0.19814809  1
  O  O349  1  0.04760520  0.34097773  0.69049665  1
  O  O350  1  0.04033442  0.83150013  0.19852457  1
  O  O351  1  0.04957565  0.83239571  0.69884959  1
  O  O352  1  0.36403505  0.33164694  0.19301480  1
  O  O353  1  0.37152142  0.33881553  0.69188183  1
  O  O354  1  0.37448994  0.83046044  0.19989556  1
  O  O355  1  0.37651974  0.82565550  0.69424961  1
  O  O356  1  0.71435860  0.33756092  0.18600609  1
  O  O357  1  0.71182789  0.34027812  0.68880716  1
  O  O358  1  0.70878576  0.83345911  0.19596313  1
  O  O359  1  0.71379985  0.83048369  0.69230253  1
  O  O360  1  0.20863446  0.41829731  0.19358917  1
  O  O361  1  0.20802809  0.41837657  0.69270302  1
  O  O362  1  0.20808422  0.91485816  0.19873760  1
  O  O363  1  0.21485223  0.91169665  0.69878651  1
  O  O364  1  0.55168430  0.42670795  0.19479409  1
  O  O365  1  0.54605344  0.42332751  0.69163859  1
  O  O366  1  0.54038483  0.91303827  0.19633664  1
  O  O367  1  0.54850757  0.91267401  0.69822815  1
  O  O368  1  0.87857857  0.41880553  0.19758154  1
  O  O369  1  0.88059543  0.42060939  0.69248456  1
  O  O370  1  0.87579968  0.91362986  0.19729086  1
  O  O371  1  0.87695225  0.91670749  0.69527485  1
  O  O372  1  0.03694426  0.16405739  0.19385718  1
  O  O373  1  0.04357119  0.16844382  0.69220605  1
  O  O374  1  0.04264051  0.66715383  0.19746450  1
  O  O375  1  0.04563885  0.66632687  0.69730008  1
  O  O376  1  0.36855511  0.16663571  0.19242536  1
  O  O377  1  0.37735161  0.17877499  0.68893061  1
  O  O378  1  0.37393868  0.66570480  0.19919429  1
  O  O379  1  0.37575463  0.66222684  0.69633920  1
  O  O380  1  0.71546375  0.15740470  0.19163626  1
  O  O381  1  0.71017799  0.16843908  0.69792638  1
  O  O382  1  0.70746995  0.66923615  0.19477470  1
  O  O383  1  0.71172317  0.66581722  0.69412820  1
  O  O384  1  0.11569319  0.07983918  0.30921784  1
  O  O385  1  0.11544268  0.09504516  0.80364941  1
  O  O386  1  0.12024477  0.58240280  0.30574400  1
  O  O387  1  0.12446838  0.58000332  0.80572462  1
  O  O388  1  0.45098087  0.08290627  0.29891082  1
  O  O389  1  0.46869724  0.08538871  0.80011313  1
  O  O390  1  0.46032221  0.58433217  0.30643526  1
  O  O391  1  0.45852575  0.58208613  0.80304969  1
  O  O392  1  0.79092413  0.08051694  0.30370639  1
  O  O393  1  0.78515436  0.07940983  0.80360942  1
  O  O394  1  0.78946913  0.58542363  0.30304837  1
  O  O395  1  0.79209815  0.58384842  0.79834525  1
  O  O396  1  0.28616559  0.33644095  0.30653510  1
  O  O397  1  0.29126447  0.34093002  0.80410842  1
  O  O398  1  0.28743253  0.83052211  0.30473970  1
  O  O399  1  0.29126534  0.82747574  0.80390773  1
  O  O400  1  0.63848173  0.33516712  0.30597382  1
  O  O401  1  0.62766099  0.33672722  0.80022001  1
  O  O402  1  0.62377909  0.83177522  0.30374398  1
  O  O403  1  0.62600393  0.82877222  0.80458479  1
  O  O404  1  0.95415254  0.33336175  0.30259522  1
  O  O405  1  0.95540110  0.33522743  0.80110067  1
  O  O406  1  0.95241321  0.83134455  0.30863817  1
  O  O407  1  0.95378729  0.83415078  0.80025214  1
  O  O408  1  0.12025086  0.41865856  0.30404805  1
  O  O409  1  0.12357817  0.41617088  0.80361545  1
  O  O410  1  0.11853139  0.91578220  0.30380912  1
  O  O411  1  0.11874412  0.90827439  0.81465887  1
  O  O412  1  0.45021431  0.42366454  0.30071321  1
  O  O413  1  0.45697976  0.42221757  0.80217157  1
  O  O414  1  0.45777738  0.91376585  0.30792111  1
  O  O415  1  0.45972088  0.91269226  0.80135436  1
  O  O416  1  0.79106134  0.41956705  0.30276585  1
  O  O417  1  0.79342829  0.41740744  0.80186315  1
  O  O418  1  0.78646664  0.91502681  0.30411436  1
  O  O419  1  0.78831983  0.91597609  0.80586861  1
  O  O420  1  0.28884964  0.16687116  0.30626751  1
  O  O421  1  0.28483251  0.18308202  0.80969143  1
  O  O422  1  0.28916219  0.66236826  0.30970294  1
  O  O423  1  0.29081595  0.66011285  0.80860666  1
  O  O424  1  0.62693379  0.16244640  0.30533706  1
  O  O425  1  0.62499345  0.17211261  0.80532707  1
  O  O426  1  0.62439065  0.66679001  0.30356066  1
  O  O427  1  0.62467384  0.66394275  0.80488346  1
  O  O428  1  0.95272057  0.16687045  0.30338464  1
  O  O429  1  0.95211700  0.16155605  0.80493213  1
  O  O430  1  0.95483646  0.66583594  0.30518961  1
  O  O431  1  0.96225786  0.66653948  0.80909053  1
  F  F432  1  0.04117206  -0.00138688  0.20318856  1
  F  F433  1  0.03604952  -0.00257020  0.70202130  1
  F  F434  1  0.04478689  0.50330598  0.20129340  1
  F  F435  1  0.04606394  0.50194367  0.70136572  1
  F  F436  1  0.37367202  -0.00643117  0.20497908  1
  F  F437  1  0.38056663  -0.01206578  0.69689492  1
  F  F438  1  0.37506763  0.50547831  0.20095026  1
  F  F439  1  0.37781841  0.50237124  0.69965165  1
  F  F440  1  0.71271319  -0.00434492  0.20066184  1
  F  F441  1  0.71387956  -0.00294520  0.69917451  1
  F  F442  1  0.71364263  0.50429932  0.20007870  1
  F  F443  1  0.71356599  0.50130999  0.69868919  1
  F  F444  1  0.20957025  0.25067634  0.20371515  1
  F  F445  1  0.21292067  0.25637083  0.69995049  1
  F  F446  1  0.20852615  0.74688379  0.20596105  1
  F  F447  1  0.21229059  0.74283821  0.70324257  1
  F  F448  1  0.54825202  0.23544167  0.19581586  1
  F  F449  1  0.54896666  0.25036247  0.69777370  1
  F  F450  1  0.54285120  0.74964707  0.20316317  1
  F  F451  1  0.54746931  0.74571020  0.70111015  1
  F  F452  1  0.88061330  0.24800804  0.19814890  1
  F  F453  1  0.87750139  0.25671653  0.69210260  1
  F  F454  1  0.87800631  0.75086513  0.20365466  1
  F  F455  1  0.88162346  0.74614274  0.70181975  1
  F  F456  1  0.28559982  -0.00100916  0.30233235  1
  F  F457  1  0.30632591  -0.01301335  0.81466404  1
  F  F458  1  0.28372737  0.50029136  0.29840678  1
  F  F459  1  0.28762588  0.49919094  0.79619101  1
  F  F460  1  0.62414105  -0.00355235  0.29810274  1
  F  F461  1  0.62662562  -0.00021381  0.79729146  1
  F  F462  1  0.62480042  0.50535901  0.29908594  1
  F  F463  1  0.62324593  0.50088561  0.79513141  1
  F  F464  1  0.95057008  -0.00113888  0.29896619  1
  F  F465  1  0.95044594  0.00056763  0.79951634  1
  F  F466  1  0.95449744  0.50367081  0.29803473  1
  F  F467  1  0.95820108  0.49937990  0.79703340  1
  F  F468  1  0.11579797  0.25414540  0.30239875  1
  F  F469  1  0.12110315  0.25692183  0.79696786  1
  F  F470  1  0.11824179  0.74670541  0.30202692  1
  F  F471  1  0.12383796  0.74576157  0.80038999  1
  F  F472  1  0.44810536  0.24097089  0.29927205  1
  F  F473  1  0.45460418  0.25159659  0.79533171  1
  F  F474  1  0.45577447  0.74734355  0.29986427  1
  F  F475  1  0.45647038  0.74544265  0.79663835  1
  F  F476  1  0.79551535  0.25095778  0.29414069  1
  F  F477  1  0.78600202  0.25916166  0.79667293  1
  F  F478  1  0.78658010  0.74892641  0.29777006  1
  F  F479  1  0.78915859  0.74947437  0.79648821  1
