# generated using pymatgen
data_K24Na3Li5Mg64Fe17Si79(O5F)48
_symmetry_space_group_name_H-M   'P 1'
_cell_length_a   16.10263850
_cell_length_b   18.60643681
_cell_length_c   20.55917231
_cell_angle_alpha   90.02168249
_cell_angle_beta   100.00577483
_cell_angle_gamma   89.97068653
_symmetry_Int_Tables_number   1
_chemical_formula_structural   K24Na3Li5Mg64Fe17Si79(O5F)48
_chemical_formula_sum   'K24 Na3 Li5 Mg64 Fe17 Si79 O240 F48'
_cell_volume   6066.09971478
_cell_formula_units_Z   1
loop_
 _symmetry_equiv_pos_site_id
 _symmetry_equiv_pos_as_xyz
  1  'x, y, z'
loop_
 _atom_site_type_symbol
 _atom_site_label
 _atom_site_symmetry_multiplicity
 _atom_site_fract_x
 _atom_site_fract_y
 _atom_site_fract_z
 _atom_site_occupancy
  K  K0  1  -0.00391168  -0.00397303  -0.01116842  1
  K  K1  1  0.00404980  -0.00427756  0.50949519  1
  K  K2  1  -0.00296039  0.50151997  0.00275123  1
  K  K3  1  0.00015202  0.49456515  0.49898953  1
  K  K4  1  0.34150676  0.00180872  -0.01457975  1
  K  K5  1  0.33584702  -0.00127661  0.51683431  1
  K  K6  1  0.33441277  0.49660181  -0.00175515  1
  K  K7  1  0.32344326  0.50453922  0.50389542  1
  K  K8  1  0.65219796  0.00177776  -0.00764489  1
  K  K9  1  0.66850367  -0.00099542  0.50143726  1
  K  K10  1  0.66631706  0.49218278  0.00920578  1
  K  K11  1  0.66223268  0.50835892  0.48948508  1
  K  K12  1  0.15699617  0.24431360  -0.00418237  1
  K  K13  1  0.17170577  0.25501791  0.50567141  1
  K  K14  1  0.16397545  0.74527822  -0.01485655  1
  K  K15  1  0.17995662  0.75545695  0.51450555  1
  K  K16  1  0.49791118  0.24728207  0.00005630  1
  K  K17  1  0.51031141  0.25184071  0.50173792  1
  K  K18  1  0.49628727  0.75355515  -0.00246409  1
  K  K19  1  0.48918427  0.74891161  0.50354281  1
  K  K20  1  0.83587315  0.25002727  0.00306808  1
  K  K21  1  0.82804113  0.24796486  0.49228967  1
  K  K22  1  0.84023500  0.75204653  -0.00154619  1
  K  K23  1  0.83180484  0.75104063  0.50122832  1
  Na  Na24  1  0.00833563  0.75023533  0.75586339  1
  Na  Na25  1  0.83141023  0.33255579  0.24574461  1
  Na  Na26  1  0.33133539  0.07698580  0.74825284  1
  Li  Li27  1  0.49008920  -0.00329048  0.74910597  1
  Li  Li28  1  0.17680931  -0.00255898  0.75889037  1
  Li  Li29  1  0.16718052  0.67128687  0.74607969  1
  Li  Li30  1  0.83231075  0.83329184  0.25275240  1
  Li  Li31  1  0.32713933  0.41756473  0.74272827  1
  Mg  Mg32  1  0.83667929  0.50125247  0.75119525  1
  Mg  Mg33  1  -0.00343213  0.75143628  0.24730211  1
  Mg  Mg34  1  0.66718335  0.24879392  0.75211518  1
  Mg  Mg35  1  0.66783469  0.75053894  0.75099205  1
  Mg  Mg36  1  0.33225772  0.25047548  0.24641895  1
  Mg  Mg37  1  0.16544180  0.50179934  0.24726477  1
  Mg  Mg38  1  -0.00198632  0.24969995  0.25080084  1
  Mg  Mg39  1  0.33214806  0.74739481  0.74535406  1
  Mg  Mg40  1  0.83509193  -0.00127203  0.75679889  1
  Mg  Mg41  1  0.33321224  0.25142426  0.74821935  1
  Mg  Mg42  1  0.83189916  0.50064887  0.24853770  1
  Mg  Mg43  1  0.66763352  0.75122178  0.25349910  1
  Mg  Mg44  1  0.00105615  0.24694336  0.75296664  1
  Mg  Mg45  1  0.66614505  0.24951017  0.24970467  1
  Mg  Mg46  1  0.16996225  0.50132576  0.74513292  1
  Mg  Mg47  1  0.49983029  0.50039056  0.24846114  1
  Mg  Mg48  1  0.83158799  -0.00188001  0.25412410  1
  Mg  Mg49  1  0.33175303  0.74877737  0.25068332  1
  Mg  Mg50  1  0.16545927  -0.00066903  0.25089853  1
  Mg  Mg51  1  0.50128772  0.00182396  0.25044395  1
  Mg  Mg52  1  0.49764108  0.49975698  0.74569688  1
  Mg  Mg53  1  0.83140933  0.16415308  0.25262092  1
  Mg  Mg54  1  0.49690589  0.33484054  0.74660227  1
  Mg  Mg55  1  0.33443021  0.91572520  0.74995829  1
  Mg  Mg56  1  0.16365058  0.33428770  0.24658048  1
  Mg  Mg57  1  0.33376838  0.91636713  0.25155031  1
  Mg  Mg58  1  0.49756493  0.83548742  0.74788634  1
  Mg  Mg59  1  0.00788439  0.91566180  0.75501646  1
  Mg  Mg60  1  0.17016061  0.33489857  0.74843925  1
  Mg  Mg61  1  0.50050501  0.66560690  0.25098096  1
  Mg  Mg62  1  0.49789082  0.16469519  0.74931530  1
  Mg  Mg63  1  0.00347709  0.41497262  0.75058143  1
  Mg  Mg64  1  0.16535808  0.16521830  0.24956508  1
  Mg  Mg65  1  0.00594106  0.58504286  0.75123892  1
  Mg  Mg66  1  0.16981323  0.83250554  0.75106038  1
  Mg  Mg67  1  0.50156133  0.33501418  0.24831081  1
  Mg  Mg68  1  0.33166408  0.41625550  0.24555212  1
  Mg  Mg69  1  -0.00392631  0.91550328  0.25130976  1
  Mg  Mg70  1  0.16972269  0.16332829  0.75201732  1
  Mg  Mg71  1  0.66749942  0.58384068  0.74904156  1
  Mg  Mg72  1  -0.00204525  0.08363086  0.25270520  1
  Mg  Mg73  1  0.83223434  0.67015108  0.24969596  1
  Mg  Mg74  1  0.66678117  0.08495568  0.25180934  1
  Mg  Mg75  1  -0.00265710  0.58518233  0.24564917  1
  Mg  Mg76  1  -0.00318463  0.41668461  0.24915392  1
  Mg  Mg77  1  0.16621394  0.83407963  0.25123125  1
  Mg  Mg78  1  0.83688307  0.83392243  0.75465096  1
  Mg  Mg79  1  0.00502799  0.08207387  0.75394534  1
  Mg  Mg80  1  0.83672506  0.33342293  0.75317628  1
  Mg  Mg81  1  0.66699772  0.58627524  0.25164391  1
  Mg  Mg82  1  0.33350574  0.08477154  0.24981813  1
  Mg  Mg83  1  0.66446673  0.91760644  0.75289737  1
  Mg  Mg84  1  0.50202051  0.16573180  0.25027788  1
  Mg  Mg85  1  0.33041402  0.58491909  0.24971699  1
  Mg  Mg86  1  0.49774363  0.66583723  0.74613032  1
  Mg  Mg87  1  0.66617383  0.41586742  0.24700160  1
  Mg  Mg88  1  0.66238029  0.08205031  0.75566185  1
  Mg  Mg89  1  0.83605020  0.16394133  0.75517086  1
  Mg  Mg90  1  0.16642229  0.66542533  0.24709485  1
  Mg  Mg91  1  0.83833736  0.66782021  0.75324315  1
  Mg  Mg92  1  0.66769110  0.41581791  0.74976944  1
  Mg  Mg93  1  0.66987532  0.91515289  0.25406848  1
  Mg  Mg94  1  0.32788190  0.58261168  0.74099997  1
  Mg  Mg95  1  0.50093306  0.83459297  0.25254929  1
  Fe  Fe96  1  0.52206665  0.41729673  0.10738258  1
  Fe  Fe97  1  0.64129889  0.16718008  0.39249397  1
  Fe  Fe98  1  0.97277136  0.16480090  0.89503040  1
  Fe  Fe99  1  0.18605459  0.92633715  0.61085743  1
  Fe  Fe100  1  0.35896020  0.66205357  0.60522560  1
  Fe  Fe101  1  0.81174435  0.41983365  0.38877651  1
  Fe  Fe102  1  0.18885550  0.58154617  0.10600994  1
  Fe  Fe103  1  0.97716347  0.83366196  0.89501202  1
  Fe  Fe104  1  0.30244218  0.66602318  0.38917548  1
  Fe  Fe105  1  0.14672304  0.08130921  0.89292865  1
  Fe  Fe106  1  0.81332437  0.07993682  0.39424956  1
  Fe  Fe107  1  0.63730181  0.66809559  0.39137020  1
  Fe  Fe108  1  0.46970420  0.08124947  0.88692948  1
  Fe  Fe109  1  0.35903407  0.83936908  0.60763789  1
  Fe  Fe110  1  0.52365929  0.08314688  0.10964127  1
  Fe  Fe111  1  0.18684206  0.41258827  0.60658512  1
  Fe  Fe112  1  0.86082959  0.41871258  0.10660167  1
  Si  Si113  1  0.47120560  0.41181870  0.38287963  1
  Si  Si114  1  0.86110531  0.08247583  0.11652245  1
  Si  Si115  1  0.98314001  0.33079572  0.38688278  1
  Si  Si116  1  0.19090325  0.91644324  0.11567928  1
  Si  Si117  1  0.68969534  0.83593990  0.11727909  1
  Si  Si118  1  0.68797551  0.32805025  0.10794152  1
  Si  Si119  1  0.85538463  0.91959295  0.11733175  1
  Si  Si120  1  0.97927262  0.82981365  0.38450508  1
  Si  Si121  1  0.46808584  0.57648177  0.38732273  1
  Si  Si122  1  0.64324220  0.33378294  0.88466302  1
  Si  Si123  1  0.97736859  0.65829841  0.89005985  1
  Si  Si124  1  0.14555821  0.41699781  0.88494916  1
  Si  Si125  1  0.02489357  0.66740205  0.61544797  1
  Si  Si126  1  0.01925186  0.16788351  0.61523564  1
  Si  Si127  1  0.81573744  0.91203326  0.38885551  1
  Si  Si128  1  0.69646587  0.16627027  0.61775726  1
  Si  Si129  1  0.85862701  0.91539097  0.61870015  1
  Si  Si130  1  0.80761344  0.41818790  0.88551161  1
  Si  Si131  1  0.13916331  0.08183942  0.38582138  1
  Si  Si132  1  0.30078854  0.16713732  0.38417209  1
  Si  Si133  1  0.47851222  0.58166809  0.88329549  1
  Si  Si134  1  0.53288363  0.41391407  0.61282976  1
  Si  Si135  1  0.02612639  0.16197348  0.11672611  1
  Si  Si136  1  0.36239830  0.17002267  0.61180678  1
  Si  Si137  1  0.69575465  0.16299458  0.11172826  1
  Si  Si138  1  0.64257639  0.83921575  0.39069592  1
  Si  Si139  1  0.46672392  0.08848812  0.38798852  1
  Si  Si140  1  0.35308735  0.16847258  0.11284995  1
  Si  Si141  1  0.18287571  0.58183832  0.60569163  1
  Si  Si142  1  0.01699970  0.32916485  0.61314275  1
  Si  Si143  1  0.97987623  0.16860330  0.38933555  1
  Si  Si144  1  0.81290242  0.58798532  0.38748903  1
  Si  Si145  1  0.64162048  0.33743168  0.38886365  1
  Si  Si146  1  0.63801162  0.83043416  0.88564741  1
  Si  Si147  1  0.53362620  0.92032094  0.61375482  1
  Si  Si148  1  0.35525732  0.83124246  0.11642305  1
  Si  Si149  1  0.19225666  0.08122099  0.11552424  1
  Si  Si150  1  0.97332214  0.66817855  0.38241370  1
  Si  Si151  1  0.63550109  0.16984239  0.88783106  1
  Si  Si152  1  0.86228539  0.58513485  0.61621210  1
  Si  Si153  1  0.85843326  0.41959906  0.61634358  1
  Si  Si154  1  0.69243934  0.67192522  0.11453222  1
  Si  Si155  1  0.30464538  0.33310163  0.38220973  1
  Si  Si156  1  0.85582464  0.58985312  0.11039207  1
  Si  Si157  1  0.02185931  0.83867847  0.11529060  1
  Si  Si158  1  0.52560481  0.58999985  0.11135901  1
  Si  Si159  1  0.69526904  0.83355184  0.61808893  1
  Si  Si160  1  0.47465843  0.92341124  0.38604283  1
  Si  Si161  1  0.02243543  0.67343805  0.11055542  1
  Si  Si162  1  0.31112675  0.82424863  0.88523474  1
  Si  Si163  1  0.14116554  0.41863291  0.38263754  1
  Si  Si164  1  0.15158495  0.91138995  0.89317060  1
  Si  Si165  1  0.31128747  0.66083642  0.88138173  1
  Si  Si166  1  0.53490437  0.57935770  0.61069672  1
  Si  Si167  1  0.47886842  0.41816331  0.88183863  1
  Si  Si168  1  0.18790770  0.41170856  0.11115954  1
  Si  Si169  1  0.69788108  0.66779146  0.61727679  1
  Si  Si170  1  0.36104359  0.66734047  0.11252030  1
  Si  Si171  1  0.47339062  0.90973859  0.88760987  1
  Si  Si172  1  0.64240647  0.66574588  0.88469628  1
  Si  Si173  1  0.14141414  0.91661310  0.38579215  1
  Si  Si174  1  0.52050452  0.91269408  0.11449789  1
  Si  Si175  1  0.35264615  0.33153854  0.11098892  1
  Si  Si176  1  0.80202877  0.91616388  0.89104778  1
  Si  Si177  1  0.69813589  0.33132647  0.61655755  1
  Si  Si178  1  0.30520043  0.17649082  0.88871999  1
  Si  Si179  1  0.02812074  0.32737278  0.11201486  1
  Si  Si180  1  0.18713407  0.09643517  0.60958919  1
  Si  Si181  1  0.85925448  0.07926174  0.61870395  1
  Si  Si182  1  0.80792725  0.58234620  0.88662559  1
  Si  Si183  1  0.79849800  0.08337350  0.89065440  1
  Si  Si184  1  0.14543126  0.57956852  0.88340362  1
  Si  Si185  1  0.53030218  0.08705714  0.61534291  1
  Si  Si186  1  0.13205212  0.58415843  0.38423368  1
  Si  Si187  1  0.36473828  0.33319544  0.60853680  1
  Si  Si188  1  0.31293485  0.33741282  0.88268254  1
  Si  Si189  1  0.02408543  0.83431819  0.61405737  1
  Si  Si190  1  0.97780801  0.33824891  0.88930860  1
  Si  Si191  1  0.31082822  0.83732778  0.38674622  1
  O  O192  1  0.27183862  0.11464916  0.08665296  1
  O  O193  1  0.26894680  0.13603359  0.58130560  1
  O  O194  1  0.28858072  0.61313234  0.07701678  1
  O  O195  1  0.26083657  0.61019775  0.57188356  1
  O  O196  1  0.62316351  0.10760262  0.07838204  1
  O  O197  1  0.60454046  0.13212106  0.58469443  1
  O  O198  1  0.60872476  0.62445686  0.08419604  1
  O  O199  1  0.61710548  0.61816235  0.58621798  1
  O  O200  1  0.94545954  0.11045690  0.08829838  1
  O  O201  1  0.93923650  0.11280804  0.58854919  1
  O  O202  1  0.93412580  0.63041426  0.08228526  1
  O  O203  1  0.93923076  0.61886684  0.58388258  1
  O  O204  1  0.11792457  0.34779813  0.08787624  1
  O  O205  1  0.09307876  0.35112063  0.57577014  1
  O  O206  1  0.10330702  0.87281575  0.08730034  1
  O  O207  1  0.09081324  0.86840201  0.57253094  1
  O  O208  1  0.42946778  0.35617355  0.07538052  1
  O  O209  1  0.44483858  0.37432049  0.58140671  1
  O  O210  1  0.43910442  0.85839135  0.08822241  1
  O  O211  1  0.45009732  0.88341053  0.57383036  1
  O  O212  1  0.77164116  0.35428483  0.07952285  1
  O  O213  1  0.77158756  0.37522939  0.58719053  1
  O  O214  1  0.76993008  0.87252405  0.08851139  1
  O  O215  1  0.77431686  0.86792465  0.58789211  1
  O  O216  1  0.27325891  0.38589629  0.08381213  1
  O  O217  1  0.28003518  0.37300237  0.57216157  1
  O  O218  1  0.27130112  0.88063886  0.08788879  1
  O  O219  1  0.26653128  0.88952378  0.56555129  1
  O  O220  1  0.60930359  0.37664669  0.06993736  1
  O  O221  1  0.60740026  0.36786849  0.58547465  1
  O  O222  1  0.60244389  0.87881978  0.08552858  1
  O  O223  1  0.61434588  0.88192181  0.58540132  1
  O  O224  1  0.95514584  0.37866455  0.07390554  1
  O  O225  1  0.93542520  0.38310017  0.58612042  1
  O  O226  1  0.93647277  0.88583500  0.08741855  1
  O  O227  1  0.93356696  0.87782275  0.58696184  1
  O  O228  1  0.10796832  0.12919102  0.08869036  1
  O  O229  1  0.10129400  0.14768021  0.58102103  1
  O  O230  1  0.09720532  0.64381118  0.07468165  1
  O  O231  1  0.10185605  0.63752404  0.58023513  1
  O  O232  1  0.43200486  0.14572498  0.07913982  1
  O  O233  1  0.43700440  0.12201270  0.58404610  1
  O  O234  1  0.44973922  0.64915055  0.08558538  1
  O  O235  1  0.45052478  0.61605730  0.57339348  1
  O  O236  1  0.78449954  0.13705224  0.08660896  1
  O  O237  1  0.77233662  0.12438635  0.58911577  1
  O  O238  1  0.77232156  0.64115787  0.08332448  1
  O  O239  1  0.77840765  0.63408838  0.58806590  1
  O  O240  1  0.05912747  0.11234227  0.41584002  1
  O  O241  1  0.05799239  0.10722720  0.93652415  1
  O  O242  1  0.04338891  0.60642013  0.40980769  1
  O  O243  1  0.06609836  0.61267714  0.91570226  1
  O  O244  1  0.37915603  0.11463915  0.41412154  1
  O  O245  1  0.37980367  0.12179429  0.92096280  1
  O  O246  1  0.38226697  0.59392720  0.41554661  1
  O  O247  1  0.39811252  0.61455190  0.91331769  1
  O  O248  1  0.72217766  0.10346032  0.43367251  1
  O  O249  1  0.71441811  0.11586684  0.91602115  1
  O  O250  1  0.73368405  0.61258919  0.42204482  1
  O  O251  1  0.73086594  0.62354272  0.91491976  1
  O  O252  1  0.22626225  0.37064310  0.41095664  1
  O  O253  1  0.23241922  0.37197191  0.91342697  1
  O  O254  1  0.22715381  0.87104184  0.41300340  1
  O  O255  1  0.23326638  0.85573759  0.91812341  1
  O  O256  1  0.54994130  0.35959859  0.41246840  1
  O  O257  1  0.56374571  0.37044187  0.91328173  1
  O  O258  1  0.56304204  0.88218303  0.41617416  1
  O  O259  1  0.55794388  0.85892515  0.91712185  1
  O  O260  1  0.90299946  0.35445670  0.41935401  1
  O  O261  1  0.89901742  0.38254061  0.91477755  1
  O  O262  1  0.89377691  0.85289171  0.41304868  1
  O  O263  1  0.88414948  0.87433267  0.92924814  1
  O  O264  1  0.06481510  0.38413527  0.41540981  1
  O  O265  1  0.06493729  0.38507817  0.91567264  1
  O  O266  1  0.06006871  0.88307022  0.41414548  1
  O  O267  1  0.07704893  0.88156276  0.93180358  1
  O  O268  1  0.38972078  0.37844628  0.41230123  1
  O  O269  1  0.39656605  0.38816975  0.91074366  1
  O  O270  1  0.39210421  0.89078576  0.41267719  1
  O  O271  1  0.39745361  0.86795693  0.91847188  1
  O  O272  1  0.71095574  0.39704000  0.42069591  1
  O  O273  1  0.73003958  0.37892113  0.91393937  1
  O  O274  1  0.73050816  0.88438232  0.41753799  1
  O  O275  1  0.71967029  0.87919769  0.91730087  1
  O  O276  1  0.21941074  0.13494492  0.41313400  1
  O  O277  1  0.22260787  0.15729870  0.92093223  1
  O  O278  1  0.20279179  0.63936917  0.41904765  1
  O  O279  1  0.23232838  0.62483591  0.91226736  1
  O  O280  1  0.53883551  0.14203643  0.42254779  1
  O  O281  1  0.55801197  0.14632075  0.92237984  1
  O  O282  1  0.54526874  0.62660525  0.42301926  1
  O  O283  1  0.56403307  0.62878750  0.91451854  1
  O  O284  1  0.90224125  0.14669446  0.42470486  1
  O  O285  1  0.87670370  0.13007647  0.92754116  1
  O  O286  1  0.88721399  0.65048312  0.41083780  1
  O  O287  1  0.89894159  0.61675562  0.91965665  1
  O  O288  1  0.17694339  -0.00118371  0.08756544  1
  O  O289  1  0.16972637  0.02039173  0.57152364  1
  O  O290  1  0.15677946  0.48713847  0.07626903  1
  O  O291  1  0.15385868  0.50390824  0.57200333  1
  O  O292  1  0.49556602  -0.01117805  0.07965293  1
  O  O293  1  0.53443753  0.00507196  0.58707223  1
  O  O294  1  0.50324996  0.51360353  0.07482019  1
  O  O295  1  0.53794218  0.49521588  0.58394304  1
  O  O296  1  0.84006670  0.00109805  0.08600995  1
  O  O297  1  0.84395336  -0.00243726  0.58829167  1
  O  O298  1  0.83918828  0.51381680  0.07237304  1
  O  O299  1  0.84464819  0.50229839  0.58818456  1
  O  O300  1  0.00849150  0.24299175  0.08705969  1
  O  O301  1  -0.01562779  0.24768392  0.58786023  1
  O  O302  1  0.00346742  0.75782771  0.08570851  1
  O  O303  1  0.00274936  0.74992113  0.58876564  1
  O  O304  1  0.31997937  0.24958166  0.08825508  1
  O  O305  1  0.36569942  0.25032701  0.57735201  1
  O  O306  1  0.33426197  0.75033418  0.08690963  1
  O  O307  1  0.34960238  0.75071308  0.56572282  1
  O  O308  1  0.67226210  0.24345648  0.08131130  1
  O  O309  1  0.69646222  0.24895467  0.58855392  1
  O  O310  1  0.67734466  0.75437704  0.08537147  1
  O  O311  1  0.68277107  0.75034911  0.58966411  1
  O  O312  1  0.15813200  -0.00044840  0.41324128  1
  O  O313  1  0.18270072  -0.01085865  0.92474492  1
  O  O314  1  0.15617252  0.50092408  0.41055318  1
  O  O315  1  0.16221015  0.49835079  0.91568153  1
  O  O316  1  0.48547286  0.00547466  0.41513223  1
  O  O317  1  0.48983892  -0.01311517  0.92354111  1
  O  O318  1  0.49309953  0.49231892  0.41205598  1
  O  O319  1  0.49670525  0.49980800  0.91311223  1
  O  O320  1  0.84891431  -0.01378890  0.42506067  1
  O  O321  1  0.80588365  -0.00026050  0.91812215  1
  O  O322  1  0.84999437  0.51233850  0.41954620  1
  O  O323  1  0.80877675  0.49999850  0.91478845  1
  O  O324  1  0.31552025  0.25021758  0.41169308  1
  O  O325  1  0.33491148  0.25928008  0.91740006  1
  O  O326  1  0.33455519  0.75976136  0.41824902  1
  O  O327  1  0.32650814  0.74113382  0.91525289  1
  O  O328  1  0.66733625  0.26098235  0.42493386  1
  O  O329  1  0.66225871  0.25296891  0.91405444  1
  O  O330  1  0.65301066  0.76216752  0.42700298  1
  O  O331  1  0.65573182  0.74755910  0.91427381  1
  O  O332  1  1.01540123  0.24930310  0.41369307  1
  O  O333  1  0.98729259  0.26214372  0.92626491  1
  O  O334  1  1.00570629  0.74807141  0.41164875  1
  O  O335  1  0.98714372  0.73601212  0.92501174  1
  O  O336  1  0.20952255  0.08166166  0.19641882  1
  O  O337  1  0.20270006  0.09314450  0.68812013  1
  O  O338  1  0.20885900  0.58238278  0.19755429  1
  O  O339  1  0.20746576  0.57887796  0.68607521  1
  O  O340  1  0.54251069  0.08174910  0.20125102  1
  O  O341  1  0.55051276  0.09134702  0.69422856  1
  O  O342  1  0.54147844  0.58563565  0.19210859  1
  O  O343  1  0.54863197  0.58120673  0.69186942  1
  O  O344  1  0.87915979  0.08022801  0.19680940  1
  O  O345  1  0.87398866  0.08137130  0.69868775  1
  O  O346  1  0.87449414  0.58810094  0.19136559  1
  O  O347  1  0.87780794  0.58342950  0.69665037  1
  O  O348  1  0.04249267  0.33073161  0.19304810  1
  O  O349  1  0.03808623  0.33239338  0.69407584  1
  O  O350  1  0.04263458  0.83724008  0.19554460  1
  O  O351  1  0.04851705  0.84059033  0.69321290  1
  O  O352  1  0.37350140  0.33348571  0.19232051  1
  O  O353  1  0.38066088  0.33217784  0.68860364  1
  O  O354  1  0.37426519  0.83392860  0.19708566  1
  O  O355  1  0.38046814  0.82986306  0.69901206  1
  O  O356  1  0.69442505  0.33069538  0.18801630  1
  O  O357  1  0.71360448  0.33354134  0.69698112  1
  O  O358  1  0.70420753  0.83436528  0.19681058  1
  O  O359  1  0.71135015  0.83348459  0.69851058  1
  O  O360  1  0.20755798  0.41524855  0.19249204  1
  O  O361  1  0.20538148  0.41578169  0.69677577  1
  O  O362  1  0.20929631  0.91695617  0.19639693  1
  O  O363  1  0.21262787  0.91527081  0.70044862  1
  O  O364  1  0.54204573  0.41809076  0.19927853  1
  O  O365  1  0.54818225  0.41541699  0.69326420  1
  O  O366  1  0.54093872  0.91470908  0.19555321  1
  O  O367  1  0.54986532  0.91332747  0.69359134  1
  O  O368  1  0.88385267  0.42666364  0.19613307  1
  O  O369  1  0.87612659  0.41718919  0.69694347  1
  O  O370  1  0.87692865  0.92029450  0.19684957  1
  O  O371  1  0.87231297  0.91732142  0.69838890  1
  O  O372  1  0.04476441  0.16306688  0.19729424  1
  O  O373  1  0.04029087  0.16782153  0.69505529  1
  O  O374  1  0.04234151  0.66950751  0.19153136  1
  O  O375  1  0.04284429  0.65893987  0.69369565  1
  O  O376  1  0.37277189  0.16596676  0.19429294  1
  O  O377  1  0.38155203  0.17558318  0.69083524  1
  O  O378  1  0.37785420  0.66698510  0.19353812  1
  O  O379  1  0.38060934  0.66402645  0.69735863  1
  O  O380  1  0.71091820  0.16432915  0.19232976  1
  O  O381  1  0.71235163  0.16683256  0.69815748  1
  O  O382  1  0.71020598  0.67001568  0.19458097  1
  O  O383  1  0.71327016  0.66574806  0.69775538  1
  O  O384  1  0.12321593  0.08234964  0.30508974  1
  O  O385  1  0.12266698  0.08521565  0.80210433  1
  O  O386  1  0.11841381  0.58446529  0.30318525  1
  O  O387  1  0.12359329  0.57659640  0.80440115  1
  O  O388  1  0.45104884  0.08576296  0.30692911  1
  O  O389  1  0.46633810  0.08314410  0.79990879  1
  O  O390  1  0.45469970  0.58139523  0.30542748  1
  O  O391  1  0.46427992  0.58162410  0.80358270  1
  O  O392  1  0.78924896  0.08100914  0.30144618  1
  O  O393  1  0.78737431  0.08401727  0.80955293  1
  O  O394  1  0.79159317  0.58778957  0.30562546  1
  O  O395  1  0.79023879  0.58266122  0.80608467  1
  O  O396  1  0.28732320  0.33229421  0.30170835  1
  O  O397  1  0.29225092  0.33448849  0.80329379  1
  O  O398  1  0.28972694  0.83644284  0.30534686  1
  O  O399  1  0.29544650  0.82657202  0.80588618  1
  O  O400  1  0.62326995  0.33385694  0.30735831  1
  O  O401  1  0.62578559  0.33493128  0.80416583  1
  O  O402  1  0.62291477  0.83560747  0.30947411  1
  O  O403  1  0.62353085  0.83100199  0.80545132  1
  O  O404  1  0.96968137  0.33223690  0.30684244  1
  O  O405  1  0.95777198  0.33543741  0.80806229  1
  O  O406  1  0.96310205  0.83266072  0.30478506  1
  O  O407  1  0.95160675  0.84126871  0.80532211  1
  O  O408  1  0.12367989  0.41695789  0.30200728  1
  O  O409  1  0.12353349  0.41572354  0.80497579  1
  O  O410  1  0.12283880  0.91699233  0.30499085  1
  O  O411  1  0.12424431  0.90964240  0.81322906  1
  O  O412  1  0.45102834  0.41390550  0.30250118  1
  O  O413  1  0.46604202  0.41774307  0.80247800  1
  O  O414  1  0.45674233  0.91935918  0.30517347  1
  O  O415  1  0.45829235  0.90966427  0.80816925  1
  O  O416  1  0.78227222  0.42520531  0.29911589  1
  O  O417  1  0.79042954  0.41745647  0.80492250  1
  O  O418  1  0.79141357  0.91658073  0.30873997  1
  O  O419  1  0.78760452  0.91501100  0.81011937  1
  O  O420  1  0.28627974  0.16693121  0.30361286  1
  O  O421  1  0.28793833  0.17830086  0.80836626  1
  O  O422  1  0.28610215  0.66852564  0.29724404  1
  O  O423  1  0.29708919  0.66213301  0.80248047  1
  O  O424  1  0.62126710  0.16731557  0.30025109  1
  O  O425  1  0.62299577  0.17013777  0.80684010  1
  O  O426  1  0.62007502  0.66835253  0.29940083  1
  O  O427  1  0.62535535  0.66445300  0.80439633  1
  O  O428  1  0.96008591  0.16513833  0.30818283  1
  O  O429  1  0.95504481  0.16667224  0.80242895  1
  O  O430  1  0.95669063  0.66872514  0.30163093  1
  O  O431  1  0.95345577  0.65580647  0.81039433  1
  F  F432  1  0.04504923  -0.00030578  0.20330285  1
  F  F433  1  0.03122948  -0.00136941  0.70151219  1
  F  F434  1  0.04522053  0.50112041  0.20014689  1
  F  F435  1  0.04147131  0.49770794  0.70196442  1
  F  F436  1  0.37663597  -0.00025249  0.20331320  1
  F  F437  1  0.38162901  -0.01432607  0.69256442  1
  F  F438  1  0.37701605  0.50095509  0.20109001  1
  F  F439  1  0.38324281  0.50295661  0.69608161  1
  F  F440  1  0.71056476  -0.00367289  0.20325868  1
  F  F441  1  0.71406536  0.00064408  0.70610113  1
  F  F442  1  0.70870139  0.50688342  0.19836013  1
  F  F443  1  0.71531024  0.49961438  0.70220180  1
  F  F444  1  0.20984562  0.24815126  0.20079081  1
  F  F445  1  0.21179360  0.25180471  0.70053987  1
  F  F446  1  0.20995358  0.75522078  0.19929894  1
  F  F447  1  0.21415468  0.75247258  0.69728603  1
  F  F448  1  0.54097138  0.25064581  0.20139399  1
  F  F449  1  0.54971955  0.25285976  0.70132281  1
  F  F450  1  0.54374280  0.75381694  0.20293386  1
  F  F451  1  0.55036588  0.74767228  0.70096725  1
  F  F452  1  0.88484348  0.23648925  0.20015800  1
  F  F453  1  0.87594204  0.25152188  0.70412858  1
  F  F454  1  0.87882079  0.74956998  0.19911775  1
  F  F455  1  0.86570139  0.74937979  0.70161372  1
  F  F456  1  0.28673326  0.00078345  0.29845893  1
  F  F457  1  0.29602412  -0.01214450  0.80829536  1
  F  F458  1  0.28646065  0.49613824  0.29622329  1
  F  F459  1  0.28881408  0.50501813  0.79547434  1
  F  F460  1  0.62055077  -0.00333246  0.30027174  1
  F  F461  1  0.62863593  -0.00173458  0.80314488  1
  F  F462  1  0.61921930  0.50396189  0.29683378  1
  F  F463  1  0.62363568  0.49987957  0.79622813  1
  F  F464  1  0.95732743  -0.00064530  0.30052940  1
  F  F465  1  0.95331256  0.00107532  0.80391985  1
  F  F466  1  0.95721569  0.50475096  0.29702375  1
  F  F467  1  0.95501255  0.49769923  0.79918150  1
  F  F468  1  0.12331703  0.24924668  0.29653011  1
  F  F469  1  0.12081692  0.25395695  0.79629713  1
  F  F470  1  0.11977333  0.75073723  0.29442157  1
  F  F471  1  0.13987220  0.74955835  0.80455242  1
  F  F472  1  0.45035113  0.25077797  0.29568224  1
  F  F473  1  0.45689455  0.25353708  0.79593025  1
  F  F474  1  0.45354771  0.75125941  0.29782408  1
  F  F475  1  0.46319961  0.74684121  0.79922786  1
  F  F476  1  0.78312146  0.24166463  0.29946570  1
  F  F477  1  0.78824644  0.25176806  0.80065707  1
  F  F478  1  0.78669866  0.74908485  0.29898787  1
  F  F479  1  0.78673422  0.74773105  0.80294731  1
