# generated using pymatgen
data_K24Na3Li5Mg64Fe17Si79(O5F)48
_symmetry_space_group_name_H-M   'P 1'
_cell_length_a   16.08174027
_cell_length_b   18.57940613
_cell_length_c   20.54604989
_cell_angle_alpha   89.99578860
_cell_angle_beta   100.02032048
_cell_angle_gamma   89.99519579
_symmetry_Int_Tables_number   1
_chemical_formula_structural   K24Na3Li5Mg64Fe17Si79(O5F)48
_chemical_formula_sum   'K24 Na3 Li5 Mg64 Fe17 Si79 O240 F48'
_cell_volume   6045.29472473
_cell_formula_units_Z   1
loop_
 _symmetry_equiv_pos_site_id
 _symmetry_equiv_pos_as_xyz
  1  'x, y, z'
loop_
 _atom_site_type_symbol
 _atom_site_label
 _atom_site_symmetry_multiplicity
 _atom_site_fract_x
 _atom_site_fract_y
 _atom_site_fract_z
 _atom_site_occupancy
  K  K0  1  0.00050715  0.00796770  -0.00081124  1
  K  K1  1  -0.00485245  0.00917188  0.50507779  1
  K  K2  1  0.00360798  0.49202182  0.00570527  1
  K  K3  1  0.00093209  0.49592909  0.50333018  1
  K  K4  1  0.32817794  0.00873411  0.00294169  1
  K  K5  1  0.33239606  0.00341017  0.49985764  1
  K  K6  1  0.33702901  0.49778649  -0.00859602  1
  K  K7  1  0.33095814  0.50402012  0.50368987  1
  K  K8  1  0.66774411  -0.00072576  -0.00032864  1
  K  K9  1  0.67429024  -0.00438323  0.50376664  1
  K  K10  1  0.66018402  0.50085695  -0.00365436  1
  K  K11  1  0.66999940  0.49983207  0.50378922  1
  K  K12  1  0.15640559  0.24666846  0.00655683  1
  K  K13  1  0.16658590  0.25552415  0.49885136  1
  K  K14  1  0.16155935  0.74950666  -0.00310774  1
  K  K15  1  0.17180342  0.74708684  0.50420803  1
  K  K16  1  0.49207561  0.25331957  0.00428416  1
  K  K17  1  0.50264507  0.24882216  0.49973544  1
  K  K18  1  0.49923547  0.73888546  -0.00577380  1
  K  K19  1  0.50294767  0.74666202  0.50390760  1
  K  K20  1  0.84776512  0.25659887  0.00278415  1
  K  K21  1  0.83363254  0.25037280  0.49883207  1
  K  K22  1  0.83026560  0.75086488  -0.00277463  1
  K  K23  1  0.83123890  0.74804257  0.50458177  1
  Na  Na24  1  0.33492110  0.74576192  0.75251177  1
  Na  Na25  1  0.50560833  0.82774994  0.24667606  1
  Na  Na26  1  0.16315405  0.33149259  0.24904386  1
  Li  Li27  1  -0.00122978  0.24925119  0.75210671  1
  Li  Li28  1  0.66503610  0.74992451  0.24828853  1
  Li  Li29  1  0.82947810  0.83168650  0.74604265  1
  Li  Li30  1  0.83531126  0.33362439  0.26031037  1
  Li  Li31  1  0.33769223  0.58568811  0.75026692  1
  Mg  Mg32  1  0.16403637  0.49892516  0.24621375  1
  Mg  Mg33  1  -0.00484800  0.25000973  0.25391317  1
  Mg  Mg34  1  -0.00317672  0.74991035  0.75018880  1
  Mg  Mg35  1  0.83449105  0.00024965  0.25073036  1
  Mg  Mg36  1  0.83484090  0.50045553  0.74892588  1
  Mg  Mg37  1  0.49899277  -0.00147892  0.75023153  1
  Mg  Mg38  1  0.49783079  0.50185883  0.74970899  1
  Mg  Mg39  1  0.33291292  0.25120140  0.74822133  1
  Mg  Mg40  1  0.16672404  -0.00062144  0.24640876  1
  Mg  Mg41  1  0.50077916  -0.00153981  0.24658777  1
  Mg  Mg42  1  0.00084381  0.75133437  0.24554359  1
  Mg  Mg43  1  0.16544693  0.00120715  0.75151083  1
  Mg  Mg44  1  0.17313615  0.50127470  0.75038707  1
  Mg  Mg45  1  0.33213221  0.24902428  0.24629940  1
  Mg  Mg46  1  0.83204961  0.49751653  0.25123549  1
  Mg  Mg47  1  0.66865715  0.24977776  0.75111161  1
  Mg  Mg48  1  0.83356312  -0.00288412  0.75119125  1
  Mg  Mg49  1  0.66726063  0.25231843  0.25340312  1
  Mg  Mg50  1  0.66951652  0.74976508  0.74843073  1
  Mg  Mg51  1  0.33633379  0.74971192  0.24686136  1
  Mg  Mg52  1  0.50221886  0.49902597  0.25098788  1
  Mg  Mg53  1  0.49820328  0.66415133  0.75125994  1
  Mg  Mg54  1  0.16633921  0.66605447  0.24636888  1
  Mg  Mg55  1  0.50435580  0.66756480  0.24842542  1
  Mg  Mg56  1  0.83277421  0.66782959  0.25055120  1
  Mg  Mg57  1  0.66935363  0.58625859  0.25210426  1
  Mg  Mg58  1  0.66747248  0.91345637  0.24915475  1
  Mg  Mg59  1  0.33283989  0.41721221  0.75155106  1
  Mg  Mg60  1  0.33168710  0.41587819  0.24758706  1
  Mg  Mg61  1  0.66758994  0.08269363  0.75271617  1
  Mg  Mg62  1  0.33478577  0.58384864  0.24703799  1
  Mg  Mg63  1  0.66848725  0.91388565  0.74939541  1
  Mg  Mg64  1  0.16463852  0.16435238  0.24775912  1
  Mg  Mg65  1  0.66719390  0.08386092  0.25043819  1
  Mg  Mg66  1  0.50099469  0.33412981  0.24973370  1
  Mg  Mg67  1  0.00171167  0.91491038  0.24625718  1
  Mg  Mg68  1  0.49820664  0.33482072  0.74902242  1
  Mg  Mg69  1  0.66604273  0.41552234  0.74814435  1
  Mg  Mg70  1  0.33082150  0.91528226  0.75042129  1
  Mg  Mg71  1  -0.00063088  0.08681015  0.75262525  1
  Mg  Mg72  1  0.49902298  0.16560815  0.24774536  1
  Mg  Mg73  1  0.16561323  0.33385350  0.74980438  1
  Mg  Mg74  1  -0.00382819  0.91506864  0.75131193  1
  Mg  Mg75  1  0.49803825  0.16607414  0.74988758  1
  Mg  Mg76  1  0.83557044  0.33293589  0.75149193  1
  Mg  Mg77  1  0.16581539  0.83279243  0.75205017  1
  Mg  Mg78  1  0.16657195  0.83350386  0.24489784  1
  Mg  Mg79  1  0.00023742  0.58314932  0.24816201  1
  Mg  Mg80  1  -0.00073496  0.58372703  0.75003601  1
  Mg  Mg81  1  0.16229431  0.16726761  0.75075361  1
  Mg  Mg82  1  0.83205770  0.83296199  0.24792170  1
  Mg  Mg83  1  0.83442733  0.16844275  0.25374884  1
  Mg  Mg84  1  0.00141122  0.41488870  0.75060127  1
  Mg  Mg85  1  0.66436794  0.58428835  0.74869742  1
  Mg  Mg86  1  0.83093738  0.66729592  0.74649210  1
  Mg  Mg87  1  0.33601257  0.91500742  0.24529135  1
  Mg  Mg88  1  0.16972381  0.66635175  0.75157373  1
  Mg  Mg89  1  0.32882098  0.08464386  0.74780993  1
  Mg  Mg90  1  -0.00529237  0.41156841  0.25219535  1
  Mg  Mg91  1  0.00231918  0.08502416  0.25215105  1
  Mg  Mg92  1  0.33260467  0.08479430  0.24675292  1
  Mg  Mg93  1  0.49929998  0.83183309  0.74990054  1
  Mg  Mg94  1  0.83633433  0.16654065  0.75314494  1
  Mg  Mg95  1  0.67086723  0.41418549  0.25382104  1
  Fe  Fe96  1  0.02208056  0.33292808  0.10838538  1
  Fe  Fe97  1  0.14775233  0.08094695  0.38936594  1
  Fe  Fe98  1  0.02139487  0.83326307  0.10502434  1
  Fe  Fe99  1  0.51985340  0.58100688  0.60949023  1
  Fe  Fe100  1  0.13960565  0.41980228  0.38807168  1
  Fe  Fe101  1  0.35707238  0.16941794  0.10689320  1
  Fe  Fe102  1  0.80841539  0.42067311  0.39354980  1
  Fe  Fe103  1  0.86014378  0.58272688  0.61039002  1
  Fe  Fe104  1  0.63709176  0.33115163  0.39279125  1
  Fe  Fe105  1  0.19221523  0.42161344  0.60932071  1
  Fe  Fe106  1  0.18696959  0.08302937  0.61070774  1
  Fe  Fe107  1  0.97342957  0.16329895  0.39344263  1
  Fe  Fe108  1  0.97545070  0.17173809  0.89312577  1
  Fe  Fe109  1  0.36173932  0.33163019  0.60983935  1
  Fe  Fe110  1  0.68961534  0.83584395  0.61011885  1
  Fe  Fe111  1  0.47320039  0.58111895  0.89314247  1
  Fe  Fe112  1  0.69539411  0.32933530  0.61293279  1
  Si  Si113  1  0.52846028  0.41361527  0.61324319  1
  Si  Si114  1  0.97294376  0.83170866  0.88565211  1
  Si  Si115  1  0.80492644  0.42140961  0.88706062  1
  Si  Si116  1  0.53064204  0.91731159  0.11164144  1
  Si  Si117  1  0.30306518  0.66865100  0.89129369  1
  Si  Si118  1  0.02737638  0.33383703  0.61779237  1
  Si  Si119  1  0.14519106  0.58956736  0.38452311  1
  Si  Si120  1  0.68922376  0.15931531  0.61593058  1
  Si  Si121  1  0.69410294  0.66846764  0.11552605  1
  Si  Si122  1  0.97490130  0.33297222  0.39336376  1
  Si  Si123  1  0.64307523  0.32991854  0.88756920  1
  Si  Si124  1  0.52859679  0.58542435  0.11503856  1
  Si  Si125  1  0.36101051  0.34123704  0.10924673  1
  Si  Si126  1  0.02159999  0.15967017  0.11130452  1
  Si  Si127  1  0.97420771  0.34378481  0.88946586  1
  Si  Si128  1  0.47284395  0.91793636  0.88724664  1
  Si  Si129  1  0.31153826  0.66762523  0.38098778  1
  Si  Si130  1  0.80167947  0.07834984  0.38752634  1
  Si  Si131  1  0.30531056  0.83631333  0.88807599  1
  Si  Si132  1  0.68929239  0.66613878  0.60929900  1
  Si  Si133  1  0.36109763  0.66815282  0.11166069  1
  Si  Si134  1  0.85396516  0.08416909  0.11572428  1
  Si  Si135  1  0.18941355  0.07850330  0.10923186  1
  Si  Si136  1  0.85431494  0.58130187  0.11426429  1
  Si  Si137  1  0.14059751  0.58602020  0.88770801  1
  Si  Si138  1  0.18764718  0.91348105  0.61470123  1
  Si  Si139  1  0.86264116  0.41244926  0.61468391  1
  Si  Si140  1  0.64362329  0.83337553  0.38380442  1
  Si  Si141  1  0.35989522  0.67039846  0.61155288  1
  Si  Si142  1  0.19146799  0.59197837  0.61534265  1
  Si  Si143  1  0.30729446  0.16545442  0.88582844  1
  Si  Si144  1  0.14294924  0.08149942  0.89024301  1
  Si  Si145  1  0.68983304  0.33326197  0.11573969  1
  Si  Si146  1  0.80571982  0.58665445  0.88601214  1
  Si  Si147  1  0.80653069  0.08057677  0.89062875  1
  Si  Si148  1  0.36377779  0.83370442  0.11126114  1
  Si  Si149  1  0.13910153  0.91535998  0.88793598  1
  Si  Si150  1  0.69348196  0.83328733  0.11283284  1
  Si  Si151  1  0.80735765  0.91590396  0.88633601  1
  Si  Si152  1  0.14364582  0.42053498  0.88716697  1
  Si  Si153  1  0.64047312  0.66816346  0.38493362  1
  Si  Si154  1  0.97785154  0.67226142  0.38253490  1
  Si  Si155  1  0.52989048  0.08188847  0.10958854  1
  Si  Si156  1  0.85337868  0.92069357  0.11038873  1
  Si  Si157  1  0.19261645  0.58782223  0.11068770  1
  Si  Si158  1  0.47203640  0.08078587  0.38370129  1
  Si  Si159  1  0.47592020  0.40920952  0.89092756  1
  Si  Si160  1  0.52420579  0.08248173  0.61797747  1
  Si  Si161  1  0.81257477  0.59142000  0.38788475  1
  Si  Si162  1  0.19712111  0.91222097  0.10821907  1
  Si  Si163  1  0.52919772  0.42046772  0.11397121  1
  Si  Si164  1  0.30872571  0.33233752  0.38115593  1
  Si  Si165  1  0.86418438  0.91793454  0.61344939  1
  Si  Si166  1  0.63877951  0.15953835  0.38602376  1
  Si  Si167  1  0.02626157  0.83230130  0.61747790  1
  Si  Si168  1  0.97924172  0.83648019  0.38294932  1
  Si  Si169  1  0.02071642  0.17137741  0.61591565  1
  Si  Si170  1  0.47339394  0.08465647  0.88614030  1
  Si  Si171  1  0.69325062  0.16908053  0.11566854  1
  Si  Si172  1  0.64321484  0.67053529  0.88865402  1
  Si  Si173  1  0.81035351  0.91278386  0.38539125  1
  Si  Si174  1  0.47557682  0.91766092  0.38260948  1
  Si  Si175  1  0.46660636  0.41728821  0.38529913  1
  Si  Si176  1  0.31217903  0.17050507  0.38530228  1
  Si  Si177  1  0.15051945  0.91200764  0.38422415  1
  Si  Si178  1  0.85336997  0.41840430  0.11239717  1
  Si  Si179  1  0.30499410  0.33003176  0.88743441  1
  Si  Si180  1  0.51936788  0.91991545  0.61300199  1
  Si  Si181  1  0.47605724  0.58262658  0.38317222  1
  Si  Si182  1  0.31306123  0.83015721  0.38137279  1
  Si  Si183  1  0.19670237  0.42380329  0.10908236  1
  Si  Si184  1  0.02822927  0.66929060  0.61554895  1
  Si  Si185  1  0.63965502  0.83633855  0.88644568  1
  Si  Si186  1  0.01976932  0.66210663  0.10971778  1
  Si  Si187  1  0.64112286  0.16415425  0.88712025  1
  Si  Si188  1  0.85881550  0.08277302  0.61654483  1
  Si  Si189  1  0.97345516  0.66554062  0.88664077  1
  Si  Si190  1  0.35693782  0.83669376  0.61559398  1
  Si  Si191  1  0.35931302  0.16220008  0.61273502  1
  O  O192  1  0.25784767  0.11830789  0.07229694  1
  O  O193  1  0.29288184  0.09853130  0.58566567  1
  O  O194  1  0.26990039  0.62979132  0.08183992  1
  O  O195  1  0.27262342  0.62404242  0.58450718  1
  O  O196  1  0.61348383  0.11698736  0.08379935  1
  O  O197  1  0.61182766  0.10056343  0.59077950  1
  O  O198  1  0.60518587  0.62590323  0.08531418  1
  O  O199  1  0.61945717  0.60583750  0.57887287  1
  O  O200  1  0.93540894  0.11069395  0.08459767  1
  O  O201  1  0.93618308  0.12095854  0.58773581  1
  O  O202  1  0.93880271  0.60735416  0.08474976  1
  O  O203  1  0.95827107  0.61390616  0.57893557  1
  O  O204  1  0.11505702  0.37750485  0.07669158  1
  O  O205  1  0.10702516  0.35211078  0.58241964  1
  O  O206  1  0.11959797  0.86229875  0.07353009  1
  O  O207  1  0.11275998  0.85315616  0.58939988  1
  O  O208  1  0.44118172  0.38041017  0.08160493  1
  O  O209  1  0.46848372  0.34519676  0.58653078  1
  O  O210  1  0.44415306  0.87099686  0.08405427  1
  O  O211  1  0.43588252  0.86999223  0.58314619  1
  O  O212  1  0.76695781  0.37001518  0.08498538  1
  O  O213  1  0.79820184  0.34818527  0.58613768  1
  O  O214  1  0.76955544  0.87078231  0.08037036  1
  O  O215  1  0.78596782  0.87013586  0.57666785  1
  O  O216  1  0.28063336  0.39400331  0.08075350  1
  O  O217  1  0.28335508  0.39751959  0.57014232  1
  O  O218  1  0.28111639  0.88163603  0.07918500  1
  O  O219  1  0.27239804  0.88508538  0.58652192  1
  O  O220  1  0.60429123  0.37967584  0.08305139  1
  O  O221  1  0.61819083  0.40327151  0.58678664  1
  O  O222  1  0.60618928  0.87646384  0.08080431  1
  O  O223  1  0.59704582  0.89844930  0.57687999  1
  O  O224  1  0.92463786  0.38822403  0.07255441  1
  O  O225  1  0.95364244  0.39387542  0.59124433  1
  O  O226  1  0.92989649  0.89580317  0.07391265  1
  O  O227  1  0.95107109  0.88908339  0.58735167  1
  O  O228  1  0.09601391  0.11396549  0.08279514  1
  O  O229  1  0.09732016  0.14620896  0.57892525  1
  O  O230  1  0.10345280  0.62958716  0.08180608  1
  O  O231  1  0.11804360  0.65433325  0.59015307  1
  O  O232  1  0.44756086  0.12474813  0.07307492  1
  O  O233  1  0.45161330  0.14115121  0.58951356  1
  O  O234  1  0.43864929  0.62620258  0.08427034  1
  O  O235  1  0.43178799  0.64428894  0.57006418  1
  O  O236  1  0.77506442  0.13827085  0.08607378  1
  O  O237  1  0.77061584  0.12513438  0.58698571  1
  O  O238  1  0.77299604  0.63354400  0.08372997  1
  O  O239  1  0.77634573  0.65048542  0.58049237  1
  O  O240  1  0.05263436  0.09398646  0.42568519  1
  O  O241  1  0.07756068  0.12282340  0.92809296  1
  O  O242  1  0.06279832  0.62562489  0.41195788  1
  O  O243  1  0.05982397  0.62074211  0.91757077  1
  O  O244  1  0.39236785  0.11495593  0.41258712  1
  O  O245  1  0.39900778  0.12706772  0.91608743  1
  O  O246  1  0.39287128  0.61631141  0.40987862  1
  O  O247  1  0.38636981  0.62798630  0.93012715  1
  O  O248  1  0.71039424  0.09678143  0.41021685  1
  O  O249  1  0.72133134  0.11273667  0.91719241  1
  O  O250  1  0.73038866  0.62864980  0.41500062  1
  O  O251  1  0.73729410  0.63463335  0.91801683  1
  O  O252  1  0.22364603  0.34794253  0.40988184  1
  O  O253  1  0.23095834  0.37505936  0.91749626  1
  O  O254  1  0.22749225  0.85238110  0.40989383  1
  O  O255  1  0.22819068  0.87447858  0.91987326  1
  O  O256  1  0.53599293  0.36100787  0.42022143  1
  O  O257  1  0.56387246  0.36210062  0.91960754  1
  O  O258  1  0.56385100  0.87379220  0.41111472  1
  O  O259  1  0.56301290  0.87749379  0.91740213  1
  O  O260  1  0.88923503  0.35077582  0.42335658  1
  O  O261  1  0.89755639  0.38806101  0.91868388  1
  O  O262  1  0.89881488  0.86910097  0.41371782  1
  O  O263  1  0.89423651  0.86978554  0.91519419  1
  O  O264  1  0.04432252  0.39472053  0.42293615  1
  O  O265  1  0.06295298  0.38904976  0.91759079  1
  O  O266  1  0.06497445  0.88241314  0.41144902  1
  O  O267  1  0.06166203  0.87444580  0.91704449  1
  O  O268  1  0.37728752  0.39659920  0.40962724  1
  O  O269  1  0.39818209  0.36452997  0.91815081  1
  O  O270  1  0.39572860  0.88006624  0.41171156  1
  O  O271  1  0.39562367  0.87880467  0.91759761  1
  O  O272  1  0.71531163  0.39679897  0.43062468  1
  O  O273  1  0.73019027  0.37589888  0.91655280  1
  O  O274  1  0.73325751  0.87442074  0.41668673  1
  O  O275  1  0.72881587  0.87807345  0.91683397  1
  O  O276  1  0.23559648  0.14706077  0.42180480  1
  O  O277  1  0.23848025  0.11585333  0.91546224  1
  O  O278  1  0.22628563  0.64547719  0.40971728  1
  O  O279  1  0.22062522  0.63588219  0.92212189  1
  O  O280  1  0.55486655  0.12861032  0.41402554  1
  O  O281  1  0.56093604  0.12818728  0.91634425  1
  O  O282  1  0.56077592  0.62996094  0.41373823  1
  O  O283  1  0.57626902  0.63083928  0.92676129  1
  O  O284  1  0.87320614  0.13115680  0.42462963  1
  O  O285  1  0.88649571  0.12526969  0.92767718  1
  O  O286  1  0.89379436  0.64703149  0.41122371  1
  O  O287  1  0.89761396  0.62424792  0.91646219  1
  O  O288  1  0.18253279  -0.00511332  0.08027923  1
  O  O289  1  0.15556030  -0.01134471  0.58045447  1
  O  O290  1  0.18471713  0.50747074  0.07824553  1
  O  O291  1  0.16033925  0.51675025  0.57988402  1
  O  O292  1  0.52234136  -0.00152407  0.07890710  1
  O  O293  1  0.49036432  0.00323507  0.58981093  1
  O  O294  1  0.52326139  0.50344967  0.08450078  1
  O  O295  1  0.48453697  0.48807939  0.58213306  1
  O  O296  1  0.82540655  0.00368436  0.08581094  1
  O  O297  1  0.84998522  0.00142438  0.58431712  1
  O  O298  1  0.82791663  0.50164941  0.08352234  1
  O  O299  1  0.82973681  0.48916025  0.58185674  1
  O  O300  1  0.01061183  0.23680345  0.07466665  1
  O  O301  1  -0.00934865  0.25335519  0.59290698  1
  O  O302  1  -0.00475618  0.73836109  0.07350036  1
  O  O303  1  -0.00134174  0.75191319  0.58898602  1
  O  O304  1  0.34729350  0.26402588  0.07264128  1
  O  O305  1  0.32778842  0.23779384  0.57924933  1
  O  O306  1  0.35610695  0.75057837  0.08119701  1
  O  O307  1  0.33631087  0.75552427  0.58626989  1
  O  O308  1  0.67441469  0.25057494  0.08502595  1
  O  O309  1  0.66090532  0.23529066  0.58207164  1
  O  O310  1  0.68258796  0.75037859  0.08426518  1
  O  O311  1  0.65439284  0.74451287  0.57907549  1
  O  O312  1  0.18428549  -0.01376995  0.41837304  1
  O  O313  1  0.14892005  -0.00291732  0.91816846  1
  O  O314  1  0.17133312  0.51447621  0.42024198  1
  O  O315  1  0.15796017  0.50347061  0.91705632  1
  O  O316  1  0.48680992  -0.00117651  0.41521874  1
  O  O317  1  0.48107220  0.00158441  0.91616640  1
  O  O318  1  0.48988069  0.50089676  0.41194735  1
  O  O319  1  0.48554510  0.48554883  0.92910312  1
  O  O320  1  0.82187110  -0.00554259  0.41517421  1
  O  O321  1  0.81663967  -0.00328237  0.91974482  1
  O  O322  1  0.83801187  0.51660981  0.42419002  1
  O  O323  1  0.80378177  0.50431678  0.91669233  1
  O  O324  1  0.34654046  0.25214493  0.40821932  1
  O  O325  1  0.30730397  0.24695720  0.91727172  1
  O  O326  1  0.33808047  0.74874509  0.40932551  1
  O  O327  1  0.31298598  0.75450436  0.91816139  1
  O  O328  1  0.66557512  0.23491327  0.42145760  1
  O  O329  1  0.65788520  0.24643068  0.91653001  1
  O  O330  1  0.64704213  0.75110584  0.41447402  1
  O  O331  1  0.64998691  0.75504452  0.91740944  1
  O  O332  1  1.00924114  0.25466593  0.42378390  1
  O  O333  1  0.98316916  0.26676773  0.92623156  1
  O  O334  1  0.99759686  0.75444159  0.41154971  1
  O  O335  1  0.98204769  0.74878651  0.91642160  1
  O  O336  1  0.21213327  0.07903214  0.18984429  1
  O  O337  1  0.20819776  0.08292954  0.70305458  1
  O  O338  1  0.21139804  0.58724387  0.19109535  1
  O  O339  1  0.20765642  0.58674896  0.69573074  1
  O  O340  1  0.54445238  0.08194984  0.19058279  1
  O  O341  1  0.54313621  0.08217741  0.69897663  1
  O  O342  1  0.54450967  0.58298859  0.19493058  1
  O  O343  1  0.54634489  0.58376966  0.70134271  1
  O  O344  1  0.87261495  0.08175545  0.19570156  1
  O  O345  1  0.87425076  0.08075716  0.69699062  1
  O  O346  1  0.87428280  0.58531903  0.19452925  1
  O  O347  1  0.87916910  0.58364340  0.70255064  1
  O  O348  1  0.02867623  0.33070365  0.19710236  1
  O  O349  1  0.04650787  0.33589182  0.69836690  1
  O  O350  1  0.04496367  0.83282373  0.19690005  1
  O  O351  1  0.04238841  0.83445134  0.69802013  1
  O  O352  1  0.37885194  0.33648345  0.18997079  1
  O  O353  1  0.37835326  0.33261358  0.70302547  1
  O  O354  1  0.37132736  0.83159015  0.19032863  1
  O  O355  1  0.37998484  0.84158194  0.69516717  1
  O  O356  1  0.70308840  0.33234963  0.19458339  1
  O  O357  1  0.71324893  0.33100490  0.70525033  1
  O  O358  1  0.71301962  0.83696619  0.19221193  1
  O  O359  1  0.70830489  0.83409938  0.70078981  1
  O  O360  1  0.21625144  0.42714216  0.18875592  1
  O  O361  1  0.21204461  0.41691311  0.70186807  1
  O  O362  1  0.21240886  0.91300385  0.18937883  1
  O  O363  1  0.20751553  0.91602191  0.69602745  1
  O  O364  1  0.54389309  0.41947284  0.19397589  1
  O  O365  1  0.54451017  0.41555503  0.69613414  1
  O  O366  1  0.54984906  0.92243964  0.19075749  1
  O  O367  1  0.54093621  0.91723551  0.69432827  1
  O  O368  1  0.87678307  0.42290375  0.19182455  1
  O  O369  1  0.87797569  0.41637265  0.69669333  1
  O  O370  1  0.87431026  0.91625376  0.19130864  1
  O  O371  1  0.87866550  0.91955207  0.69374162  1
  O  O372  1  0.04087442  0.16240933  0.19124482  1
  O  O373  1  0.04404345  0.16254672  0.69578013  1
  O  O374  1  0.04190721  0.66659555  0.19061910  1
  O  O375  1  0.04244161  0.66766757  0.69674033  1
  O  O376  1  0.37963311  0.16502584  0.19817660  1
  O  O377  1  0.37755868  0.16461313  0.69501489  1
  O  O378  1  0.37734100  0.66646982  0.19179138  1
  O  O379  1  0.38560547  0.66564602  0.69021618  1
  O  O380  1  0.70852713  0.16617106  0.19581771  1
  O  O381  1  0.70963142  0.16222386  0.69732400  1
  O  O382  1  0.71369576  0.66483581  0.19487176  1
  O  O383  1  0.70802938  0.66615224  0.69189977  1
  O  O384  1  0.12463110  0.07871911  0.29662650  1
  O  O385  1  0.12206744  0.08202389  0.80980099  1
  O  O386  1  0.12476179  0.58853676  0.30316187  1
  O  O387  1  0.12223093  0.58540396  0.80770952  1
  O  O388  1  0.45743240  0.07982179  0.30309323  1
  O  O389  1  0.45635285  0.08267563  0.80606098  1
  O  O390  1  0.45792346  0.58379486  0.30246903  1
  O  O391  1  0.45812462  0.58303784  0.80391655  1
  O  O392  1  0.78852172  0.07943784  0.30629498  1
  O  O393  1  0.78922834  0.08102272  0.80967033  1
  O  O394  1  0.79175662  0.58773543  0.30671374  1
  O  O395  1  0.78830169  0.58446325  0.80623313  1
  O  O396  1  0.29998977  0.33229676  0.30093597  1
  O  O397  1  0.28888333  0.33009545  0.80792578  1
  O  O398  1  0.29339457  0.83241029  0.30082861  1
  O  O399  1  0.28518216  0.84173181  0.80892763  1
  O  O400  1  0.61898784  0.33354237  0.30000248  1
  O  O401  1  0.62274819  0.33109889  0.80779569  1
  O  O402  1  0.63402245  0.83467593  0.30543527  1
  O  O403  1  0.62115411  0.83732836  0.80676650  1
  O  O404  1  0.95818149  0.33273026  0.31188532  1
  O  O405  1  0.95400136  0.34108799  0.80970373  1
  O  O406  1  0.95714725  0.83510971  0.30250650  1
  O  O407  1  0.95904271  0.83270232  0.80637860  1
  O  O408  1  0.11403826  0.42845459  0.29793065  1
  O  O409  1  0.12450009  0.41846389  0.80760860  1
  O  O410  1  0.12878645  0.91353415  0.30305472  1
  O  O411  1  0.12185299  0.91578807  0.80763874  1
  O  O412  1  0.45528377  0.41854315  0.30373446  1
  O  O413  1  0.46021729  0.41342127  0.81082042  1
  O  O414  1  0.45426686  0.92121965  0.30316181  1
  O  O415  1  0.45611374  0.91730276  0.80719238  1
  O  O416  1  0.78758464  0.42094534  0.30178229  1
  O  O417  1  0.78930039  0.41953061  0.80729079  1
  O  O418  1  0.79255972  0.91476060  0.30483755  1
  O  O419  1  0.78832646  0.91987219  0.80715372  1
  O  O420  1  0.29081329  0.16459261  0.30429107  1
  O  O421  1  0.29220659  0.16673138  0.80600900  1
  O  O422  1  0.29132202  0.66658624  0.30037248  1
  O  O423  1  0.28256319  0.66358730  0.81272100  1
  O  O424  1  0.61990965  0.16284528  0.30456054  1
  O  O425  1  0.62274072  0.16436655  0.80687170  1
  O  O426  1  0.62211406  0.66495848  0.30525344  1
  O  O427  1  0.62675984  0.66879336  0.80837249  1
  O  O428  1  0.95317659  0.16243701  0.30091443  1
  O  O429  1  0.95384741  0.16364551  0.80335622  1
  O  O430  1  0.95964550  0.66961490  0.30173768  1
  O  O431  1  0.95738307  0.66725621  0.80699086  1
  F  F432  1  0.04413964  -0.00385543  0.19802409  1
  F  F433  1  0.04372970  -0.00062746  0.70652511  1
  F  F434  1  0.04503154  0.50903491  0.19431139  1
  F  F435  1  0.04782404  0.50111107  0.70642500  1
  F  F436  1  0.38021413  -0.00121438  0.19676644  1
  F  F437  1  0.37805384  -0.00031560  0.70526715  1
  F  F438  1  0.38180455  0.50205333  0.19971084  1
  F  F439  1  0.37969678  0.49466823  0.70448342  1
  F  F440  1  0.71301719  -0.00053085  0.20247617  1
  F  F441  1  0.71138151  0.00058160  0.70417783  1
  F  F442  1  0.70922542  0.50379962  0.20123905  1
  F  F443  1  0.71349999  0.50045079  0.70470847  1
  F  F444  1  0.21598682  0.23814688  0.19486361  1
  F  F445  1  0.21213162  0.24822940  0.70349254  1
  F  F446  1  0.21338201  0.74874877  0.19849575  1
  F  F447  1  0.20030831  0.75208085  0.70261680  1
  F  F448  1  0.54468868  0.24790503  0.19902002  1
  F  F449  1  0.54682115  0.24751556  0.70629344  1
  F  F450  1  0.54636905  0.73747542  0.19115062  1
  F  F451  1  0.54695909  0.75126618  0.70386348  1
  F  F452  1  0.87399356  0.24686870  0.20203141  1
  F  F453  1  0.87242938  0.24930214  0.70506112  1
  F  F454  1  0.87869964  0.75061263  0.19865052  1
  F  F455  1  0.88029150  0.74810470  0.70183154  1
  F  F456  1  0.28979476  -0.00269104  0.29216210  1
  F  F457  1  0.28925866  -0.00095283  0.80119058  1
  F  F458  1  0.28848794  0.50354696  0.29394342  1
  F  F459  1  0.28763444  0.49447128  0.80646125  1
  F  F460  1  0.62122196  -0.00117539  0.29638181  1
  F  F461  1  0.62000676  -0.00161131  0.79973549  1
  F  F462  1  0.62130158  0.50269176  0.29808462  1
  F  F463  1  0.62407648  0.49744570  0.80049768  1
  F  F464  1  0.95521088  -0.00449539  0.29524302  1
  F  F465  1  0.95381212  -0.00184220  0.80116189  1
  F  F466  1  0.95374996  0.50418611  0.29542627  1
  F  F467  1  0.95653363  0.49985395  0.80154768  1
  F  F468  1  0.11562871  0.23682284  0.29837784  1
  F  F469  1  0.12871423  0.24983498  0.80219384  1
  F  F470  1  0.12365357  0.74890912  0.29483740  1
  F  F471  1  0.11823037  0.75105664  0.80196804  1
  F  F472  1  0.45599541  0.25012237  0.29476679  1
  F  F473  1  0.45601223  0.24588384  0.80150339  1
  F  F474  1  0.45079377  0.74025743  0.29965307  1
  F  F475  1  0.46871255  0.75225803  0.80510609  1
  F  F476  1  0.78234479  0.24335965  0.30208381  1
  F  F477  1  0.78726505  0.24563354  0.80485081  1
  F  F478  1  0.79644630  0.75156523  0.29839341  1
  F  F479  1  0.78684719  0.74320451  0.80136641  1
