# generated using pymatgen
data_K24Na3Li5Mg64Fe17Si79(O5F)48
_symmetry_space_group_name_H-M   'P 1'
_cell_length_a   16.08403714
_cell_length_b   18.58645360
_cell_length_c   20.56103661
_cell_angle_alpha   90.00011783
_cell_angle_beta   100.01138017
_cell_angle_gamma   89.98498036
_symmetry_Int_Tables_number   1
_chemical_formula_structural   K24Na3Li5Mg64Fe17Si79(O5F)48
_chemical_formula_sum   'K24 Na3 Li5 Mg64 Fe17 Si79 O240 F48'
_cell_volume   6053.03005475
_cell_formula_units_Z   1
loop_
 _symmetry_equiv_pos_site_id
 _symmetry_equiv_pos_as_xyz
  1  'x, y, z'
loop_
 _atom_site_type_symbol
 _atom_site_label
 _atom_site_symmetry_multiplicity
 _atom_site_fract_x
 _atom_site_fract_y
 _atom_site_fract_z
 _atom_site_occupancy
  K  K0  1  -0.00380112  -0.00581185  -0.00234923  1
  K  K1  1  -0.01199351  -0.01169479  0.50160683  1
  K  K2  1  -0.00001691  0.50190521  0.00171896  1
  K  K3  1  0.00485863  0.51084754  0.50179089  1
  K  K4  1  0.33604173  -0.00549845  0.00039969  1
  K  K5  1  0.34175681  -0.00702597  0.50529381  1
  K  K6  1  0.33531924  0.50389118  0.00172585  1
  K  K7  1  0.33376339  0.51154229  0.50322871  1
  K  K8  1  0.66234769  -0.00665714  -0.00560287  1
  K  K9  1  0.66269324  -0.01025760  0.51043071  1
  K  K10  1  0.66673200  0.50586819  -0.00041179  1
  K  K11  1  0.66372459  0.50351436  0.50307640  1
  K  K12  1  0.16648863  0.24797382  0.00190095  1
  K  K13  1  0.17052561  0.23945087  0.50174049  1
  K  K14  1  0.15777791  0.75758912  0.00068548  1
  K  K15  1  0.15689892  0.76051086  0.49443431  1
  K  K16  1  0.50177053  0.24332168  -0.00236700  1
  K  K17  1  0.50815647  0.24611957  0.50292726  1
  K  K18  1  0.50680762  0.75189647  -0.00435962  1
  K  K19  1  0.50515228  0.75596755  0.50738481  1
  K  K20  1  0.83080373  0.24893791  -0.00141107  1
  K  K21  1  0.84767857  0.24183542  0.50034029  1
  K  K22  1  0.84404319  0.75667657  -0.00179007  1
  K  K23  1  0.84932121  0.76062041  0.50907042  1
  Na  Na24  1  0.49434875  0.00012512  0.24715937  1
  Na  Na25  1  0.83677318  0.82950848  0.74507688  1
  Na  Na26  1  0.33473906  0.07817589  0.24943968  1
  Li  Li27  1  0.00569399  0.75504353  0.25045897  1
  Li  Li28  1  -0.00574441  0.75074750  0.75266208  1
  Li  Li29  1  0.00094916  0.90951617  0.25169256  1
  Li  Li30  1  0.33489049  0.91573644  0.74990466  1
  Li  Li31  1  0.15829586  0.67739028  0.25253131  1
  Mg  Mg32  1  0.33439328  0.24883866  0.24884253  1
  Mg  Mg33  1  0.66866394  0.75076773  0.24863518  1
  Mg  Mg34  1  0.83500516  -0.00034343  0.75062720  1
  Mg  Mg35  1  0.66499538  0.75049312  0.74813093  1
  Mg  Mg36  1  0.66702281  0.24848167  0.24891341  1
  Mg  Mg37  1  0.83336229  0.50093958  0.75145523  1
  Mg  Mg38  1  0.16983617  -0.00141866  0.75116771  1
  Mg  Mg39  1  0.49958170  -0.00260981  0.74888124  1
  Mg  Mg40  1  0.33429524  0.24690381  0.74828361  1
  Mg  Mg41  1  0.50152038  0.50274606  0.24845355  1
  Mg  Mg42  1  0.83516092  -0.00126005  0.25265708  1
  Mg  Mg43  1  0.00046610  0.24930827  0.24846866  1
  Mg  Mg44  1  0.32772021  0.74921894  0.25008212  1
  Mg  Mg45  1  0.33202850  0.75285448  0.75035766  1
  Mg  Mg46  1  0.49860443  0.50238363  0.75114160  1
  Mg  Mg47  1  0.83630886  0.50202589  0.24897210  1
  Mg  Mg48  1  0.16422598  -0.00210505  0.25286746  1
  Mg  Mg49  1  0.16650508  0.50150878  0.75147509  1
  Mg  Mg50  1  -0.00003741  0.24814577  0.74948995  1
  Mg  Mg51  1  0.66574453  0.24778135  0.74896965  1
  Mg  Mg52  1  0.16749372  0.50464923  0.24365678  1
  Mg  Mg53  1  0.33336838  0.58587989  0.75139696  1
  Mg  Mg54  1  0.33478978  0.41582183  0.75146330  1
  Mg  Mg55  1  0.66467401  0.08388219  0.24862603  1
  Mg  Mg56  1  0.66544232  0.91724227  0.25165358  1
  Mg  Mg57  1  0.16803264  0.33311362  0.74990904  1
  Mg  Mg58  1  0.49979568  0.66625324  0.24832887  1
  Mg  Mg59  1  -0.00008178  0.41656045  0.24692724  1
  Mg  Mg60  1  0.83107198  0.16524798  0.24802721  1
  Mg  Mg61  1  0.83197720  0.33400435  0.24751271  1
  Mg  Mg62  1  0.83535975  0.66725189  0.74830386  1
  Mg  Mg63  1  -0.00036962  0.08054069  0.25141478  1
  Mg  Mg64  1  0.49998727  0.33334043  0.75054392  1
  Mg  Mg65  1  0.16407432  0.66829530  0.75455027  1
  Mg  Mg66  1  0.15827935  0.83213513  0.25323650  1
  Mg  Mg67  1  0.16514901  0.83309094  0.75155106  1
  Mg  Mg68  1  0.66825809  0.58618303  0.24806084  1
  Mg  Mg69  1  0.49938621  0.83577507  0.74988727  1
  Mg  Mg70  1  0.66517881  0.41626353  0.75043821  1
  Mg  Mg71  1  0.66482480  0.58497184  0.75142623  1
  Mg  Mg72  1  0.32979833  0.58651364  0.24623034  1
  Mg  Mg73  1  0.33496398  0.08054929  0.74875035  1
  Mg  Mg74  1  0.83416403  0.16453287  0.74952752  1
  Mg  Mg75  1  0.66468172  0.08319191  0.74865388  1
  Mg  Mg76  1  0.49884286  0.33507362  0.24757086  1
  Mg  Mg77  1  -0.00033542  0.58657271  0.75264523  1
  Mg  Mg78  1  0.49992226  0.16243065  0.74833782  1
  Mg  Mg79  1  0.66595488  0.41685410  0.24870617  1
  Mg  Mg80  1  0.33094751  0.41743414  0.24619327  1
  Mg  Mg81  1  0.16860423  0.16541002  0.25163449  1
  Mg  Mg82  1  0.49980751  0.16535846  0.24905826  1
  Mg  Mg83  1  0.84006876  0.66829653  0.24863419  1
  Mg  Mg84  1  0.49704783  0.83337492  0.25112616  1
  Mg  Mg85  1  0.49910671  0.66511733  0.75187704  1
  Mg  Mg86  1  0.66681027  0.91362843  0.74729740  1
  Mg  Mg87  1  0.00135194  0.41590541  0.75107777  1
  Mg  Mg88  1  -0.00061343  0.91456072  0.74952034  1
  Mg  Mg89  1  0.83435431  0.33411895  0.75095920  1
  Mg  Mg90  1  0.00223793  0.58914834  0.25019457  1
  Mg  Mg91  1  -0.00255284  0.08324114  0.75025532  1
  Mg  Mg92  1  0.16702385  0.33560354  0.24688306  1
  Mg  Mg93  1  0.32907717  0.91566970  0.25038590  1
  Mg  Mg94  1  0.16629049  0.16344823  0.74802592  1
  Mg  Mg95  1  0.83834463  0.83399831  0.25105598  1
  Fe  Fe96  1  0.86049503  0.08690180  0.60759761  1
  Fe  Fe97  1  0.86589600  0.58301258  0.10965959  1
  Fe  Fe98  1  0.52117927  0.91025543  0.60632982  1
  Fe  Fe99  1  0.47212385  0.58349665  0.89195968  1
  Fe  Fe100  1  0.03628599  0.67294375  0.11386674  1
  Fe  Fe101  1  0.63858358  0.16206776  0.88916825  1
  Fe  Fe102  1  0.97444066  0.16912342  0.89089442  1
  Fe  Fe103  1  0.52868968  0.58685703  0.11003342  1
  Fe  Fe104  1  0.51835218  0.58547091  0.60973563  1
  Fe  Fe105  1  0.19210831  0.41756522  0.10617200  1
  Fe  Fe106  1  0.64921966  0.83580876  0.89062619  1
  Fe  Fe107  1  0.35698115  0.16560182  0.60877837  1
  Fe  Fe108  1  0.68738345  0.16475559  0.10872753  1
  Fe  Fe109  1  0.97332528  0.66780955  0.89105555  1
  Fe  Fe110  1  0.97620227  0.83101893  0.39083670  1
  Fe  Fe111  1  0.53021927  0.08485281  0.60544413  1
  Fe  Fe112  1  0.85755908  0.91725742  0.60711886  1
  Si  Si113  1  0.14016080  0.58108068  0.88757535  1
  Si  Si114  1  0.30822553  0.33001697  0.88497670  1
  Si  Si115  1  0.19290553  0.07752747  0.61276173  1
  Si  Si116  1  0.68756396  0.33439092  0.11404600  1
  Si  Si117  1  0.52196291  0.07916890  0.11134554  1
  Si  Si118  1  0.97983174  0.33903624  0.88767699  1
  Si  Si119  1  0.14522479  0.91886805  0.88598498  1
  Si  Si120  1  0.35987814  0.16632149  0.11397514  1
  Si  Si121  1  0.97504626  0.16634041  0.38511237  1
  Si  Si122  1  0.63940538  0.16677629  0.38713442  1
  Si  Si123  1  0.51874125  0.41521758  0.61333636  1
  Si  Si124  1  0.19270789  0.42017532  0.61560465  1
  Si  Si125  1  0.47198315  0.91525264  0.88816120  1
  Si  Si126  1  0.30118236  0.66773342  0.88862211  1
  Si  Si127  1  0.34879851  0.67126847  0.61285960  1
  Si  Si128  1  0.70048408  0.67126053  0.11247357  1
  Si  Si129  1  0.36521971  0.33021588  0.11080156  1
  Si  Si130  1  0.85470858  0.41181107  0.11214974  1
  Si  Si131  1  0.14238319  0.41411469  0.38516109  1
  Si  Si132  1  0.14636571  0.41847521  0.88464854  1
  Si  Si133  1  0.64238570  0.66782364  0.38639124  1
  Si  Si134  1  0.47362272  0.58572205  0.38513109  1
  Si  Si135  1  0.02845160  0.33378657  0.61433108  1
  Si  Si136  1  0.30687538  0.83260422  0.38719610  1
  Si  Si137  1  0.30203213  0.16533475  0.88451939  1
  Si  Si138  1  0.47033508  0.91467471  0.38535278  1
  Si  Si139  1  0.31067139  0.16957935  0.38664166  1
  Si  Si140  1  0.30642478  0.66605517  0.38475683  1
  Si  Si141  1  0.68970568  0.82361395  0.60725776  1
  Si  Si142  1  0.14527807  0.92011783  0.39017428  1
  Si  Si143  1  0.98295136  0.83768061  0.88711979  1
  Si  Si144  1  0.35192110  0.83397327  0.11620077  1
  Si  Si145  1  0.80618180  0.58056126  0.38737766  1
  Si  Si146  1  0.86052925  0.08327506  0.11390608  1
  Si  Si147  1  0.20080256  0.58728756  0.10854455  1
  Si  Si148  1  0.47693011  0.41175813  0.88796217  1
  Si  Si149  1  0.14078920  0.08201925  0.88696936  1
  Si  Si150  1  0.69941343  0.17511851  0.61037205  1
  Si  Si151  1  0.80655311  0.08296521  0.88766252  1
  Si  Si152  1  0.69456613  0.65767488  0.61121102  1
  Si  Si153  1  0.52568360  0.41719714  0.11393089  1
  Si  Si154  1  0.97503648  0.65913646  0.39134507  1
  Si  Si155  1  0.47465189  0.41925023  0.38436057  1
  Si  Si156  1  0.63803384  0.83386907  0.38613509  1
  Si  Si157  1  0.30570566  0.83225759  0.88526396  1
  Si  Si158  1  0.31067801  0.33367279  0.38550845  1
  Si  Si159  1  0.47576395  0.08395535  0.38617049  1
  Si  Si160  1  0.64360138  0.66686982  0.88801702  1
  Si  Si161  1  0.03374366  0.16749541  0.61064713  1
  Si  Si162  1  0.18891351  0.92080229  0.11612380  1
  Si  Si163  1  0.68886382  0.83617994  0.11587944  1
  Si  Si164  1  0.63950427  0.33285377  0.38515938  1
  Si  Si165  1  0.35054434  0.83183556  0.61429997  1
  Si  Si166  1  0.46600466  0.08133697  0.88823386  1
  Si  Si167  1  0.80308921  0.58289430  0.88559558  1
  Si  Si168  1  0.68941973  0.33906849  0.61492540  1
  Si  Si169  1  0.14224572  0.57852405  0.38506372  1
  Si  Si170  1  0.18987470  0.58396346  0.61614180  1
  Si  Si171  1  0.80958867  0.41836685  0.88495526  1
  Si  Si172  1  0.18964058  0.91541952  0.61765514  1
  Si  Si173  1  0.02575491  0.16243253  0.11633158  1
  Si  Si174  1  0.02774543  0.66480620  0.61720412  1
  Si  Si175  1  0.81585245  0.92185411  0.88612382  1
  Si  Si176  1  0.80301429  0.91874368  0.38787471  1
  Si  Si177  1  0.80636132  0.08564552  0.38513059  1
  Si  Si178  1  0.02224977  0.84092280  0.11424580  1
  Si  Si179  1  0.64586939  0.33245799  0.88645554  1
  Si  Si180  1  0.03055113  0.83077037  0.61490838  1
  Si  Si181  1  0.86348986  0.58053727  0.61443717  1
  Si  Si182  1  0.36210919  0.67186679  0.11289452  1
  Si  Si183  1  0.85391338  0.91947649  0.11668218  1
  Si  Si184  1  0.86034459  0.41546121  0.61426053  1
  Si  Si185  1  0.19136277  0.08541369  0.11685901  1
  Si  Si186  1  0.35333024  0.33420107  0.61358401  1
  Si  Si187  1  0.52103747  0.91197569  0.11649482  1
  Si  Si188  1  0.80648304  0.41450292  0.38504417  1
  Si  Si189  1  0.02157559  0.32788764  0.11176676  1
  Si  Si190  1  0.14459849  0.08636100  0.38781686  1
  Si  Si191  1  0.97484858  0.33331917  0.38464752  1
  O  O192  1  0.27068218  0.12300667  0.08834328  1
  O  O193  1  0.27185383  0.09671668  0.57722933  1
  O  O194  1  0.29186472  0.61060571  0.08480180  1
  O  O195  1  0.26942828  0.61492275  0.58509508  1
  O  O196  1  0.59652005  0.10430398  0.07285368  1
  O  O197  1  0.62814347  0.12012500  0.57518516  1
  O  O198  1  0.62703454  0.61493098  0.08018917  1
  O  O199  1  0.61660077  0.60768306  0.57569890  1
  O  O200  1  0.94982224  0.10600542  0.08878545  1
  O  O201  1  0.95542589  0.12283958  0.57209002  1
  O  O202  1  0.96157918  0.60242285  0.07616292  1
  O  O203  1  0.94306981  0.61689170  0.58558802  1
  O  O204  1  0.09825277  0.35556271  0.07702168  1
  O  O205  1  0.10663235  0.37371420  0.58546368  1
  O  O206  1  0.10016118  0.88223364  0.08291917  1
  O  O207  1  0.11590628  0.85790512  0.58625725  1
  O  O208  1  0.45557641  0.35363659  0.08849351  1
  O  O209  1  0.44055222  0.35828399  0.58664119  1
  O  O210  1  0.43488367  0.86489857  0.08678461  1
  O  O211  1  0.42608383  0.85055981  0.57501375  1
  O  O212  1  0.77503588  0.35610389  0.08766390  1
  O  O213  1  0.77048170  0.37457778  0.58505261  1
  O  O214  1  0.76816652  0.87217059  0.08623153  1
  O  O215  1  0.77132182  0.85091170  0.57762244  1
  O  O216  1  0.28855661  0.37989675  0.07491767  1
  O  O217  1  0.27685162  0.39437278  0.58700568  1
  O  O218  1  0.26894148  0.88394706  0.08677096  1
  O  O219  1  0.27346808  0.89007044  0.58795943  1
  O  O220  1  0.61503744  0.39620999  0.08920718  1
  O  O221  1  0.60557994  0.38806904  0.58607342  1
  O  O222  1  0.60228535  0.88205344  0.08493690  1
  O  O223  1  0.60644905  0.86518259  0.56829535  1
  O  O224  1  0.93528528  0.37426760  0.08455267  1
  O  O225  1  0.93823559  0.37504212  0.58483019  1
  O  O226  1  0.93566594  0.88993760  0.08704944  1
  O  O227  1  0.95234585  0.87623328  0.57603093  1
  O  O228  1  0.10827756  0.13490003  0.08558149  1
  O  O229  1  0.11903048  0.13776556  0.58498811  1
  O  O230  1  0.13639193  0.65124023  0.08127412  1
  O  O231  1  0.10454261  0.62808716  0.58358532  1
  O  O232  1  0.43313716  0.12385332  0.08232082  1
  O  O233  1  0.44835456  0.15120900  0.56884098  1
  O  O234  1  0.44653968  0.65736012  0.08227807  1
  O  O235  1  0.42598613  0.64691810  0.57641508  1
  O  O236  1  0.78890763  0.13924222  0.08036175  1
  O  O237  1  0.78625007  0.16461569  0.58184238  1
  O  O238  1  0.78484708  0.65522941  0.08235706  1
  O  O239  1  0.77819082  0.62417803  0.58302086  1
  O  O240  1  0.06518856  0.12683705  0.41595876  1
  O  O241  1  0.06376296  0.10505403  0.92349005  1
  O  O242  1  0.06401012  0.61194970  0.41783167  1
  O  O243  1  0.05866434  0.59752520  0.92013011  1
  O  O244  1  0.39671194  0.12346888  0.41535040  1
  O  O245  1  0.38045926  0.11284175  0.91481271  1
  O  O246  1  0.39642449  0.62364614  0.41601463  1
  O  O247  1  0.37647053  0.61654817  0.92441424  1
  O  O248  1  0.73309687  0.13176912  0.41474863  1
  O  O249  1  0.72135500  0.09365941  0.91933798  1
  O  O250  1  0.72918338  0.62234548  0.41677179  1
  O  O251  1  0.71307563  0.60074233  0.90959982  1
  O  O252  1  0.23033181  0.36981164  0.41441513  1
  O  O253  1  0.22599601  0.36406322  0.91276816  1
  O  O254  1  0.23481153  0.87588003  0.41922560  1
  O  O255  1  0.22703844  0.86820969  0.91644177  1
  O  O256  1  0.56450218  0.37753681  0.41414303  1
  O  O257  1  0.56054218  0.36102175  0.91363264  1
  O  O258  1  0.55837460  0.87073422  0.41435316  1
  O  O259  1  0.55441332  0.87199289  0.92538020  1
  O  O260  1  0.89735481  0.37392208  0.41430015  1
  O  O261  1  0.89523331  0.37155288  0.91387074  1
  O  O262  1  0.88576678  0.87725742  0.42403745  1
  O  O263  1  0.90071758  0.87273693  0.91409105  1
  O  O264  1  0.06405600  0.37461683  0.41533425  1
  O  O265  1  0.06052811  0.39490027  0.91234674  1
  O  O266  1  0.07409557  0.88562955  0.42716145  1
  O  O267  1  0.06466018  0.89175803  0.91831486  1
  O  O268  1  0.39710484  0.38038743  0.41440878  1
  O  O269  1  0.39489698  0.37361927  0.91471962  1
  O  O270  1  0.39648998  0.87362185  0.41810921  1
  O  O271  1  0.38938362  0.87969772  0.91600832  1
  O  O272  1  0.73131302  0.37105773  0.41464967  1
  O  O273  1  0.72663030  0.38760307  0.91287761  1
  O  O274  1  0.72067348  0.88256592  0.41493827  1
  O  O275  1  0.74173797  0.89538934  0.92529938  1
  O  O276  1  0.22990856  0.13456427  0.41610585  1
  O  O277  1  0.22049190  0.13703166  0.91520896  1
  O  O278  1  0.23109540  0.62224902  0.41443797  1
  O  O279  1  0.21468249  0.63976915  0.91417877  1
  O  O280  1  0.56608182  0.12453134  0.41918212  1
  O  O281  1  0.54171235  0.13300434  0.92264157  1
  O  O282  1  0.56333203  0.62734015  0.41410488  1
  O  O283  1  0.56161880  0.64567619  0.92097839  1
  O  O284  1  0.89709460  0.12725831  0.41387816  1
  O  O285  1  0.87520326  0.14350290  0.92041987  1
  O  O286  1  0.89825693  0.61351600  0.42090948  1
  O  O287  1  0.87471727  0.63673078  0.92141494  1
  O  O288  1  0.18160021  0.00378578  0.08579272  1
  O  O289  1  0.15935640  -0.00398883  0.58815964  1
  O  O290  1  0.17304737  0.51038135  0.07165105  1
  O  O291  1  0.17191346  0.50156426  0.58644667  1
  O  O292  1  0.49920365  -0.00571671  0.08993427  1
  O  O293  1  0.50164551  -0.00227514  0.56347957  1
  O  O294  1  0.49221759  0.49294840  0.08168482  1
  O  O295  1  0.49026342  0.49077033  0.57750068  1
  O  O296  1  0.83635804  0.00145939  0.08616742  1
  O  O297  1  0.82706092  0.00336973  0.56263297  1
  O  O298  1  0.83043355  0.48830805  0.07822088  1
  O  O299  1  0.85463702  0.49731195  0.58303741  1
  O  O300  1  -0.00020148  0.24340759  0.08780668  1
  O  O301  1  0.02300658  0.25294545  0.58310842  1
  O  O302  1  0.00565519  0.76482723  0.07678305  1
  O  O303  1  0.01660717  0.74608482  0.58787147  1
  O  O304  1  0.34820075  0.24734410  0.08116095  1
  O  O305  1  0.31702770  0.25993582  0.58050346  1
  O  O306  1  0.32836712  0.75318508  0.08665425  1
  O  O307  1  0.31247902  0.75118338  0.58775252  1
  O  O308  1  0.65362532  0.25897404  0.08126049  1
  O  O309  1  0.66860858  0.25909858  0.58483628  1
  O  O310  1  0.66949587  0.75444291  0.08830333  1
  O  O311  1  0.67746557  0.73832568  0.58096893  1
  O  O312  1  0.16007089  0.00532619  0.41782481  1
  O  O313  1  0.17181940  0.00055984  0.91359563  1
  O  O314  1  0.15490360  0.49541037  0.41724409  1
  O  O315  1  0.17577702  0.49883378  0.91127422  1
  O  O316  1  0.47985525  -0.00094732  0.41118037  1
  O  O317  1  0.47678873  -0.00115460  0.91817040  1
  O  O318  1  0.48417318  0.50197956  0.41385706  1
  O  O319  1  0.49429101  0.48836466  0.92384647  1
  O  O320  1  0.80876026  0.00393538  0.41362196  1
  O  O321  1  0.84667624  0.00367340  0.91259116  1
  O  O322  1  0.80772684  0.49623532  0.41583770  1
  O  O323  1  0.82768478  0.49977719  0.91303277  1
  O  O324  1  0.32417402  0.25244104  0.41745883  1
  O  O325  1  0.32091060  0.24777024  0.91416887  1
  O  O326  1  0.31260452  0.74843347  0.41569341  1
  O  O327  1  0.31846151  0.75069615  0.91683409  1
  O  O328  1  0.64186619  0.25092204  0.41542429  1
  O  O329  1  0.67166945  0.25591599  0.92066281  1
  O  O330  1  0.64991280  0.75053344  0.41573847  1
  O  O331  1  0.68098945  0.74205523  0.92093447  1
  O  O332  1  0.98117658  0.25031153  0.41435636  1
  O  O333  1  1.00567413  0.26340769  0.92357245  1
  O  O334  1  0.98581706  0.73571688  0.42852709  1
  O  O335  1  1.00340973  0.76063724  0.92367308  1
  O  O336  1  0.20035555  0.08405863  0.19586276  1
  O  O337  1  0.20999177  0.08230882  0.69376673  1
  O  O338  1  0.21655022  0.57803215  0.18899005  1
  O  O339  1  0.20904408  0.58263884  0.69640046  1
  O  O340  1  0.54628542  0.09105800  0.19050299  1
  O  O341  1  0.54289105  0.08182225  0.69791217  1
  O  O342  1  0.54733367  0.58425836  0.20244614  1
  O  O343  1  0.54386772  0.58259150  0.70077093  1
  O  O344  1  0.87701018  0.08440375  0.19511470  1
  O  O345  1  0.87841694  0.08467955  0.69971455  1
  O  O346  1  0.88013318  0.58173961  0.20249903  1
  O  O347  1  0.87842629  0.57618023  0.69404797  1
  O  O348  1  0.04185525  0.33153229  0.19327847  1
  O  O349  1  0.04488988  0.33478194  0.69461951  1
  O  O350  1  0.04575291  0.83863002  0.19323721  1
  O  O351  1  0.04718527  0.83537006  0.69445721  1
  O  O352  1  0.37703188  0.33308597  0.19227298  1
  O  O353  1  0.37338850  0.33483789  0.69478424  1
  O  O354  1  0.37330703  0.83141961  0.19633626  1
  O  O355  1  0.37570961  0.83010632  0.69420240  1
  O  O356  1  0.70820169  0.33382529  0.19576306  1
  O  O357  1  0.71058278  0.33764704  0.69520465  1
  O  O358  1  0.70831558  0.83610359  0.19646947  1
  O  O359  1  0.69838059  0.82884311  0.68702662  1
  O  O360  1  0.21099439  0.41619242  0.19875132  1
  O  O361  1  0.20909193  0.41700715  0.69587233  1
  O  O362  1  0.20582473  0.91741028  0.19604443  1
  O  O363  1  0.20626469  0.91599917  0.69721410  1
  O  O364  1  0.54350437  0.41728630  0.19565599  1
  O  O365  1  0.53991581  0.41619302  0.69442122  1
  O  O366  1  0.54554657  0.90695735  0.19555066  1
  O  O367  1  0.54216948  0.91608543  0.69800049  1
  O  O368  1  0.87573633  0.41398274  0.19386495  1
  O  O369  1  0.87852575  0.41568020  0.69445219  1
  O  O370  1  0.86873428  0.91944450  0.19615780  1
  O  O371  1  0.88415422  0.92660240  0.69679773  1
  O  O372  1  0.04388995  0.16575490  0.19702605  1
  O  O373  1  0.04663108  0.16871930  0.69141316  1
  O  O374  1  0.04477147  0.66889731  0.20310633  1
  O  O375  1  0.04947281  0.65831265  0.69584404  1
  O  O376  1  0.38152891  0.17346706  0.19309679  1
  O  O377  1  0.37740076  0.16601259  0.70126097  1
  O  O378  1  0.37762841  0.66923143  0.19433513  1
  O  O379  1  0.37040952  0.66694707  0.69352726  1
  O  O380  1  0.71089353  0.16728713  0.20097964  1
  O  O381  1  0.71293192  0.17199959  0.69174007  1
  O  O382  1  0.71258368  0.66808062  0.19452081  1
  O  O383  1  0.70989897  0.65870984  0.69176444  1
  O  O384  1  0.12388781  0.08677216  0.30773770  1
  O  O385  1  0.12328800  0.08520710  0.80606453  1
  O  O386  1  0.12314418  0.57527123  0.30610558  1
  O  O387  1  0.12348475  0.58067208  0.80629492  1
  O  O388  1  0.46303014  0.09243129  0.30833446  1
  O  O389  1  0.45375651  0.08186697  0.80800000  1
  O  O390  1  0.45542351  0.58449654  0.30520184  1
  O  O391  1  0.45102749  0.58244574  0.80023575  1
  O  O392  1  0.79004820  0.08591178  0.30509489  1
  O  O393  1  0.78838923  0.08644611  0.80613744  1
  O  O394  1  0.78773217  0.58129002  0.30748125  1
  O  O395  1  0.78917263  0.58068539  0.80436559  1
  O  O396  1  0.29297057  0.33391542  0.30526898  1
  O  O397  1  0.28994090  0.33224505  0.80438760  1
  O  O398  1  0.28943634  0.83228924  0.30725114  1
  O  O399  1  0.28704413  0.83031175  0.80584610  1
  O  O400  1  0.62291125  0.33420852  0.30501293  1
  O  O401  1  0.62532706  0.33388815  0.80519794  1
  O  O402  1  0.62171822  0.83202383  0.30589582  1
  O  O403  1  0.62267284  0.83207321  0.79959163  1
  O  O404  1  0.95686240  0.33292707  0.30451485  1
  O  O405  1  0.96004601  0.33577743  0.80637068  1
  O  O406  1  0.95407285  0.83328799  0.30272249  1
  O  O407  1  0.97018077  0.83568064  0.80829373  1
  O  O408  1  0.12199884  0.41307042  0.30534560  1
  O  O409  1  0.12613881  0.41554120  0.80390645  1
  O  O410  1  0.12732540  0.91886705  0.31040240  1
  O  O411  1  0.12646099  0.91783886  0.80604796  1
  O  O412  1  0.45697714  0.41743672  0.30415816  1
  O  O413  1  0.45633908  0.41467065  0.80662932  1
  O  O414  1  0.44957486  0.90876528  0.30632121  1
  O  O415  1  0.45866814  0.91546973  0.80840717  1
  O  O416  1  0.78982563  0.41476215  0.30495094  1
  O  O417  1  0.79163423  0.41611015  0.80416394  1
  O  O418  1  0.78762697  0.91698055  0.30711308  1
  O  O419  1  0.78718318  0.92234905  0.80663701  1
  O  O420  1  0.28760737  0.17459217  0.30740217  1
  O  O421  1  0.28549604  0.16780217  0.80445229  1
  O  O422  1  0.29385792  0.66551274  0.30548778  1
  O  O423  1  0.28813667  0.66597272  0.80745256  1
  O  O424  1  0.62230377  0.16850853  0.30697829  1
  O  O425  1  0.62096854  0.16803647  0.79776222  1
  O  O426  1  0.62584072  0.66792342  0.30634158  1
  O  O427  1  0.62249270  0.66674890  0.80643146  1
  O  O428  1  0.95757779  0.16835499  0.30496680  1
  O  O429  1  0.95757589  0.16995075  0.79933471  1
  O  O430  1  0.95287957  0.65847842  0.31222073  1
  O  O431  1  0.95295523  0.66251901  0.80080566  1
  F  F432  1  0.04607688  0.00383525  0.20478410  1
  F  F433  1  0.04899301  0.00235609  0.70440684  1
  F  F434  1  0.04484324  0.49767379  0.20225509  1
  F  F435  1  0.04596673  0.49756147  0.70185645  1
  F  F436  1  0.36485228  -0.01377611  0.19028894  1
  F  F437  1  0.37904979  0.00067041  0.70226161  1
  F  F438  1  0.38094567  0.50021491  0.20293011  1
  F  F439  1  0.37448495  0.49777093  0.70136953  1
  F  F440  1  0.71243998  0.00042146  0.20241188  1
  F  F441  1  0.71224518  0.00082859  0.70186727  1
  F  F442  1  0.71322303  0.49926528  0.20442876  1
  F  F443  1  0.71231773  0.49762802  0.70229847  1
  F  F444  1  0.21184655  0.24993727  0.20179877  1
  F  F445  1  0.21080935  0.25111100  0.70122312  1
  F  F446  1  0.21174524  0.75636476  0.20343359  1
  F  F447  1  0.21066866  0.74743913  0.70288776  1
  F  F448  1  0.54589658  0.25185706  0.20376151  1
  F  F449  1  0.54389309  0.25464633  0.70071043  1
  F  F450  1  0.54575758  0.75001780  0.20400203  1
  F  F451  1  0.54113770  0.74588976  0.70136645  1
  F  F452  1  0.87905148  0.25005905  0.20305169  1
  F  F453  1  0.88088187  0.25712511  0.70017188  1
  F  F454  1  0.87045898  0.75154944  0.20027851  1
  F  F455  1  0.87992304  0.73469022  0.68999597  1
  F  F456  1  0.28262087  -0.00836337  0.30354804  1
  F  F457  1  0.28559673  0.00643206  0.80114121  1
  F  F458  1  0.29035314  0.50103658  0.29828976  1
  F  F459  1  0.28734194  0.49834400  0.79819107  1
  F  F460  1  0.63083848  0.00157754  0.30046979  1
  F  F461  1  0.62187757  -0.00045783  0.79825340  1
  F  F462  1  0.62337277  0.49751615  0.30113813  1
  F  F463  1  0.62129976  0.49652762  0.79868474  1
  F  F464  1  0.95006184  0.01004240  0.30486669  1
  F  F465  1  0.96022798  0.00150935  0.80198960  1
  F  F466  1  0.95477512  0.49196492  0.30141884  1
  F  F467  1  0.95557045  0.49688643  0.79767219  1
  F  F468  1  0.12117830  0.25198694  0.29783431  1
  F  F469  1  0.12237880  0.25076880  0.79637405  1
  F  F470  1  0.12718101  0.75526598  0.30885843  1
  F  F471  1  0.12743924  0.74984012  0.80131954  1
  F  F472  1  0.45552371  0.25429406  0.29849044  1
  F  F473  1  0.45420441  0.25275181  0.79888989  1
  F  F474  1  0.45384764  0.74793376  0.29868466  1
  F  F475  1  0.45220129  0.74898608  0.79779139  1
  F  F476  1  0.79027132  0.25292410  0.30010533  1
  F  F477  1  0.78901782  0.25263486  0.79600626  1
  F  F478  1  0.78651591  0.74940523  0.29929486  1
  F  F479  1  0.78149894  0.73989722  0.79592688  1
