# generated using pymatgen
data_K24Na3Li5Mg64Fe17Si79(O5F)48
_symmetry_space_group_name_H-M   'P 1'
_cell_length_a   16.08513770
_cell_length_b   18.58136134
_cell_length_c   20.54442118
_cell_angle_alpha   89.99496157
_cell_angle_beta   100.00191194
_cell_angle_gamma   90.00100578
_symmetry_Int_Tables_number   1
_chemical_formula_structural   K24Na3Li5Mg64Fe17Si79(O5F)48
_chemical_formula_sum   'K24 Na3 Li5 Mg64 Fe17 Si79 O240 F48'
_cell_volume   6047.07177887
_cell_formula_units_Z   1
loop_
 _symmetry_equiv_pos_site_id
 _symmetry_equiv_pos_as_xyz
  1  'x, y, z'
loop_
 _atom_site_type_symbol
 _atom_site_label
 _atom_site_symmetry_multiplicity
 _atom_site_fract_x
 _atom_site_fract_y
 _atom_site_fract_z
 _atom_site_occupancy
  K  K0  1  0.00613239  -0.00172548  0.00830345  1
  K  K1  1  0.00343736  0.00032965  0.49232092  1
  K  K2  1  0.00337444  0.49486866  0.00216987  1
  K  K3  1  0.00340877  0.50290279  0.49878791  1
  K  K4  1  0.34187642  0.00212595  0.00728224  1
  K  K5  1  0.33872596  0.00685965  0.49855681  1
  K  K6  1  0.33819166  0.50759166  0.00075030  1
  K  K7  1  0.32775209  0.50305581  0.50462543  1
  K  K8  1  0.66186820  0.00290596  -0.00493117  1
  K  K9  1  0.65898037  0.00028412  0.49600281  1
  K  K10  1  0.67365117  0.50549282  -0.00076763  1
  K  K11  1  0.66698620  0.50558599  0.50531211  1
  K  K12  1  0.17081450  0.23977706  0.00697001  1
  K  K13  1  0.17420294  0.23889097  0.50133998  1
  K  K14  1  0.17394857  0.74682977  0.00591142  1
  K  K15  1  0.15574651  0.75347891  0.49129733  1
  K  K16  1  0.50847393  0.24993671  -0.00280845  1
  K  K17  1  0.49429029  0.23696623  0.50124953  1
  K  K18  1  0.50149225  0.75235179  0.00697039  1
  K  K19  1  0.49885193  0.75777352  0.49889605  1
  K  K20  1  0.82740700  0.24838509  -0.00214366  1
  K  K21  1  0.83645391  0.23897825  0.49713512  1
  K  K22  1  0.82526772  0.75911337  0.00186321  1
  K  K23  1  0.83482262  0.75567066  0.49122899  1
  Na  Na24  1  0.49357981  0.00553084  0.24557611  1
  Na  Na25  1  0.83223057  0.83227170  0.75809798  1
  Na  Na26  1  0.33083574  0.41928255  0.74214594  1
  Li  Li27  1  0.83505860  0.49861438  0.75543682  1
  Li  Li28  1  0.66668091  0.75274349  0.24420585  1
  Li  Li29  1  0.33543695  0.08170136  0.24193933  1
  Li  Li30  1  0.49188098  0.16069194  0.24667603  1
  Li  Li31  1  0.66542642  0.08245200  0.75751540  1
  Mg  Mg32  1  0.00134836  0.24814956  0.25059266  1
  Mg  Mg33  1  0.66407242  0.24763933  0.25091469  1
  Mg  Mg34  1  0.66831727  0.75189881  0.75615944  1
  Mg  Mg35  1  0.83227314  0.50197482  0.25033376  1
  Mg  Mg36  1  0.83418502  -0.00085663  0.25513885  1
  Mg  Mg37  1  0.33327577  0.75107592  0.74824434  1
  Mg  Mg38  1  0.16618937  0.49928667  0.24827278  1
  Mg  Mg39  1  0.82841989  0.00115500  0.75546355  1
  Mg  Mg40  1  0.16564276  -0.00022558  0.74492224  1
  Mg  Mg41  1  0.33721849  0.24403163  0.24709197  1
  Mg  Mg42  1  0.17044363  -0.00110141  0.25067393  1
  Mg  Mg43  1  0.49991268  0.50088548  0.24674851  1
  Mg  Mg44  1  0.33554707  0.74993382  0.24754786  1
  Mg  Mg45  1  0.49986796  0.00095426  0.75244484  1
  Mg  Mg46  1  0.33428573  0.24987708  0.74492877  1
  Mg  Mg47  1  -0.00249670  0.74912955  0.74958159  1
  Mg  Mg48  1  0.50060000  0.50071849  0.74894562  1
  Mg  Mg49  1  -0.00050646  0.75095638  0.25267585  1
  Mg  Mg50  1  -0.00090358  0.24995803  0.74893902  1
  Mg  Mg51  1  0.16707472  0.50058198  0.74514964  1
  Mg  Mg52  1  0.66658690  0.24909700  0.75362571  1
  Mg  Mg53  1  -0.00185520  0.08341031  0.74806385  1
  Mg  Mg54  1  0.50126411  0.83453431  0.24583648  1
  Mg  Mg55  1  0.67156059  0.41832341  0.75319957  1
  Mg  Mg56  1  0.16622360  0.66438921  0.24830979  1
  Mg  Mg57  1  0.00111429  0.41434029  0.25218774  1
  Mg  Mg58  1  -0.00228516  0.41706211  0.75023039  1
  Mg  Mg59  1  0.66343684  0.08433770  0.25435832  1
  Mg  Mg60  1  0.83558545  0.16574729  0.25527965  1
  Mg  Mg61  1  0.66443739  0.58759023  0.24729622  1
  Mg  Mg62  1  0.50017496  0.33443164  0.74964316  1
  Mg  Mg63  1  0.83220804  0.83331691  0.25235674  1
  Mg  Mg64  1  0.50321304  0.83598534  0.75395019  1
  Mg  Mg65  1  0.33135823  0.58382825  0.74490357  1
  Mg  Mg66  1  0.83132555  0.16608627  0.75444180  1
  Mg  Mg67  1  0.66786623  0.91848276  0.75570457  1
  Mg  Mg68  1  0.83503951  0.66369115  0.75282999  1
  Mg  Mg69  1  0.50056984  0.66795773  0.24437469  1
  Mg  Mg70  1  0.17005161  0.16304393  0.24958281  1
  Mg  Mg71  1  0.33338668  0.58468021  0.24710612  1
  Mg  Mg72  1  0.16535579  0.66439345  0.74459609  1
  Mg  Mg73  1  0.83473163  0.33423684  0.25359705  1
  Mg  Mg74  1  0.16632418  0.16441679  0.74423208  1
  Mg  Mg75  1  0.50231845  0.66634524  0.75155107  1
  Mg  Mg76  1  0.66527705  0.91686184  0.25237073  1
  Mg  Mg77  1  0.00304404  0.08421649  0.25402604  1
  Mg  Mg78  1  0.00085054  0.58416147  0.25209567  1
  Mg  Mg79  1  -0.00264790  0.58210483  0.74893970  1
  Mg  Mg80  1  0.50151389  0.16423338  0.74991364  1
  Mg  Mg81  1  0.00268261  0.91337592  0.25108374  1
  Mg  Mg82  1  0.16607912  0.33374782  0.74512060  1
  Mg  Mg83  1  0.33296317  0.41418628  0.24686879  1
  Mg  Mg84  1  0.33237455  0.91863216  0.24493077  1
  Mg  Mg85  1  -0.00457417  0.91574163  0.75112714  1
  Mg  Mg86  1  0.16593404  0.33162529  0.24864452  1
  Mg  Mg87  1  0.83007761  0.66924486  0.25344709  1
  Mg  Mg88  1  0.83356096  0.33652851  0.75239088  1
  Mg  Mg89  1  0.66606603  0.41586900  0.25125069  1
  Mg  Mg90  1  0.49985680  0.33086592  0.24908927  1
  Mg  Mg91  1  0.16391444  0.83345145  0.74845144  1
  Mg  Mg92  1  0.67370231  0.58268168  0.75374284  1
  Mg  Mg93  1  0.33373675  0.91603728  0.74924768  1
  Mg  Mg94  1  0.33236454  0.08464954  0.74761956  1
  Mg  Mg95  1  0.16574306  0.83392454  0.24873041  1
  Fe  Fe96  1  0.02323923  0.82764083  0.10804364  1
  Fe  Fe97  1  0.81580897  0.41817943  0.89141889  1
  Fe  Fe98  1  0.19421048  0.08250507  0.10984286  1
  Fe  Fe99  1  0.18731788  0.07906147  0.60463246  1
  Fe  Fe100  1  0.15134962  0.91652429  0.39171062  1
  Fe  Fe101  1  0.64065546  0.83154026  0.89700850  1
  Fe  Fe102  1  0.97659965  0.16658801  0.39412103  1
  Fe  Fe103  1  0.02094363  0.33228520  0.11064759  1
  Fe  Fe104  1  0.35997113  0.66805805  0.10712521  1
  Fe  Fe105  1  0.46671989  0.91731750  0.89175622  1
  Fe  Fe106  1  0.14589009  0.58328168  0.38915801  1
  Fe  Fe107  1  0.18787109  0.58498977  0.60412615  1
  Fe  Fe108  1  0.81401046  0.92074138  0.89806169  1
  Fe  Fe109  1  0.36348806  0.16658748  0.60634135  1
  Fe  Fe110  1  0.97274691  0.83491165  0.39395139  1
  Fe  Fe111  1  0.64429115  0.16934168  0.89024509  1
  Fe  Fe112  1  0.69429621  0.67111147  0.11177737  1
  Si  Si113  1  0.01662907  0.83201468  0.61520214  1
  Si  Si114  1  0.36557375  0.66799240  0.61138002  1
  Si  Si115  1  0.53269792  0.08053791  0.61337746  1
  Si  Si116  1  0.63986870  0.33209560  0.38719943  1
  Si  Si117  1  0.14300119  0.41712409  0.88259200  1
  Si  Si118  1  0.98264970  0.32979305  0.88716152  1
  Si  Si119  1  0.30132365  0.16760594  0.88347449  1
  Si  Si120  1  0.63350492  0.66699785  0.38419039  1
  Si  Si121  1  0.31500860  0.82910457  0.38421639  1
  Si  Si122  1  0.85687942  0.41620438  0.61480275  1
  Si  Si123  1  0.81764149  0.58566747  0.88821941  1
  Si  Si124  1  0.47027395  0.08807811  0.88997734  1
  Si  Si125  1  0.97995373  0.83022998  0.88783609  1
  Si  Si126  1  0.19398852  0.91208967  0.10871201  1
  Si  Si127  1  0.69640040  0.16764871  0.11768938  1
  Si  Si128  1  0.01884349  0.33260686  0.61258440  1
  Si  Si129  1  0.30420509  0.33085723  0.88127904  1
  Si  Si130  1  0.79846528  0.91676226  0.39046406  1
  Si  Si131  1  0.69640475  0.66809257  0.61618965  1
  Si  Si132  1  0.53138948  0.09093590  0.11527267  1
  Si  Si133  1  0.85462756  0.42066299  0.11640094  1
  Si  Si134  1  0.01920518  0.16391972  0.11218893  1
  Si  Si135  1  0.85627939  0.08370819  0.61575569  1
  Si  Si136  1  0.69125980  0.83252746  0.61615855  1
  Si  Si137  1  0.52924560  0.57785588  0.10838530  1
  Si  Si138  1  0.47033766  0.41618008  0.88277567  1
  Si  Si139  1  0.31144683  0.33148366  0.38290532  1
  Si  Si140  1  0.47476430  0.41688240  0.38401446  1
  Si  Si141  1  0.64078096  0.34160686  0.89035517  1
  Si  Si142  1  0.85569035  0.92067629  0.61660272  1
  Si  Si143  1  0.80038422  0.08325168  0.39141815  1
  Si  Si144  1  0.52721224  0.42009273  0.61454822  1
  Si  Si145  1  0.63569260  0.16733462  0.38698911  1
  Si  Si146  1  0.47288655  0.58173073  0.88398955  1
  Si  Si147  1  0.98130591  0.16768178  0.88474786  1
  Si  Si148  1  0.69040667  0.33303606  0.61483041  1
  Si  Si149  1  0.18597012  0.90681245  0.61104566  1
  Si  Si150  1  0.82045022  0.08780951  0.89334329  1
  Si  Si151  1  0.69614509  0.16898507  0.61712272  1
  Si  Si152  1  0.96941099  0.66045665  0.39081142  1
  Si  Si153  1  0.47012102  0.08479367  0.38173065  1
  Si  Si154  1  0.69430646  0.33258656  0.11785583  1
  Si  Si155  1  0.85918634  0.58359289  0.11705952  1
  Si  Si156  1  0.85693640  0.08148453  0.11918028  1
  Si  Si157  1  0.31371308  0.66766995  0.38535690  1
  Si  Si158  1  0.29760988  0.83209288  0.88542692  1
  Si  Si159  1  0.69056890  0.84058338  0.11542393  1
  Si  Si160  1  0.52782050  0.91577238  0.61436712  1
  Si  Si161  1  0.53088189  0.92442648  0.11537574  1
  Si  Si162  1  0.19084714  0.57965443  0.11020260  1
  Si  Si163  1  0.15182415  0.08602048  0.38983435  1
  Si  Si164  1  0.36477130  0.83941908  0.11000434  1
  Si  Si165  1  0.14156581  0.58177113  0.88256708  1
  Si  Si166  1  0.36170308  0.33327141  0.11228256  1
  Si  Si167  1  0.18361956  0.41246151  0.60825133  1
  Si  Si168  1  0.01699402  0.66854108  0.61143120  1
  Si  Si169  1  0.85764545  0.58134324  0.61627972  1
  Si  Si170  1  0.85669367  0.91944386  0.11603100  1
  Si  Si171  1  0.14842245  0.41349736  0.38726165  1
  Si  Si172  1  0.97527264  0.33964901  0.39099467  1
  Si  Si173  1  0.31254545  0.16973259  0.38289580  1
  Si  Si174  1  0.98106348  0.66821195  0.88618225  1
  Si  Si175  1  0.47069348  0.91795756  0.38216725  1
  Si  Si176  1  0.13609012  0.91614703  0.88274943  1
  Si  Si177  1  0.01909228  0.16814804  0.61189240  1
  Si  Si178  1  0.36011580  0.83371468  0.61336422  1
  Si  Si179  1  0.02165099  0.65823744  0.11322801  1
  Si  Si180  1  0.64558177  0.65884840  0.88882664  1
  Si  Si181  1  0.36352748  0.16924164  0.10885673  1
  Si  Si182  1  0.13989747  0.08024491  0.88236279  1
  Si  Si183  1  0.63274282  0.83303073  0.38388131  1
  Si  Si184  1  0.53265139  0.58584304  0.61604735  1
  Si  Si185  1  0.79837307  0.58307342  0.38707501  1
  Si  Si186  1  0.19482786  0.41325543  0.11120500  1
  Si  Si187  1  0.80460475  0.41834495  0.38813423  1
  Si  Si188  1  0.52749751  0.41296276  0.11506876  1
  Si  Si189  1  0.30715474  0.66659408  0.88203956  1
  Si  Si190  1  0.36003230  0.33623726  0.60879806  1
  Si  Si191  1  0.47412934  0.58069045  0.38435662  1
  O  O192  1  0.28489080  0.12194728  0.07171067  1
  O  O193  1  0.27212429  0.11432002  0.56443897  1
  O  O194  1  0.26345322  0.61205052  0.07302692  1
  O  O195  1  0.28407332  0.62387564  0.57573722  1
  O  O196  1  0.61369957  0.12092030  0.08360764  1
  O  O197  1  0.61646082  0.11683138  0.58817382  1
  O  O198  1  0.61249610  0.60053281  0.07939512  1
  O  O199  1  0.60949481  0.62409214  0.58481614  1
  O  O200  1  0.94069621  0.10513032  0.08971203  1
  O  O201  1  0.93550587  0.11754800  0.58544812  1
  O  O202  1  0.95008678  0.59450438  0.09162919  1
  O  O203  1  0.93460719  0.61637803  0.58349960  1
  O  O204  1  0.11971119  0.36065480  0.07748971  1
  O  O205  1  0.10116949  0.35853576  0.58101351  1
  O  O206  1  0.12319118  0.85271502  0.07712501  1
  O  O207  1  0.10328050  0.85304430  0.58764558  1
  O  O208  1  0.44499680  0.36425456  0.08442807  1
  O  O209  1  0.43468587  0.38686877  0.58282939  1
  O  O210  1  0.44659264  0.87744941  0.08385839  1
  O  O211  1  0.43489481  0.87877280  0.58456299  1
  O  O212  1  0.77280755  0.36796199  0.08833362  1
  O  O213  1  0.76887177  0.37176237  0.58477034  1
  O  O214  1  0.77562448  0.86772263  0.08773382  1
  O  O215  1  0.76919516  0.87381184  0.58781066  1
  O  O216  1  0.28255763  0.38761420  0.08448743  1
  O  O217  1  0.26915643  0.37934379  0.58457818  1
  O  O218  1  0.28326899  0.89054292  0.08253934  1
  O  O219  1  0.26750936  0.86886647  0.58425440  1
  O  O220  1  0.60849027  0.37795615  0.08744161  1
  O  O221  1  0.60312192  0.37795988  0.58421113  1
  O  O222  1  0.61434845  0.89848633  0.08566248  1
  O  O223  1  0.60022606  0.87022814  0.58229636  1
  O  O224  1  0.93312978  0.39891284  0.08147000  1
  O  O225  1  0.93621669  0.38327719  0.58221269  1
  O  O226  1  0.93527220  0.89526789  0.08147721  1
  O  O227  1  0.93607972  0.88519142  0.58665196  1
  O  O228  1  0.09739508  0.13969207  0.07681746  1
  O  O229  1  0.09477923  0.14240852  0.57641345  1
  O  O230  1  0.10442318  0.62616193  0.08444580  1
  O  O231  1  0.09372503  0.64491202  0.57498219  1
  O  O232  1  0.45047535  0.14119833  0.08198648  1
  O  O233  1  0.45366527  0.12350239  0.57192956  1
  O  O234  1  0.44770355  0.62314634  0.07274716  1
  O  O235  1  0.44800848  0.63128714  0.58490254  1
  O  O236  1  0.77933760  0.13743569  0.08992450  1
  O  O237  1  0.77537640  0.13507046  0.58528546  1
  O  O238  1  0.79365216  0.64239808  0.08080373  1
  O  O239  1  0.77128261  0.62666479  0.58524806  1
  O  O240  1  0.07417820  0.11382631  0.42511355  1
  O  O241  1  0.05775939  0.11005221  0.91202514  1
  O  O242  1  0.04651259  0.60655736  0.42028455  1
  O  O243  1  0.06202698  0.61431004  0.91430891  1
  O  O244  1  0.39340764  0.11939630  0.41666380  1
  O  O245  1  0.38264035  0.11932863  0.91446942  1
  O  O246  1  0.39307954  0.61162513  0.41373210  1
  O  O247  1  0.39518645  0.62337306  0.91188694  1
  O  O248  1  0.72222867  0.12468985  0.42025841  1
  O  O249  1  0.74081539  0.11495008  0.92628289  1
  O  O250  1  0.72132370  0.62393993  0.41628864  1
  O  O251  1  0.72969132  0.60837106  0.91493724  1
  O  O252  1  0.22755575  0.35660614  0.41275575  1
  O  O253  1  0.22834726  0.37117001  0.91239441  1
  O  O254  1  0.23725883  0.84730453  0.42102881  1
  O  O255  1  0.20857609  0.85626131  0.90944624  1
  O  O256  1  0.56170697  0.37243515  0.41523064  1
  O  O257  1  0.55371364  0.37129971  0.91705631  1
  O  O258  1  0.55634369  0.87177740  0.41568758  1
  O  O259  1  0.54454415  0.85179446  0.93108182  1
  O  O260  1  0.89785696  0.38554522  0.41806342  1
  O  O261  1  0.90518135  0.35195919  0.92302155  1
  O  O262  1  0.88170509  0.87733887  0.42885066  1
  O  O263  1  0.89900901  0.84818972  0.92046578  1
  O  O264  1  0.06343550  0.38544959  0.41546733  1
  O  O265  1  0.06452870  0.38310832  0.91347230  1
  O  O266  1  0.06427426  0.88773256  0.43437943  1
  O  O267  1  0.05474224  0.89045174  0.91476072  1
  O  O268  1  0.39324720  0.38396646  0.41249618  1
  O  O269  1  0.39017840  0.37716409  0.90925549  1
  O  O270  1  0.39412492  0.88338743  0.41576738  1
  O  O271  1  0.36766401  0.88599574  0.92223537  1
  O  O272  1  0.72993944  0.37297003  0.41716363  1
  O  O273  1  0.71386375  0.39860228  0.92121080  1
  O  O274  1  0.71865750  0.87589742  0.41726005  1
  O  O275  1  0.72396015  0.89352985  0.93740172  1
  O  O276  1  0.22937909  0.14544326  0.41287458  1
  O  O277  1  0.21942147  0.13326798  0.91142970  1
  O  O278  1  0.23547985  0.64729718  0.42142998  1
  O  O279  1  0.22880388  0.62692570  0.91081098  1
  O  O280  1  0.55765048  0.12929648  0.41649037  1
  O  O281  1  0.54480666  0.14318357  0.92130617  1
  O  O282  1  0.55801294  0.62770071  0.41731226  1
  O  O283  1  0.56404436  0.61789446  0.91440015  1
  O  O284  1  0.88639128  0.12136812  0.42771000  1
  O  O285  1  0.89845810  0.14864565  0.91667257  1
  O  O286  1  0.88517047  0.62441253  0.41768114  1
  O  O287  1  0.89557032  0.64454388  0.91427108  1
  O  O288  1  0.16713940  -0.01003823  0.07538164  1
  O  O289  1  0.16243447  -0.01701218  0.57609202  1
  O  O290  1  0.17361628  0.49576881  0.08335039  1
  O  O291  1  0.16419273  0.48990201  0.57246995  1
  O  O292  1  0.51212240  0.00776636  0.08836077  1
  O  O293  1  0.52937933  -0.00323753  0.58303917  1
  O  O294  1  0.50852802  0.49274461  0.08395016  1
  O  O295  1  0.52646016  0.50336944  0.58559840  1
  O  O296  1  0.82715591  0.00194306  0.09045721  1
  O  O297  1  0.83855264  0.00221869  0.58452638  1
  O  O298  1  0.82348750  0.50247396  0.09289630  1
  O  O299  1  0.84135413  0.49896153  0.58582199  1
  O  O300  1  -0.01759250  0.24103583  0.08133082  1
  O  O301  1  -0.00902283  0.25109755  0.58695764  1
  O  O302  1  -0.00749467  0.73298025  0.07620024  1
  O  O303  1  -0.01295699  0.75133953  0.58786787  1
  O  O304  1  0.34552759  0.25364136  0.07915332  1
  O  O305  1  0.35534219  0.26140774  0.56869932  1
  O  O306  1  0.34893598  0.76206412  0.07287209  1
  O  O307  1  0.36287551  0.75184645  0.58328482  1
  O  O308  1  0.68050519  0.25048791  0.08906978  1
  O  O309  1  0.67914679  0.25089333  0.58388497  1
  O  O310  1  0.66156838  0.76395671  0.08153328  1
  O  O311  1  0.68817046  0.74984467  0.58468549  1
  O  O312  1  0.18758167  0.00951757  0.42036940  1
  O  O313  1  0.16181522  -0.00186900  0.91051719  1
  O  O314  1  0.17826443  0.48975811  0.42084415  1
  O  O315  1  0.15807352  0.49958940  0.91192840  1
  O  O316  1  0.48562139  0.00107539  0.41091590  1
  O  O317  1  0.48893883  0.01069329  0.92586049  1
  O  O318  1  0.49147577  0.49849951  0.41462071  1
  O  O319  1  0.47341155  0.49903594  0.91314534  1
  O  O320  1  0.79546482  0.00011532  0.41829834  1
  O  O321  1  0.85752820  0.01257413  0.92653843  1
  O  O322  1  0.80030421  0.50038248  0.41791618  1
  O  O323  1  0.85071335  0.51078564  0.92365976  1
  O  O324  1  0.33817817  0.25162056  0.41270034  1
  O  O325  1  0.31428500  0.24982940  0.91456190  1
  O  O326  1  0.35169993  0.74776374  0.40878827  1
  O  O327  1  0.31452383  0.74805119  0.91237572  1
  O  O328  1  0.64536428  0.25053359  0.41794564  1
  O  O329  1  0.66276381  0.26390146  0.92485289  1
  O  O330  1  0.64088055  0.74959925  0.41381075  1
  O  O331  1  0.66351609  0.73461091  0.92528947  1
  O  O332  1  0.98201509  0.26268716  0.42767673  1
  O  O333  1  1.01641387  0.24774444  0.91064421  1
  O  O334  1  0.98201868  0.73846549  0.42601909  1
  O  O335  1  1.01346349  0.74810672  0.91368809  1
  O  O336  1  0.20856624  0.08242948  0.20008836  1
  O  O337  1  0.20976423  0.08203147  0.69741379  1
  O  O338  1  0.21238389  0.58065772  0.19119195  1
  O  O339  1  0.20995650  0.58388804  0.69596348  1
  O  O340  1  0.55313232  0.09453720  0.19371813  1
  O  O341  1  0.53736107  0.08073789  0.69251393  1
  O  O342  1  0.54224369  0.58046142  0.19032202  1
  O  O343  1  0.54822144  0.58552311  0.69607285  1
  O  O344  1  0.87448350  0.08311775  0.19976852  1
  O  O345  1  0.87474270  0.08471119  0.69601153  1
  O  O346  1  0.87576526  0.58424942  0.19856602  1
  O  O347  1  0.87746197  0.58319567  0.69563622  1
  O  O348  1  0.04356852  0.33309541  0.20279477  1
  O  O349  1  0.03946031  0.33406209  0.69318324  1
  O  O350  1  0.04427800  0.82905457  0.19922450  1
  O  O351  1  0.03857368  0.83325302  0.69561190  1
  O  O352  1  0.37839853  0.33387670  0.19277584  1
  O  O353  1  0.38204817  0.32812480  0.68842564  1
  O  O354  1  0.37908732  0.83270185  0.19076904  1
  O  O355  1  0.37635772  0.83229979  0.69374152  1
  O  O356  1  0.71102901  0.33411429  0.19845648  1
  O  O357  1  0.70822084  0.33365406  0.69471653  1
  O  O358  1  0.71174492  0.84003506  0.19592561  1
  O  O359  1  0.70114047  0.83142885  0.69468428  1
  O  O360  1  0.21115087  0.41438419  0.19245500  1
  O  O361  1  0.19543593  0.41617996  0.68821470  1
  O  O362  1  0.20952891  0.91192098  0.19003501  1
  O  O363  1  0.20753302  0.91200383  0.69231949  1
  O  O364  1  0.54430421  0.41522046  0.19574685  1
  O  O365  1  0.54531256  0.41822340  0.69463746  1
  O  O366  1  0.54906133  0.91442780  0.19427562  1
  O  O367  1  0.54360837  0.91587450  0.69396673  1
  O  O368  1  0.87407188  0.41652762  0.19775121  1
  O  O369  1  0.87925872  0.41205291  0.69390539  1
  O  O370  1  0.87550040  0.91885381  0.19717424  1
  O  O371  1  0.87795998  0.92416187  0.69557508  1
  O  O372  1  0.04260184  0.16586063  0.19377336  1
  O  O373  1  0.04004127  0.16658646  0.69299932  1
  O  O374  1  0.04145555  0.66458467  0.19426078  1
  O  O375  1  0.04049630  0.66506473  0.69231562  1
  O  O376  1  0.37709387  0.17221645  0.18787227  1
  O  O377  1  0.37870800  0.16612866  0.69900552  1
  O  O378  1  0.37857114  0.66512232  0.19881430  1
  O  O379  1  0.37907807  0.66843001  0.69237946  1
  O  O380  1  0.71303969  0.16792516  0.19816721  1
  O  O381  1  0.71630243  0.17375291  0.69603341  1
  O  O382  1  0.71266879  0.66585431  0.20249487  1
  O  O383  1  0.71138305  0.66638556  0.69598782  1
  O  O384  1  0.12525299  0.08530815  0.30872998  1
  O  O385  1  0.12088621  0.08232141  0.80200268  1
  O  O386  1  0.12393266  0.58158523  0.29735850  1
  O  O387  1  0.12152788  0.58347277  0.80242674  1
  O  O388  1  0.45074491  0.09202255  0.30454371  1
  O  O389  1  0.45362042  0.08396438  0.80834104  1
  O  O390  1  0.45809465  0.57995901  0.30419712  1
  O  O391  1  0.45561551  0.58371091  0.80348155  1
  O  O392  1  0.78851555  0.08567041  0.31070333  1
  O  O393  1  0.80072164  0.08706700  0.81231513  1
  O  O394  1  0.78489983  0.58013561  0.30725841  1
  O  O395  1  0.79460062  0.58396648  0.80772840  1
  O  O396  1  0.29248792  0.33426609  0.30257926  1
  O  O397  1  0.28385945  0.32690876  0.80192981  1
  O  O398  1  0.29302175  0.83044359  0.30331435  1
  O  O399  1  0.28603374  0.83198486  0.80408197  1
  O  O400  1  0.62375346  0.33427913  0.30706336  1
  O  O401  1  0.62323940  0.33753604  0.80840860  1
  O  O402  1  0.61842093  0.83503868  0.30482121  1
  O  O403  1  0.62200412  0.83282608  0.80360142  1
  O  O404  1  0.95435981  0.33614836  0.31016489  1
  O  O405  1  0.96088489  0.33269670  0.80598949  1
  O  O406  1  0.95368494  0.83367818  0.30208299  1
  O  O407  1  0.96876512  0.83092869  0.80775848  1
  O  O408  1  0.12790474  0.41541037  0.30628930  1
  O  O409  1  0.12422508  0.41651168  0.80218590  1
  O  O410  1  0.12425393  0.91544579  0.29974966  1
  O  O411  1  0.12090728  0.91731942  0.80195240  1
  O  O412  1  0.45831246  0.41689581  0.30366356  1
  O  O413  1  0.46279767  0.41861983  0.80360510  1
  O  O414  1  0.45234372  0.90983096  0.30344685  1
  O  O415  1  0.45207643  0.91636006  0.79899211  1
  O  O416  1  0.78746008  0.41732050  0.30774124  1
  O  O417  1  0.79027069  0.41555302  0.80062810  1
  O  O418  1  0.78825806  0.91680218  0.30990065  1
  O  O419  1  0.78450977  0.92528638  0.80774824  1
  O  O420  1  0.29097219  0.17229931  0.30386504  1
  O  O421  1  0.28534417  0.16842169  0.80328894  1
  O  O422  1  0.29160082  0.66353672  0.30461216  1
  O  O423  1  0.29023633  0.66760048  0.80173411  1
  O  O424  1  0.62679649  0.16971766  0.30805300  1
  O  O425  1  0.62021640  0.16912121  0.79944357  1
  O  O426  1  0.61524643  0.66079619  0.30532098  1
  O  O427  1  0.62402403  0.66262023  0.80751863  1
  O  O428  1  0.95604940  0.16811812  0.30226901  1
  O  O429  1  0.96013279  0.16691725  0.80391724  1
  O  O430  1  0.95392954  0.66342572  0.30920550  1
  O  O431  1  0.96140633  0.66511437  0.80563518  1
  F  F432  1  0.04338176  0.00181843  0.20481510  1
  F  F433  1  0.04255712  -0.00074866  0.69991000  1
  F  F434  1  0.04342488  0.49636190  0.20292939  1
  F  F435  1  0.04295129  0.49972917  0.69964469  1
  F  F436  1  0.36453897  -0.00388217  0.19053595  1
  F  F437  1  0.37627286  0.00027621  0.70008926  1
  F  F438  1  0.37960025  0.49797425  0.19972951  1
  F  F439  1  0.38627920  0.51118210  0.69427738  1
  F  F440  1  0.71410166  0.00291982  0.20665434  1
  F  F441  1  0.71116253  0.00019036  0.70273992  1
  F  F442  1  0.71041006  0.49783387  0.20384356  1
  F  F443  1  0.70451776  0.50164501  0.69887020  1
  F  F444  1  0.21320831  0.25088599  0.20079514  1
  F  F445  1  0.20977875  0.25001110  0.69653039  1
  F  F446  1  0.21337791  0.74678371  0.20194506  1
  F  F447  1  0.21157274  0.75026393  0.69944051  1
  F  F448  1  0.55106165  0.25931962  0.19833855  1
  F  F449  1  0.54697654  0.25428282  0.70068191  1
  F  F450  1  0.54100259  0.74971936  0.19768120  1
  F  F451  1  0.54530141  0.74779332  0.70326254  1
  F  F452  1  0.87561703  0.25242225  0.20516518  1
  F  F453  1  0.87790741  0.25063922  0.70402092  1
  F  F454  1  0.87749155  0.74827431  0.20422572  1
  F  F455  1  0.88070497  0.74035124  0.70068450  1
  F  F456  1  0.28744292  -0.01000011  0.30040614  1
  F  F457  1  0.28539692  -0.00226723  0.79591464  1
  F  F458  1  0.29023374  0.49818542  0.29458603  1
  F  F459  1  0.28424558  0.50795911  0.79924429  1
  F  F460  1  0.63111178  0.00078337  0.30471137  1
  F  F461  1  0.61568943  -0.00165898  0.80082806  1
  F  F462  1  0.61965331  0.49940455  0.29790549  1
  F  F463  1  0.62050218  0.50166820  0.79850628  1
  F  F464  1  0.95477428  0.00071066  0.30155454  1
  F  F465  1  0.95697978  0.00176568  0.79798569  1
  F  F466  1  0.95306999  0.49873190  0.29924068  1
  F  F467  1  0.96296411  0.49929552  0.79980800  1
  F  F468  1  0.12382212  0.24827816  0.29846464  1
  F  F469  1  0.12107859  0.24953368  0.79289233  1
  F  F470  1  0.12315600  0.74542979  0.29854049  1
  F  F471  1  0.12211774  0.74704211  0.79375931  1
  F  F472  1  0.45401963  0.25735873  0.29962128  1
  F  F473  1  0.45358370  0.25361366  0.79769792  1
  F  F474  1  0.45738140  0.74966155  0.29674179  1
  F  F475  1  0.45270979  0.74818871  0.79746682  1
  F  F476  1  0.78651047  0.25208676  0.30177824  1
  F  F477  1  0.78966780  0.25283387  0.80011798  1
  F  F478  1  0.79294644  0.75188203  0.30452289  1
  F  F479  1  0.78441551  0.73744271  0.80363581  1
