# generated using pymatgen
data_K24Na3Li5Mg64Fe17Si79(O5F)48
_symmetry_space_group_name_H-M   'P 1'
_cell_length_a   16.08635797
_cell_length_b   18.58536577
_cell_length_c   20.54609055
_cell_angle_alpha   90.00489874
_cell_angle_beta   100.00422190
_cell_angle_gamma   90.00486246
_symmetry_Int_Tables_number   1
_chemical_formula_structural   K24Na3Li5Mg64Fe17Si79(O5F)48
_chemical_formula_sum   'K24 Na3 Li5 Mg64 Fe17 Si79 O240 F48'
_cell_volume   6049.28227599
_cell_formula_units_Z   1
loop_
 _symmetry_equiv_pos_site_id
 _symmetry_equiv_pos_as_xyz
  1  'x, y, z'
loop_
 _atom_site_type_symbol
 _atom_site_label
 _atom_site_symmetry_multiplicity
 _atom_site_fract_x
 _atom_site_fract_y
 _atom_site_fract_z
 _atom_site_occupancy
  K  K0  1  -0.00266061  -0.00359884  -0.00621609  1
  K  K1  1  -0.00442563  -0.00009948  0.50175380  1
  K  K2  1  -0.00503983  0.51015264  -0.01063072  1
  K  K3  1  -0.00999272  0.49989589  0.50979450  1
  K  K4  1  0.34023117  0.00533460  -0.00575473  1
  K  K5  1  0.33855519  0.00078646  0.51200027  1
  K  K6  1  0.33106230  0.50293922  -0.00292673  1
  K  K7  1  0.34330395  0.49757990  0.50491562  1
  K  K8  1  0.66883728  -0.00557675  -0.00717695  1
  K  K9  1  0.66011267  -0.00760807  0.50491857  1
  K  K10  1  0.67052062  0.49906048  -0.00334444  1
  K  K11  1  0.67284650  0.50300713  0.50761832  1
  K  K12  1  0.17195747  0.25185351  -0.00353455  1
  K  K13  1  0.16752311  0.25451967  0.50584824  1
  K  K14  1  0.15814059  0.74682191  -0.00663921  1
  K  K15  1  0.16281207  0.75458592  0.50628584  1
  K  K16  1  0.49722893  0.24532506  -0.00456319  1
  K  K17  1  0.49564357  0.24272720  0.51300172  1
  K  K18  1  0.50399261  0.75406858  -0.00269885  1
  K  K19  1  0.50485189  0.75252834  0.50395382  1
  K  K20  1  0.81146751  0.24815465  -0.00572403  1
  K  K21  1  0.84134031  0.25325610  0.50237366  1
  K  K22  1  0.83241574  0.74087127  -0.01105603  1
  K  K23  1  0.83352140  0.75015794  0.50944531  1
  Na  Na24  1  0.49990460  -0.00064880  0.24905949  1
  Na  Na25  1  0.33675764  0.08337882  0.74984258  1
  Na  Na26  1  0.49415784  0.16530139  0.74988585  1
  Li  Li27  1  0.67312902  0.74235716  0.75525550  1
  Li  Li28  1  -0.00531360  0.74368433  0.74755343  1
  Li  Li29  1  -0.00765281  0.59006994  0.74490945  1
  Li  Li30  1  0.67363347  0.58975960  0.75227549  1
  Li  Li31  1  0.50001721  0.66703459  0.24581139  1
  Mg  Mg32  1  0.33506359  0.75078037  0.25328349  1
  Mg  Mg33  1  0.33560000  0.24798195  0.24693976  1
  Mg  Mg34  1  0.00079692  0.74859814  0.24981389  1
  Mg  Mg35  1  0.83521240  0.50230390  0.74520187  1
  Mg  Mg36  1  0.83297447  0.49962070  0.24945064  1
  Mg  Mg37  1  0.00067780  0.24909951  0.75022768  1
  Mg  Mg38  1  0.50002923  0.50392580  0.24501099  1
  Mg  Mg39  1  0.16726127  -0.00069682  0.25276265  1
  Mg  Mg40  1  0.66300411  0.74938249  0.25044713  1
  Mg  Mg41  1  0.66875536  0.25013806  0.24681845  1
  Mg  Mg42  1  0.00066499  0.25204944  0.25427705  1
  Mg  Mg43  1  0.33435396  0.25250286  0.74656018  1
  Mg  Mg44  1  0.83214600  -0.00055154  0.75385133  1
  Mg  Mg45  1  0.16215978  0.50292410  0.74456047  1
  Mg  Mg46  1  0.16778528  0.00051453  0.75346391  1
  Mg  Mg47  1  0.66366029  0.24885017  0.74782605  1
  Mg  Mg48  1  0.83259138  -0.00022434  0.25419997  1
  Mg  Mg49  1  0.33326955  0.74801880  0.75157805  1
  Mg  Mg50  1  0.50517914  0.50305421  0.74695477  1
  Mg  Mg51  1  0.49928730  -0.00427808  0.75143772  1
  Mg  Mg52  1  0.16874207  0.50130212  0.24988198  1
  Mg  Mg53  1  0.16770350  0.33550729  0.74856895  1
  Mg  Mg54  1  0.00054736  0.08499528  0.25299861  1
  Mg  Mg55  1  0.33435309  0.41822207  0.74702574  1
  Mg  Mg56  1  0.16841913  0.16578045  0.25137489  1
  Mg  Mg57  1  0.83135122  0.16482045  0.75294528  1
  Mg  Mg58  1  0.83266085  0.33420349  0.25012735  1
  Mg  Mg59  1  0.50054103  0.16484475  0.24559299  1
  Mg  Mg60  1  0.83421678  0.82891501  0.75114867  1
  Mg  Mg61  1  0.33444815  0.41612376  0.24806650  1
  Mg  Mg62  1  0.66983046  0.41897616  0.74716950  1
  Mg  Mg63  1  -0.00064443  0.91498614  0.25347158  1
  Mg  Mg64  1  0.16364997  0.83175799  0.75058396  1
  Mg  Mg65  1  -0.00006899  0.41555147  0.25175344  1
  Mg  Mg66  1  0.83393401  0.33453965  0.74835769  1
  Mg  Mg67  1  -0.00002018  0.91392791  0.75090527  1
  Mg  Mg68  1  0.16742612  0.83329079  0.25289301  1
  Mg  Mg69  1  0.50404454  0.82999162  0.75240884  1
  Mg  Mg70  1  0.33614588  0.91427455  0.75263320  1
  Mg  Mg71  1  0.49856366  0.33562082  0.74553955  1
  Mg  Mg72  1  0.33691053  0.58680682  0.24813300  1
  Mg  Mg73  1  0.33557974  0.08360596  0.24863313  1
  Mg  Mg74  1  0.66725607  0.08415775  0.24919296  1
  Mg  Mg75  1  0.16755926  0.66645528  0.25051220  1
  Mg  Mg76  1  0.16977578  0.16515750  0.75110963  1
  Mg  Mg77  1  0.50706120  0.66630591  0.74992822  1
  Mg  Mg78  1  0.33274345  0.91561447  0.25429837  1
  Mg  Mg79  1  0.83286530  0.16649299  0.25207014  1
  Mg  Mg80  1  0.66674987  0.91608609  0.25422473  1
  Mg  Mg81  1  0.49964151  0.33504708  0.24456917  1
  Mg  Mg82  1  0.00131798  0.58438894  0.24827118  1
  Mg  Mg83  1  0.49860543  0.83149785  0.25494906  1
  Mg  Mg84  1  0.00268268  0.08367165  0.75479031  1
  Mg  Mg85  1  0.66502749  0.41646522  0.24553750  1
  Mg  Mg86  1  0.15964172  0.66703118  0.74814611  1
  Mg  Mg87  1  0.33245341  0.58429754  0.74733446  1
  Mg  Mg88  1  -0.00182095  0.41932433  0.74665382  1
  Mg  Mg89  1  0.66229627  0.58622892  0.24741258  1
  Mg  Mg90  1  0.66767926  0.91089702  0.75234001  1
  Mg  Mg91  1  0.16786710  0.33473258  0.25175058  1
  Mg  Mg92  1  0.83213474  0.83434250  0.25284928  1
  Mg  Mg93  1  0.83230377  0.66562868  0.24754344  1
  Mg  Mg94  1  0.66405226  0.08137750  0.75195086  1
  Mg  Mg95  1  0.83381717  0.66552994  0.74724967  1
  Fe  Fe96  1  0.14062198  0.08152429  0.89424157  1
  Fe  Fe97  1  0.80525522  0.91384343  0.39403194  1
  Fe  Fe98  1  0.97455350  0.33748652  0.39273680  1
  Fe  Fe99  1  0.80293401  0.08489190  0.89191595  1
  Fe  Fe100  1  0.35857688  0.33757500  0.60541292  1
  Fe  Fe101  1  0.02024092  0.67309550  0.60858546  1
  Fe  Fe102  1  0.68562988  0.33439594  0.10716380  1
  Fe  Fe103  1  0.47775728  0.91510481  0.89280022  1
  Fe  Fe104  1  0.52052631  0.07611962  0.60938477  1
  Fe  Fe105  1  0.52123167  0.59125274  0.10810270  1
  Fe  Fe106  1  0.85797936  0.41280891  0.60758650  1
  Fe  Fe107  1  0.80969297  0.57958966  0.88766096  1
  Fe  Fe108  1  0.30886122  0.17478801  0.89060926  1
  Fe  Fe109  1  0.31060592  0.83416210  0.39390969  1
  Fe  Fe110  1  0.36198174  0.16238707  0.10722093  1
  Fe  Fe111  1  0.69077585  0.16125877  0.10928971  1
  Fe  Fe112  1  0.02619828  0.66700122  0.10978103  1
  Si  Si113  1  0.03139794  0.32942767  0.61243383  1
  Si  Si114  1  0.03130715  0.16894844  0.11803349  1
  Si  Si115  1  0.97861295  0.16615253  0.39016147  1
  Si  Si116  1  0.80681011  0.58821432  0.38476857  1
  Si  Si117  1  0.14665375  0.41979586  0.38821600  1
  Si  Si118  1  0.52805036  0.58860127  0.61341181  1
  Si  Si119  1  0.53174253  0.42217421  0.60931415  1
  Si  Si120  1  0.85986220  0.57878689  0.11344027  1
  Si  Si121  1  0.34849911  0.17040196  0.60455189  1
  Si  Si122  1  0.19711901  0.58420572  0.11246946  1
  Si  Si123  1  0.14688504  0.58338342  0.38583915  1
  Si  Si124  1  0.63931484  0.33527439  0.88211258  1
  Si  Si125  1  0.97518794  0.83142497  0.88360912  1
  Si  Si126  1  0.85113444  0.58379670  0.60538103  1
  Si  Si127  1  0.47227670  0.92153202  0.38998103  1
  Si  Si128  1  0.19108450  0.08101429  0.11562843  1
  Si  Si129  1  0.47470141  0.57673938  0.38394481  1
  Si  Si130  1  0.31388446  0.66400510  0.38869039  1
  Si  Si131  1  0.02113005  0.83628132  0.11428130  1
  Si  Si132  1  0.19460936  0.91593767  0.61532735  1
  Si  Si133  1  0.30492443  0.82750828  0.88762610  1
  Si  Si134  1  0.13714793  0.91481694  0.38967421  1
  Si  Si135  1  0.69785973  0.66850903  0.11120280  1
  Si  Si136  1  0.85863863  0.92184716  0.11749068  1
  Si  Si137  1  0.86697105  0.08713731  0.11668684  1
  Si  Si138  1  0.35507798  0.67376264  0.11367085  1
  Si  Si139  1  0.18913851  0.08065650  0.61327150  1
  Si  Si140  1  0.02305697  0.84283137  0.61203720  1
  Si  Si141  1  0.64034837  0.66399259  0.88637903  1
  Si  Si142  1  0.14098174  0.58394394  0.88220765  1
  Si  Si143  1  0.47295317  0.41333870  0.38295779  1
  Si  Si144  1  0.69089395  0.32935689  0.61175810  1
  Si  Si145  1  0.13990025  0.41992547  0.88341960  1
  Si  Si146  1  0.97425037  0.82821105  0.38821579  1
  Si  Si147  1  0.68872955  0.16496828  0.61267707  1
  Si  Si148  1  0.18715981  0.91825645  0.11734477  1
  Si  Si149  1  0.52366611  0.90674232  0.61328045  1
  Si  Si150  1  0.35167885  0.83542173  0.11682333  1
  Si  Si151  1  0.19383182  0.41828087  0.11484651  1
  Si  Si152  1  0.64240008  0.17090129  0.38517746  1
  Si  Si153  1  0.35664765  0.82580542  0.61623955  1
  Si  Si154  1  0.80106083  0.42179189  0.38670004  1
  Si  Si155  1  0.14232238  0.91086817  0.88790170  1
  Si  Si156  1  0.35817226  0.66159377  0.61386225  1
  Si  Si157  1  0.85671673  0.92356761  0.61671021  1
  Si  Si158  1  0.02935054  0.33506948  0.11597708  1
  Si  Si159  1  0.97850309  0.66311208  0.38474288  1
  Si  Si160  1  0.47536216  0.58681177  0.88335118  1
  Si  Si161  1  0.69613847  0.83398541  0.61649138  1
  Si  Si162  1  0.30893669  0.16475927  0.38616656  1
  Si  Si163  1  0.47626438  0.07996116  0.89055731  1
  Si  Si164  1  0.14280253  0.08123297  0.38745953  1
  Si  Si165  1  0.85768081  0.08875433  0.61685423  1
  Si  Si166  1  0.63363355  0.83064612  0.39166170  1
  Si  Si167  1  0.18927325  0.58579878  0.61068052  1
  Si  Si168  1  0.80968575  0.08596649  0.39033001  1
  Si  Si169  1  0.64569754  0.82805818  0.88867992  1
  Si  Si170  1  0.35636912  0.33363473  0.11113459  1
  Si  Si171  1  0.63783618  0.33546200  0.38289337  1
  Si  Si172  1  0.63517217  0.16935711  0.88665302  1
  Si  Si173  1  0.30713386  0.66226067  0.88398723  1
  Si  Si174  1  0.86094298  0.41396758  0.11316197  1
  Si  Si175  1  0.97138014  0.16856326  0.88966864  1
  Si  Si176  1  0.63849853  0.66529089  0.38526374  1
  Si  Si177  1  0.31134558  0.34417440  0.88577988  1
  Si  Si178  1  0.97555189  0.66740188  0.88356796  1
  Si  Si179  1  0.19070412  0.42143810  0.61149667  1
  Si  Si180  1  0.47772326  0.08837442  0.38550373  1
  Si  Si181  1  0.02656201  0.16276102  0.61481916  1
  Si  Si182  1  0.53219126  0.07435374  0.11108490  1
  Si  Si183  1  0.47776467  0.42411299  0.88182547  1
  Si  Si184  1  0.30789467  0.33101607  0.38391323  1
  Si  Si185  1  0.69311653  0.67056338  0.61499150  1
  Si  Si186  1  0.97905579  0.33091232  0.88415196  1
  Si  Si187  1  0.81157789  0.41015895  0.88656218  1
  Si  Si188  1  0.81183526  0.91204211  0.88925426  1
  Si  Si189  1  0.51720233  0.42237359  0.10856108  1
  Si  Si190  1  0.69336129  0.83475044  0.11586162  1
  Si  Si191  1  0.52304180  0.90771400  0.11843114  1
  O  O192  1  0.27081793  0.09908512  0.08159093  1
  O  O193  1  0.25881116  0.12373730  0.57917323  1
  O  O194  1  0.28245302  0.61196307  0.08560264  1
  O  O195  1  0.27870921  0.60841799  0.58461012  1
  O  O196  1  0.61740462  0.08461888  0.07977525  1
  O  O197  1  0.61564469  0.11251731  0.57549787  1
  O  O198  1  0.61799738  0.62314485  0.07468300  1
  O  O199  1  0.59980176  0.63473732  0.58330626  1
  O  O200  1  0.95523514  0.11241241  0.09118191  1
  O  O201  1  0.93675431  0.12213055  0.58482941  1
  O  O202  1  0.94052788  0.60031216  0.08082550  1
  O  O203  1  0.92302461  0.62199872  0.56990276  1
  O  O204  1  0.11191190  0.36650530  0.08672817  1
  O  O205  1  0.11342988  0.36437051  0.58549036  1
  O  O206  1  0.10588340  0.86714992  0.08743731  1
  O  O207  1  0.10375055  0.87978640  0.58216064  1
  O  O208  1  0.43990010  0.36320225  0.08393994  1
  O  O209  1  0.44859610  0.38138575  0.57107949  1
  O  O210  1  0.43721859  0.86004272  0.08826988  1
  O  O211  1  0.43948531  0.85455617  0.58725196  1
  O  O212  1  0.78876193  0.36008296  0.07852575  1
  O  O213  1  0.76839347  0.35013972  0.57479525  1
  O  O214  1  0.77092441  0.87773055  0.08873503  1
  O  O215  1  0.77159518  0.87708035  0.58554455  1
  O  O216  1  0.27615290  0.38968806  0.08568418  1
  O  O217  1  0.26780027  0.40018500  0.57433829  1
  O  O218  1  0.27186406  0.89042113  0.08935875  1
  O  O219  1  0.27144593  0.87356834  0.58630235  1
  O  O220  1  0.59995044  0.40261920  0.07711389  1
  O  O221  1  0.61311144  0.38530471  0.58293572  1
  O  O222  1  0.60303715  0.87450991  0.08601079  1
  O  O223  1  0.60447001  0.87007053  0.58426442  1
  O  O224  1  0.95060840  0.38905983  0.08836322  1
  O  O225  1  0.94953889  0.37119822  0.57444140  1
  O  O226  1  0.94054825  0.89078404  0.08830524  1
  O  O227  1  0.93930903  0.89581768  0.58635443  1
  O  O228  1  0.11420613  0.13943013  0.08988635  1
  O  O229  1  0.09641352  0.11693243  0.58181897  1
  O  O230  1  0.12135178  0.63458219  0.07639756  1
  O  O231  1  0.11721608  0.63942783  0.57457848  1
  O  O232  1  0.45635653  0.12701674  0.07569106  1
  O  O233  1  0.42193491  0.12803543  0.57367627  1
  O  O234  1  0.43513535  0.65903754  0.07805008  1
  O  O235  1  0.43775818  0.62911038  0.58205703  1
  O  O236  1  0.79558941  0.14134658  0.08241827  1
  O  O237  1  0.77794206  0.14098802  0.58717427  1
  O  O238  1  0.78259193  0.63514984  0.08656465  1
  O  O239  1  0.76101716  0.62804468  0.57789818  1
  O  O240  1  0.06204748  0.11411146  0.41660047  1
  O  O241  1  0.03973400  0.10957896  0.92319752  1
  O  O242  1  0.06167576  0.61245004  0.41246928  1
  O  O243  1  0.06611755  0.62437757  0.91227801  1
  O  O244  1  0.39633653  0.12137886  0.41661768  1
  O  O245  1  0.39423484  0.10839406  0.91987174  1
  O  O246  1  0.39440758  0.60890902  0.41510179  1
  O  O247  1  0.39089031  0.61321103  0.91250172  1
  O  O248  1  0.72952330  0.12754951  0.41562770  1
  O  O249  1  0.71072139  0.12037301  0.92704932  1
  O  O250  1  0.73129171  0.62869159  0.41597361  1
  O  O251  1  0.71426197  0.61117512  0.92261782  1
  O  O252  1  0.23039287  0.36845431  0.41362194  1
  O  O253  1  0.22927824  0.38021231  0.91473703  1
  O  O254  1  0.21290268  0.86480987  0.42576197  1
  O  O255  1  0.21672932  0.85055557  0.91313966  1
  O  O256  1  0.55555829  0.36469232  0.41285183  1
  O  O257  1  0.56121750  0.37517830  0.91118374  1
  O  O258  1  0.55377628  0.86923520  0.41891172  1
  O  O259  1  0.57231356  0.85767667  0.92684610  1
  O  O260  1  0.87978232  0.37503140  0.42347177  1
  O  O261  1  0.89468178  0.35703891  0.91293058  1
  O  O262  1  0.89616057  0.85033670  0.42332161  1
  O  O263  1  0.89584509  0.86170410  0.91691606  1
  O  O264  1  0.07041015  0.39454948  0.42403528  1
  O  O265  1  0.06104397  0.38292630  0.91338730  1
  O  O266  1  0.05134025  0.88538774  0.41522708  1
  O  O267  1  0.05787853  0.88030797  0.91550508  1
  O  O268  1  0.39341757  0.37728541  0.41211009  1
  O  O269  1  0.39285843  0.39917162  0.91034450  1
  O  O270  1  0.39576508  0.90048307  0.42834261  1
  O  O271  1  0.38226537  0.87586729  0.92456416  1
  O  O272  1  0.71528520  0.39039507  0.41163691  1
  O  O273  1  0.72867012  0.37512675  0.91374562  1
  O  O274  1  0.71724764  0.87068399  0.42960092  1
  O  O275  1  0.73365152  0.87289336  0.91789574  1
  O  O276  1  0.22956474  0.12745765  0.41557097  1
  O  O277  1  0.22038342  0.14687144  0.93157690  1
  O  O278  1  0.22849526  0.63355957  0.41564874  1
  O  O279  1  0.22993035  0.62511004  0.91526890  1
  O  O280  1  0.56182755  0.13737570  0.41546624  1
  O  O281  1  0.54823786  0.14434916  0.91136493  1
  O  O282  1  0.56385214  0.61896811  0.41310570  1
  O  O283  1  0.55157880  0.64116478  0.91425772  1
  O  O284  1  0.89642305  0.13302290  0.41801894  1
  O  O285  1  0.88496823  0.15611364  0.91892005  1
  O  O286  1  0.89656472  0.63032854  0.41335855  1
  O  O287  1  0.90645233  0.63452139  0.92449614  1
  O  O288  1  0.15855987  -0.00074117  0.09057463  1
  O  O289  1  0.19039802  -0.00231124  0.58396367  1
  O  O290  1  0.17623784  0.50018875  0.08628694  1
  O  O291  1  0.16179890  0.50338829  0.58491999  1
  O  O292  1  0.50059862  -0.01037926  0.09296670  1
  O  O293  1  0.50423711  -0.01832800  0.57396775  1
  O  O294  1  0.47982886  0.49941668  0.07945725  1
  O  O295  1  0.52676303  0.50695199  0.58150036  1
  O  O296  1  0.84614210  0.00411741  0.08939666  1
  O  O297  1  0.83868094  0.00642602  0.58793557  1
  O  O298  1  0.83421647  0.49642629  0.08738412  1
  O  O299  1  0.83468534  0.50420978  0.57104538  1
  O  O300  1  0.01200302  0.25164370  0.08907755  1
  O  O301  1  0.02509860  0.24473276  0.58501603  1
  O  O302  1  -0.00374152  0.76028823  0.07840043  1
  O  O303  1  0.00328555  0.76781053  0.57321755  1
  O  O304  1  0.32865869  0.25664201  0.07891832  1
  O  O305  1  0.33293299  0.24760864  0.56505203  1
  O  O306  1  0.31952853  0.75547422  0.08820428  1
  O  O307  1  0.33726099  0.74386979  0.58517828  1
  O  O308  1  0.64927692  0.24699976  0.07092234  1
  O  O309  1  0.66236624  0.24716276  0.58554584  1
  O  O310  1  0.69081541  0.75328607  0.08478489  1
  O  O311  1  0.69104713  0.75302183  0.58370674  1
  O  O312  1  0.15449521  -0.00102440  0.41613678  1
  O  O313  1  0.16859740  -0.01400523  0.92491316  1
  O  O314  1  0.17256528  0.50245937  0.41412297  1
  O  O315  1  0.14789424  0.50194078  0.91416190  1
  O  O316  1  0.49917655  0.00605898  0.41219601  1
  O  O317  1  0.50696835  0.00547401  0.93090740  1
  O  O318  1  0.48783461  0.49431984  0.41474110  1
  O  O319  1  0.49907494  0.50545345  0.91249022  1
  O  O320  1  0.82365402  0.00879257  0.42700707  1
  O  O321  1  0.82941299  -0.00985122  0.92444286  1
  O  O322  1  0.81268777  0.50593056  0.41387991  1
  O  O323  1  0.83284946  0.48577301  0.92402253  1
  O  O324  1  0.31945225  0.24853154  0.41302382  1
  O  O325  1  0.33529368  0.26975052  0.92378990  1
  O  O326  1  0.33936242  0.73981367  0.42469569  1
  O  O327  1  0.32230779  0.74321907  0.91476788  1
  O  O328  1  0.65768690  0.25410193  0.41314806  1
  O  O329  1  0.64766735  0.25420443  0.91292081  1
  O  O330  1  0.63506850  0.74574005  0.41770741  1
  O  O331  1  0.66518141  0.74518109  0.91639415  1
  O  O332  1  0.99999029  0.24331227  0.42488074  1
  O  O333  1  1.00621245  0.25102814  0.91391910  1
  O  O334  1  1.00278130  0.74477809  0.41244970  1
  O  O335  1  0.99618724  0.75032218  0.91303057  1
  O  O336  1  0.20779960  0.08314780  0.19700757  1
  O  O337  1  0.20020694  0.08089723  0.69215633  1
  O  O338  1  0.21129140  0.58369651  0.19384702  1
  O  O339  1  0.20929413  0.58605470  0.69162200  1
  O  O340  1  0.54994022  0.08825398  0.19122830  1
  O  O341  1  0.54815108  0.07206612  0.69887082  1
  O  O342  1  0.54521107  0.58463840  0.19874084  1
  O  O343  1  0.53998254  0.58542445  0.69248537  1
  O  O344  1  0.88137311  0.08438085  0.19814714  1
  O  O345  1  0.87895219  0.08563116  0.69686461  1
  O  O346  1  0.87752106  0.58194013  0.19497512  1
  O  O347  1  0.87117274  0.58311769  0.68543069  1
  O  O348  1  0.04803869  0.33444759  0.19667116  1
  O  O349  1  0.04410746  0.33164203  0.69309861  1
  O  O350  1  0.04120742  0.83435004  0.19575887  1
  O  O351  1  0.04531972  0.84039887  0.69182241  1
  O  O352  1  0.37417399  0.33424791  0.19272379  1
  O  O353  1  0.37695354  0.33878033  0.69683066  1
  O  O354  1  0.37389377  0.83479317  0.19702832  1
  O  O355  1  0.37378848  0.82684762  0.69601045  1
  O  O356  1  0.71220620  0.33454285  0.20049304  1
  O  O357  1  0.71089256  0.33187832  0.69257164  1
  O  O358  1  0.71049827  0.83238306  0.19633390  1
  O  O359  1  0.71484661  0.83647317  0.69565688  1
  O  O360  1  0.21020571  0.41683646  0.19569851  1
  O  O361  1  0.21043350  0.41957807  0.69249586  1
  O  O362  1  0.20493585  0.91682153  0.19791025  1
  O  O363  1  0.21024674  0.91423960  0.69532561  1
  O  O364  1  0.53911369  0.41865862  0.19087638  1
  O  O365  1  0.54426867  0.42036468  0.68984826  1
  O  O366  1  0.54785879  0.90432391  0.19782627  1
  O  O367  1  0.54523781  0.90931753  0.69352382  1
  O  O368  1  0.87803783  0.41647986  0.19450959  1
  O  O369  1  0.87852832  0.41396042  0.69883067  1
  O  O370  1  0.87834905  0.91758370  0.19801458  1
  O  O371  1  0.87560359  0.91933076  0.69663781  1
  O  O372  1  0.04630914  0.16926485  0.19904886  1
  O  O373  1  0.04225762  0.16536051  0.69489156  1
  O  O374  1  0.04656016  0.66666873  0.20188230  1
  O  O375  1  0.04456426  0.66749571  0.69674141  1
  O  O376  1  0.37794372  0.16622618  0.19938025  1
  O  O377  1  0.36611592  0.17850188  0.68328818  1
  O  O378  1  0.37038297  0.67015452  0.19406930  1
  O  O379  1  0.37672605  0.66442927  0.69406333  1
  O  O380  1  0.71484980  0.16624008  0.20250720  1
  O  O381  1  0.70749015  0.16518734  0.69333725  1
  O  O382  1  0.71109966  0.66786620  0.19251909  1
  O  O383  1  0.71258090  0.66869659  0.69343885  1
  O  O384  1  0.12446048  0.08357178  0.30679811  1
  O  O385  1  0.12294320  0.08369275  0.80164737  1
  O  O386  1  0.12725451  0.58257978  0.30523476  1
  O  O387  1  0.13008773  0.58193339  0.80331380  1
  O  O388  1  0.45446763  0.09229094  0.30646317  1
  O  O389  1  0.46269558  0.06867920  0.81201994  1
  O  O390  1  0.45365449  0.57727902  0.30463877  1
  O  O391  1  0.45602993  0.58480651  0.80301970  1
  O  O392  1  0.79454510  0.08340195  0.30949027  1
  O  O393  1  0.78760968  0.08217663  0.80014242  1
  O  O394  1  0.78956102  0.58625922  0.30418549  1
  O  O395  1  0.79361572  0.58113690  0.79781505  1
  O  O396  1  0.29075481  0.33242146  0.30331648  1
  O  O397  1  0.28808084  0.34173461  0.80520898  1
  O  O398  1  0.28649593  0.83302253  0.30213666  1
  O  O399  1  0.29012131  0.82903281  0.80666587  1
  O  O400  1  0.61981126  0.33498493  0.30260831  1
  O  O401  1  0.62302515  0.33619280  0.80180850  1
  O  O402  1  0.62324671  0.83216579  0.31094246  1
  O  O403  1  0.62398122  0.83259880  0.80864203  1
  O  O404  1  0.95618551  0.33517786  0.30070047  1
  O  O405  1  0.96050871  0.33216634  0.80389500  1
  O  O406  1  0.95669562  0.83084809  0.30683905  1
  O  O407  1  0.95510290  0.83607865  0.80417690  1
  O  O408  1  0.12655470  0.41771848  0.30684514  1
  O  O409  1  0.12295764  0.41810307  0.80318213  1
  O  O410  1  0.12178235  0.91588820  0.30838719  1
  O  O411  1  0.12271343  0.91447708  0.80686613  1
  O  O412  1  0.45553114  0.41571442  0.30254047  1
  O  O413  1  0.45923857  0.42329572  0.80169324  1
  O  O414  1  0.45050805  0.91124504  0.31054026  1
  O  O415  1  0.45678989  0.90983991  0.80119099  1
  O  O416  1  0.78943688  0.42042760  0.30596932  1
  O  O417  1  0.79127665  0.41291640  0.80610314  1
  O  O418  1  0.78979151  0.91518068  0.30225901  1
  O  O419  1  0.79293826  0.91416745  0.80842811  1
  O  O420  1  0.28895034  0.16585271  0.30587244  1
  O  O421  1  0.28526935  0.17889368  0.80030451  1
  O  O422  1  0.29200237  0.66475892  0.30754944  1
  O  O423  1  0.28942281  0.66388575  0.80364785  1
  O  O424  1  0.62252921  0.16876223  0.30505553  1
  O  O425  1  0.63317044  0.16835264  0.80747593  1
  O  O426  1  0.62842390  0.66685033  0.30608735  1
  O  O427  1  0.62106140  0.66372284  0.80707292  1
  O  O428  1  0.96052372  0.16675804  0.30894515  1
  O  O429  1  0.95670646  0.16742119  0.80774101  1
  O  O430  1  0.95630076  0.66419410  0.30435252  1
  O  O431  1  0.95239269  0.66572988  0.80476756  1
  F  F432  1  0.04510693  -0.00012227  0.20642923  1
  F  F433  1  0.04338897  -0.00121091  0.70332208  1
  F  F434  1  0.04757352  0.49859607  0.20355598  1
  F  F435  1  0.04760090  0.49313028  0.69469848  1
  F  F436  1  0.36398991  -0.00254750  0.20160430  1
  F  F437  1  0.38098932  -0.01340144  0.69553724  1
  F  F438  1  0.37569561  0.49968835  0.20053176  1
  F  F439  1  0.37986344  0.50303162  0.69941796  1
  F  F440  1  0.71445277  -0.00071690  0.20275016  1
  F  F441  1  0.71312365  -0.00508419  0.70261350  1
  F  F442  1  0.71311106  0.50226816  0.20242224  1
  F  F443  1  0.71610668  0.49136341  0.69505274  1
  F  F444  1  0.21116671  0.25051160  0.20345106  1
  F  F445  1  0.20677108  0.25483058  0.69826447  1
  F  F446  1  0.21009725  0.74914049  0.20359465  1
  F  F447  1  0.21299113  0.74980134  0.70136740  1
  F  F448  1  0.54516841  0.25124370  0.20101825  1
  F  F449  1  0.54874636  0.25962886  0.69635379  1
  F  F450  1  0.54621568  0.75295196  0.20399869  1
  F  F451  1  0.53862443  0.74903418  0.69976572  1
  F  F452  1  0.88164004  0.24805419  0.20441030  1
  F  F453  1  0.87965914  0.24743646  0.70270077  1
  F  F454  1  0.87868027  0.75091766  0.20315833  1
  F  F455  1  0.87373085  0.75113511  0.69756856  1
  F  F456  1  0.28591190  0.00231768  0.30204118  1
  F  F457  1  0.28359139  -0.01146941  0.80113783  1
  F  F458  1  0.28923573  0.49962656  0.29685614  1
  F  F459  1  0.28686747  0.50199653  0.79415037  1
  F  F460  1  0.63442627  0.00147472  0.30259926  1
  F  F461  1  0.62578659  -0.00678917  0.80044724  1
  F  F462  1  0.62151069  0.49818428  0.29704889  1
  F  F463  1  0.62117496  0.49585835  0.79658895  1
  F  F464  1  0.95646989  0.00036828  0.30132735  1
  F  F465  1  0.95490841  -0.00068658  0.79923636  1
  F  F466  1  0.95562862  0.50126547  0.29779745  1
  F  F467  1  0.95607090  0.49836513  0.79691663  1
  F  F468  1  0.12470954  0.25077552  0.30094285  1
  F  F469  1  0.12062183  0.25263533  0.79638197  1
  F  F470  1  0.12169112  0.75054883  0.30076778  1
  F  F471  1  0.12860137  0.75010479  0.80042633  1
  F  F472  1  0.45553469  0.25452858  0.29675697  1
  F  F473  1  0.45155704  0.26316781  0.80031448  1
  F  F474  1  0.45260671  0.75095345  0.30166659  1
  F  F475  1  0.45367372  0.74535469  0.79913370  1
  F  F476  1  0.79157696  0.25135864  0.30237229  1
  F  F477  1  0.78706220  0.25145857  0.79533234  1
  F  F478  1  0.78753870  0.74799022  0.29747640  1
  F  F479  1  0.79435762  0.74851772  0.80070891  1
