# generated using pymatgen
data_K24Na3Li5Mg64Fe17Si79(O5F)48
_symmetry_space_group_name_H-M   'P 1'
_cell_length_a   16.08021091
_cell_length_b   18.57995163
_cell_length_c   20.55001385
_cell_angle_alpha   90.00943394
_cell_angle_beta   100.01166857
_cell_angle_gamma   89.99984273
_symmetry_Int_Tables_number   1
_chemical_formula_structural   K24Na3Li5Mg64Fe17Si79(O5F)48
_chemical_formula_sum   'K24 Na3 Li5 Mg64 Fe17 Si79 O240 F48'
_cell_volume   6046.22475174
_cell_formula_units_Z   1
loop_
 _symmetry_equiv_pos_site_id
 _symmetry_equiv_pos_as_xyz
  1  'x, y, z'
loop_
 _atom_site_type_symbol
 _atom_site_label
 _atom_site_symmetry_multiplicity
 _atom_site_fract_x
 _atom_site_fract_y
 _atom_site_fract_z
 _atom_site_occupancy
  K  K0  1  0.00913056  -0.00090662  -0.00037399  1
  K  K1  1  -0.00264029  -0.00091335  0.49474559  1
  K  K2  1  -0.00106200  0.50684664  0.00303280  1
  K  K3  1  0.00061756  0.49942801  0.49885735  1
  K  K4  1  0.33292652  0.00441100  0.01560011  1
  K  K5  1  0.33615821  0.00313731  0.48301354  1
  K  K6  1  0.33406887  0.49700001  0.00370517  1
  K  K7  1  0.33838150  0.49830061  0.49506669  1
  K  K8  1  0.66290035  0.00454695  0.01049634  1
  K  K9  1  0.65993062  0.00768372  0.47659729  1
  K  K10  1  0.66454123  0.49764056  -0.00310006  1
  K  K11  1  0.66750525  0.50132923  0.50160414  1
  K  K12  1  0.17942141  0.24881221  0.00227979  1
  K  K13  1  0.17183260  0.25333219  0.49758810  1
  K  K14  1  0.16891325  0.74760692  0.00564655  1
  K  K15  1  0.17392654  0.74723237  0.48570852  1
  K  K16  1  0.49767579  0.25596452  0.00287640  1
  K  K17  1  0.51465131  0.25652834  0.49860293  1
  K  K18  1  0.51397805  0.75328041  0.00674923  1
  K  K19  1  0.48979397  0.74413403  0.48908717  1
  K  K20  1  0.82039806  0.25428000  0.00128539  1
  K  K21  1  0.82011262  0.24792856  0.49370857  1
  K  K22  1  0.83559284  0.74364723  0.00219439  1
  K  K23  1  0.82334625  0.74803934  0.49780016  1
  Na  Na24  1  0.50105556  0.00247407  0.24744072  1
  Na  Na25  1  0.33612842  0.07951719  0.24552680  1
  Na  Na26  1  0.66131174  0.07960799  0.24959078  1
  Li  Li27  1  0.83116999  0.49882742  0.74890170  1
  Li  Li28  1  0.33730675  0.25381611  0.75355485  1
  Li  Li29  1  0.33145661  0.41879997  0.24957177  1
  Li  Li30  1  -0.00271049  0.91253965  0.75928157  1
  Li  Li31  1  0.16732266  0.83413273  0.24297963  1
  Mg  Mg32  1  0.49565196  0.50117366  0.25287501  1
  Mg  Mg33  1  0.50108863  0.49782044  0.74980931  1
  Mg  Mg34  1  -0.00216196  0.75035581  0.75252438  1
  Mg  Mg35  1  0.16216397  -0.00014627  0.74972042  1
  Mg  Mg36  1  0.16784800  0.49920243  0.25091989  1
  Mg  Mg37  1  0.16982868  -0.00297796  0.24709258  1
  Mg  Mg38  1  0.00086198  0.25106022  0.74698256  1
  Mg  Mg39  1  0.83117079  0.50072142  0.25608788  1
  Mg  Mg40  1  -0.00177629  0.24866606  0.25185577  1
  Mg  Mg41  1  0.16814539  0.49660901  0.74949690  1
  Mg  Mg42  1  0.00624356  0.75074520  0.25095584  1
  Mg  Mg43  1  0.66684403  0.25169026  0.74567412  1
  Mg  Mg44  1  0.83741072  -0.00324191  0.75273941  1
  Mg  Mg45  1  0.66786038  0.75109068  0.25149487  1
  Mg  Mg46  1  0.32884491  0.74976433  0.24849216  1
  Mg  Mg47  1  0.33045960  0.75035187  0.75079692  1
  Mg  Mg48  1  0.66349563  0.25073245  0.25109342  1
  Mg  Mg49  1  0.49840013  -0.00098935  0.74819426  1
  Mg  Mg50  1  0.83557711  -0.00110265  0.24839736  1
  Mg  Mg51  1  0.66697745  0.75013879  0.75271159  1
  Mg  Mg52  1  0.33234777  0.25277792  0.24920472  1
  Mg  Mg53  1  -0.00234848  0.58099571  0.74997868  1
  Mg  Mg54  1  0.82943166  0.33426817  0.25336997  1
  Mg  Mg55  1  0.16622052  0.33470487  0.24903705  1
  Mg  Mg56  1  0.66710091  0.41629480  0.74542675  1
  Mg  Mg57  1  0.66930403  0.91555447  0.25204373  1
  Mg  Mg58  1  0.16728832  0.66629325  0.24906371  1
  Mg  Mg59  1  0.32957363  0.91621563  0.74969288  1
  Mg  Mg60  1  0.49917417  0.33541583  0.74875933  1
  Mg  Mg61  1  0.49841535  0.83536234  0.24786779  1
  Mg  Mg62  1  0.16052597  0.83486196  0.75148730  1
  Mg  Mg63  1  0.16499399  0.66470640  0.74885230  1
  Mg  Mg64  1  0.83398129  0.66297248  0.75362571  1
  Mg  Mg65  1  0.33032627  0.91396535  0.24766400  1
  Mg  Mg66  1  0.17112704  0.16813379  0.75003121  1
  Mg  Mg67  1  0.33552514  0.58304281  0.75263640  1
  Mg  Mg68  1  0.16780723  0.16573113  0.24818980  1
  Mg  Mg69  1  0.17260663  0.33142121  0.74946497  1
  Mg  Mg70  1  0.50292878  0.66600308  0.75312565  1
  Mg  Mg71  1  0.49646108  0.33670692  0.25208755  1
  Mg  Mg72  1  0.50050705  0.83393119  0.75206058  1
  Mg  Mg73  1  0.32896189  0.58169435  0.25043519  1
  Mg  Mg74  1  -0.00106270  0.08303437  0.24732528  1
  Mg  Mg75  1  0.49814498  0.16706488  0.74788778  1
  Mg  Mg76  1  0.67076902  0.91581823  0.75343413  1
  Mg  Mg77  1  0.66853222  0.58515816  0.25705123  1
  Mg  Mg78  1  0.66686642  0.41795793  0.25508597  1
  Mg  Mg79  1  -0.00129960  0.41642815  0.74736376  1
  Mg  Mg80  1  0.83750941  0.83468560  0.75435968  1
  Mg  Mg81  1  0.00144709  0.08227134  0.74840204  1
  Mg  Mg82  1  0.83056397  0.33599232  0.74386437  1
  Mg  Mg83  1  0.83405439  0.16542407  0.74646407  1
  Mg  Mg84  1  0.00437404  0.91524827  0.24796815  1
  Mg  Mg85  1  0.66850349  0.08312608  0.74849212  1
  Mg  Mg86  1  0.33308767  0.08549460  0.74973688  1
  Mg  Mg87  1  0.83511383  0.66554438  0.25582082  1
  Mg  Mg88  1  0.00093352  0.58431318  0.25322293  1
  Mg  Mg89  1  0.82826927  0.16472973  0.25030116  1
  Mg  Mg90  1  0.49930400  0.16736510  0.24725698  1
  Mg  Mg91  1  0.83752722  0.83420304  0.24754946  1
  Mg  Mg92  1  0.49767516  0.66639675  0.25407075  1
  Mg  Mg93  1  0.33751461  0.41171450  0.74968484  1
  Mg  Mg94  1  -0.00228457  0.41480047  0.25345617  1
  Mg  Mg95  1  0.66855040  0.58333268  0.75117762  1
  Fe  Fe96  1  0.86141375  0.92004335  0.11001390  1
  Fe  Fe97  1  0.53167792  0.91445107  0.10992913  1
  Fe  Fe98  1  0.81297269  0.59087850  0.39694908  1
  Fe  Fe99  1  0.69562302  0.33128165  0.60344118  1
  Fe  Fe100  1  0.80658217  0.92100235  0.89374668  1
  Fe  Fe101  1  0.52255882  0.41984956  0.60532230  1
  Fe  Fe102  1  0.18949531  0.58063377  0.10884651  1
  Fe  Fe103  1  0.64713877  0.67191169  0.89138105  1
  Fe  Fe104  1  0.68611043  0.17339656  0.10890695  1
  Fe  Fe105  1  0.47731812  0.42225896  0.89261054  1
  Fe  Fe106  1  0.19954810  0.91913021  0.10707256  1
  Fe  Fe107  1  0.30863716  0.33147589  0.89037954  1
  Fe  Fe108  1  0.03108576  0.83487719  0.11096659  1
  Fe  Fe109  1  0.30515206  0.66490413  0.39090476  1
  Fe  Fe110  1  0.97378901  0.82640613  0.89395828  1
  Fe  Fe111  1  0.64310889  0.16767183  0.39145568  1
  Fe  Fe112  1  0.81031118  0.41857402  0.39512235  1
  Si  Si113  1  0.35744887  0.16200790  0.61306159  1
  Si  Si114  1  0.86708370  0.41698715  0.61059824  1
  Si  Si115  1  0.13690803  0.41302171  0.38692298  1
  Si  Si116  1  0.68533849  0.34123173  0.11397806  1
  Si  Si117  1  0.98309493  0.83606714  0.38742818  1
  Si  Si118  1  0.47635564  0.07817929  0.88321647  1
  Si  Si119  1  0.02637181  0.66501068  0.61382378  1
  Si  Si120  1  0.51521758  0.08753847  0.10410512  1
  Si  Si121  1  0.47301455  0.08803793  0.38853405  1
  Si  Si122  1  0.85910689  0.58083763  0.11890082  1
  Si  Si123  1  0.52249914  0.07837378  0.61253975  1
  Si  Si124  1  0.69338360  0.66301787  0.11898925  1
  Si  Si125  1  0.02520433  0.82923662  0.61425443  1
  Si  Si126  1  0.86211104  0.07879818  0.61310189  1
  Si  Si127  1  0.30258929  0.83450788  0.88475538  1
  Si  Si128  1  0.69157336  0.15713480  0.61019343  1
  Si  Si129  1  0.52286962  0.91245678  0.61414101  1
  Si  Si130  1  0.81529819  0.08933296  0.88515064  1
  Si  Si131  1  0.01936816  0.33050081  0.11558917  1
  Si  Si132  1  0.18761952  0.09124213  0.11064772  1
  Si  Si133  1  0.01916072  0.66650001  0.11318254  1
  Si  Si134  1  0.70047670  0.82729288  0.11269568  1
  Si  Si135  1  0.36471682  0.82785069  0.11098610  1
  Si  Si136  1  0.81598182  0.07714357  0.38808383  1
  Si  Si137  1  0.97904705  0.65692772  0.88794646  1
  Si  Si138  1  0.85977849  0.58420274  0.61584718  1
  Si  Si139  1  0.81274464  0.91066171  0.38713267  1
  Si  Si140  1  0.47030174  0.41602551  0.38410657  1
  Si  Si141  1  0.63722627  0.67107458  0.39208091  1
  Si  Si142  1  0.18707136  0.91741097  0.61361154  1
  Si  Si143  1  0.30676664  0.17183439  0.38516696  1
  Si  Si144  1  0.31246780  0.16169464  0.88632413  1
  Si  Si145  1  0.52173221  0.59116799  0.61274087  1
  Si  Si146  1  0.97488605  0.32529221  0.38992734  1
  Si  Si147  1  0.14262686  0.08563556  0.88400377  1
  Si  Si148  1  0.52713492  0.58683687  0.11967638  1
  Si  Si149  1  0.19336029  0.58112514  0.61407863  1
  Si  Si150  1  0.64005684  0.83694984  0.38715772  1
  Si  Si151  1  0.30255344  0.66752249  0.88489314  1
  Si  Si152  1  0.63912520  0.84154484  0.88815825  1
  Si  Si153  1  0.47462697  0.58048307  0.38992235  1
  Si  Si154  1  0.35922080  0.32838886  0.60958283  1
  Si  Si155  1  0.69390949  0.66809343  0.61524342  1
  Si  Si156  1  0.64235577  0.16334032  0.88188773  1
  Si  Si157  1  0.18371387  0.41180858  0.11204759  1
  Si  Si158  1  0.02197679  0.16690035  0.11437298  1
  Si  Si159  1  0.52179489  0.42379477  0.11847586  1
  Si  Si160  1  0.02508651  0.16795322  0.61313690  1
  Si  Si161  1  0.35736994  0.33737333  0.11594399  1
  Si  Si162  1  0.35327666  0.83493365  0.61471366  1
  Si  Si163  1  0.85699120  0.41678322  0.11736373  1
  Si  Si164  1  0.86036717  0.91394400  0.61493236  1
  Si  Si165  1  0.31040477  0.83512224  0.38804723  1
  Si  Si166  1  0.47407553  0.59282225  0.88958924  1
  Si  Si167  1  0.64253740  0.32935620  0.88616869  1
  Si  Si168  1  0.69246719  0.83413109  0.61470796  1
  Si  Si169  1  0.80787997  0.41109210  0.88220616  1
  Si  Si170  1  0.13950792  0.92014496  0.88560131  1
  Si  Si171  1  0.36124028  0.66435303  0.11399335  1
  Si  Si172  1  0.97903948  0.67371614  0.38987572  1
  Si  Si173  1  0.14564450  0.08430224  0.38475517  1
  Si  Si174  1  0.80965308  0.57691136  0.88795548  1
  Si  Si175  1  0.85540212  0.08898142  0.11094192  1
  Si  Si176  1  0.97411905  0.33580626  0.88128938  1
  Si  Si177  1  0.97825830  0.17226697  0.88208126  1
  Si  Si178  1  0.97884911  0.16043520  0.38614090  1
  Si  Si179  1  0.14457970  0.92168912  0.38522604  1
  Si  Si180  1  0.35745324  0.17473241  0.11206849  1
  Si  Si181  1  0.46986597  0.91340075  0.88361527  1
  Si  Si182  1  0.19643710  0.41480919  0.61266759  1
  Si  Si183  1  0.63699851  0.33866949  0.38898865  1
  Si  Si184  1  0.47187707  0.91883425  0.38464842  1
  Si  Si185  1  0.14269397  0.57748451  0.88266366  1
  Si  Si186  1  0.35566300  0.67039952  0.61625548  1
  Si  Si187  1  0.18986732  0.08287006  0.61349888  1
  Si  Si188  1  0.03095428  0.33430194  0.61308513  1
  Si  Si189  1  0.30451156  0.33546261  0.38455557  1
  Si  Si190  1  0.13511593  0.57883357  0.39008799  1
  Si  Si191  1  0.13827792  0.41372116  0.88395465  1
  O  O192  1  0.26606777  0.13518247  0.08512823  1
  O  O193  1  0.27002790  0.11604122  0.58317106  1
  O  O194  1  0.28945044  0.60899040  0.07859125  1
  O  O195  1  0.27186362  0.62128605  0.58622870  1
  O  O196  1  0.59062037  0.12095124  0.06863893  1
  O  O197  1  0.60507236  0.10847826  0.58480777  1
  O  O198  1  0.61222190  0.61083053  0.09055283  1
  O  O199  1  0.60275423  0.63038155  0.58562068  1
  O  O200  1  0.94606268  0.11144019  0.08560617  1
  O  O201  1  0.93725124  0.12370991  0.58391969  1
  O  O202  1  0.93878462  0.60952780  0.08739275  1
  O  O203  1  0.93673706  0.62455510  0.58478956  1
  O  O204  1  0.10211448  0.35650791  0.08500876  1
  O  O205  1  0.11136833  0.36774105  0.58310281  1
  O  O206  1  0.11944089  0.85364813  0.06812995  1
  O  O207  1  0.10011195  0.87315764  0.58364681  1
  O  O208  1  0.43682609  0.37706794  0.08828259  1
  O  O209  1  0.42936906  0.35930349  0.56999964  1
  O  O210  1  0.45101115  0.84247444  0.08207251  1
  O  O211  1  0.43495312  0.86752906  0.58570121  1
  O  O212  1  0.76963202  0.37466359  0.08665734  1
  O  O213  1  0.79240659  0.36715332  0.57309379  1
  O  O214  1  0.78726805  0.84228362  0.08507295  1
  O  O215  1  0.76776716  0.87645955  0.58427341  1
  O  O216  1  0.26789412  0.37831023  0.08580547  1
  O  O217  1  0.27060769  0.37469821  0.58140249  1
  O  O218  1  0.29436141  0.88387869  0.07478983  1
  O  O219  1  0.26821895  0.88231236  0.58504385  1
  O  O220  1  0.60545953  0.39762340  0.08890942  1
  O  O221  1  0.60790579  0.38792779  0.56313244  1
  O  O222  1  0.62662133  0.87987124  0.07575063  1
  O  O223  1  0.60106816  0.87384254  0.58496913  1
  O  O224  1  0.93638626  0.38130936  0.08653294  1
  O  O225  1  0.95368488  0.38821854  0.58377082  1
  O  O226  1  0.96011205  0.90881553  0.07809490  1
  O  O227  1  0.93392553  0.86820032  0.58500293  1
  O  O228  1  0.10483278  0.14456628  0.08257455  1
  O  O229  1  0.10357177  0.12901798  0.58353570  1
  O  O230  1  0.09570795  0.63893505  0.07687498  1
  O  O231  1  0.10384966  0.62302840  0.58522337  1
  O  O232  1  0.42673339  0.13496347  0.07471330  1
  O  O233  1  0.43563118  0.12342245  0.58198638  1
  O  O234  1  0.45144090  0.64208986  0.08886238  1
  O  O235  1  0.43976612  0.64616280  0.58753436  1
  O  O236  1  0.78823144  0.15032962  0.07943897  1
  O  O237  1  0.76955290  0.11301613  0.58359653  1
  O  O238  1  0.77421400  0.62824293  0.09036021  1
  O  O239  1  0.77068242  0.62692209  0.58597201  1
  O  O240  1  0.06593092  0.11627495  0.41620864  1
  O  O241  1  0.06062410  0.12136142  0.91157840  1
  O  O242  1  0.05532717  0.61642922  0.41878649  1
  O  O243  1  0.05781936  0.59913557  0.91109775  1
  O  O244  1  0.38930651  0.12339364  0.41643865  1
  O  O245  1  0.39294270  0.10578022  0.91157794  1
  O  O246  1  0.40076891  0.60979697  0.42717378  1
  O  O247  1  0.38371653  0.61791552  0.91404612  1
  O  O248  1  0.74350073  0.11309205  0.42263277  1
  O  O249  1  0.72899231  0.11870227  0.91083257  1
  O  O250  1  0.72159336  0.63325351  0.43068725  1
  O  O251  1  0.73592541  0.60730321  0.92552831  1
  O  O252  1  0.22620045  0.37170468  0.41651715  1
  O  O253  1  0.20492090  0.35584319  0.91930107  1
  O  O254  1  0.23135434  0.87765206  0.41583974  1
  O  O255  1  0.22460542  0.87067323  0.91374650  1
  O  O256  1  0.54614999  0.36051507  0.41272277  1
  O  O257  1  0.57213312  0.36246386  0.92419893  1
  O  O258  1  0.56597538  0.88291182  0.41585975  1
  O  O259  1  0.54495686  0.85684765  0.91005709  1
  O  O260  1  0.89923392  0.35181739  0.42551445  1
  O  O261  1  0.89089306  0.36027939  0.91170246  1
  O  O262  1  0.90017984  0.86513387  0.41867053  1
  O  O263  1  0.87868067  0.84894357  0.92884657  1
  O  O264  1  0.06370266  0.36978639  0.41797961  1
  O  O265  1  0.04741062  0.39500129  0.90871115  1
  O  O266  1  0.06450364  0.88837721  0.41793567  1
  O  O267  1  0.06245832  0.89346706  0.91892709  1
  O  O268  1  0.38677963  0.38586283  0.41290372  1
  O  O269  1  0.38878916  0.39432127  0.93331607  1
  O  O270  1  0.39868933  0.87985078  0.42048778  1
  O  O271  1  0.38649132  0.88366650  0.91155692  1
  O  O272  1  0.70532167  0.39935395  0.41943632  1
  O  O273  1  0.73186889  0.37338424  0.91443896  1
  O  O274  1  0.73360040  0.87342919  0.41799520  1
  O  O275  1  0.69667579  0.91040355  0.91411143  1
  O  O276  1  0.22788896  0.13415834  0.41600934  1
  O  O277  1  0.22759972  0.13131209  0.91450931  1
  O  O278  1  0.21892001  0.61885515  0.42772632  1
  O  O279  1  0.22011498  0.63335362  0.91166878  1
  O  O280  1  0.55610734  0.12523053  0.43173293  1
  O  O281  1  0.56198874  0.12582343  0.90967656  1
  O  O282  1  0.55753718  0.63109948  0.41832361  1
  O  O283  1  0.54243630  0.65448246  0.91766431  1
  O  O284  1  0.90624836  0.11970774  0.41959779  1
  O  O285  1  0.89240093  0.14901652  0.90969080  1
  O  O286  1  0.89964027  0.65868751  0.42593017  1
  O  O287  1  0.89918933  0.61962749  0.91631622  1
  O  O288  1  0.17560480  0.01526364  0.07231536  1
  O  O289  1  0.17423609  0.00007455  0.58445569  1
  O  O290  1  0.16062175  0.48710273  0.07396488  1
  O  O291  1  0.18518834  0.49854532  0.58386858  1
  O  O292  1  0.49712010  0.00602948  0.07477228  1
  O  O293  1  0.50764817  -0.00528097  0.58459809  1
  O  O294  1  0.50159122  0.50599977  0.09028751  1
  O  O295  1  0.49824107  0.51648896  0.57506947  1
  O  O296  1  0.82215035  0.01211203  0.08003396  1
  O  O297  1  0.86325378  -0.00389347  0.58391996  1
  O  O298  1  0.84246882  0.49892828  0.08850025  1
  O  O299  1  0.85385785  0.50221501  0.58657633  1
  O  O300  1  -0.00556273  0.24914843  0.08714066  1
  O  O301  1  0.01571573  0.25099278  0.58393898  1
  O  O302  1  -0.01578817  0.74361420  0.08494431  1
  O  O303  1  0.02157996  0.74705953  0.58282068  1
  O  O304  1  0.34795499  0.25748106  0.08090680  1
  O  O305  1  0.33914151  0.24347244  0.58373863  1
  O  O306  1  0.33477005  0.74483507  0.08501057  1
  O  O307  1  0.33371762  0.75260073  0.58724780  1
  O  O308  1  0.66186552  0.26783152  0.07404991  1
  O  O309  1  0.68024021  0.23357249  0.57417316  1
  O  O310  1  0.67236417  0.74266487  0.08793377  1
  O  O311  1  0.68924411  0.75132692  0.58519177  1
  O  O312  1  0.16175542  0.00359364  0.41776743  1
  O  O313  1  0.16033581  0.00394623  0.91179880  1
  O  O314  1  0.13929860  0.49429540  0.41795485  1
  O  O315  1  0.16786280  0.49607646  0.90986627  1
  O  O316  1  0.47497630  0.00177646  0.41367893  1
  O  O317  1  0.49392515  -0.00474468  0.91080680  1
  O  O318  1  0.49448038  0.49656742  0.41549818  1
  O  O319  1  0.50451009  0.51692885  0.92389772  1
  O  O320  1  0.82924289  -0.00730800  0.41749294  1
  O  O321  1  0.84674191  0.01493511  0.91995322  1
  O  O322  1  0.84824133  0.50439798  0.43564054  1
  O  O323  1  0.82714948  0.49198492  0.91340771  1
  O  O324  1  0.31813336  0.25395526  0.41783891  1
  O  O325  1  0.33771028  0.23700011  0.92238081  1
  O  O326  1  0.31905366  0.75878165  0.42777598  1
  O  O327  1  0.31588025  0.75106402  0.91209521  1
  O  O328  1  0.66390312  0.26193183  0.42397174  1
  O  O329  1  0.65855923  0.24461137  0.91179759  1
  O  O330  1  0.63816709  0.75575875  0.41975638  1
  O  O331  1  0.67527807  0.76621548  0.92106157  1
  O  O332  1  0.99683403  0.24182225  0.41612974  1
  O  O333  1  1.00234113  0.25454130  0.90974690  1
  O  O334  1  1.01213410  0.75557018  0.41616129  1
  O  O335  1  1.00780420  0.73166233  0.92353157  1
  O  O336  1  0.19813782  0.08617160  0.19031000  1
  O  O337  1  0.20910241  0.08312185  0.69364039  1
  O  O338  1  0.20716492  0.58002272  0.20016779  1
  O  O339  1  0.21054463  0.58254051  0.69439360  1
  O  O340  1  0.53238141  0.09472769  0.18313778  1
  O  O341  1  0.54055989  0.08065359  0.69293804  1
  O  O342  1  0.54480796  0.58570569  0.20019653  1
  O  O343  1  0.53999694  0.58621873  0.69350059  1
  O  O344  1  0.87671887  0.08704195  0.19290358  1
  O  O345  1  0.87928299  0.08199844  0.69338721  1
  O  O346  1  0.87766854  0.58135338  0.19924997  1
  O  O347  1  0.87912100  0.58687804  0.69538633  1
  O  O348  1  0.03850451  0.33271531  0.19616702  1
  O  O349  1  0.04717317  0.33268248  0.69345436  1
  O  O350  1  0.04544599  0.83162754  0.20198080  1
  O  O351  1  0.04591517  0.82722328  0.69345348  1
  O  O352  1  0.37498380  0.33513826  0.19535361  1
  O  O353  1  0.37952363  0.33368565  0.68923745  1
  O  O354  1  0.37695988  0.82796523  0.19249505  1
  O  O355  1  0.37276137  0.83500502  0.69503610  1
  O  O356  1  0.70646149  0.33762101  0.19467269  1
  O  O357  1  0.71089981  0.33198207  0.69620193  1
  O  O358  1  0.71384380  0.82856473  0.19446396  1
  O  O359  1  0.70801854  0.83337032  0.69473088  1
  O  O360  1  0.19841267  0.41530886  0.19218655  1
  O  O361  1  0.21111234  0.41719452  0.69260523  1
  O  O362  1  0.20994960  0.91654361  0.19734916  1
  O  O363  1  0.20669587  0.91627670  0.69387556  1
  O  O364  1  0.54163830  0.42078758  0.19855649  1
  O  O365  1  0.54567379  0.41688957  0.69772913  1
  O  O366  1  0.55397548  0.90833600  0.20000155  1
  O  O367  1  0.54116848  0.91463959  0.69450361  1
  O  O368  1  0.87748963  0.41553252  0.19751839  1
  O  O369  1  0.88218486  0.41229771  0.69071491  1
  O  O370  1  0.88268172  0.91704287  0.20247089  1
  O  O371  1  0.87452725  0.91592386  0.69396170  1
  O  O372  1  0.04141260  0.16838601  0.19521483  1
  O  O373  1  0.04370459  0.16698201  0.69324287  1
  O  O374  1  0.04124741  0.66259490  0.19487317  1
  O  O375  1  0.04415925  0.66500772  0.69428849  1
  O  O376  1  0.37842915  0.17836058  0.19128963  1
  O  O377  1  0.37848874  0.15900486  0.69250094  1
  O  O378  1  0.37833604  0.66378532  0.19492320  1
  O  O379  1  0.37309639  0.66862214  0.69658414  1
  O  O380  1  0.71378321  0.17634837  0.19885272  1
  O  O381  1  0.71060972  0.16175997  0.69129655  1
  O  O382  1  0.71073689  0.66540030  0.19935053  1
  O  O383  1  0.71193838  0.66785330  0.69518160  1
  O  O384  1  0.12531771  0.08559569  0.30492157  1
  O  O385  1  0.12405558  0.08615568  0.80320055  1
  O  O386  1  0.12034502  0.57898699  0.30961195  1
  O  O387  1  0.12504747  0.58081105  0.80191508  1
  O  O388  1  0.46258257  0.09445166  0.31045248  1
  O  O389  1  0.45705825  0.08042439  0.80243621  1
  O  O390  1  0.45572348  0.58360942  0.30912490  1
  O  O391  1  0.45514460  0.58751692  0.80744920  1
  O  O392  1  0.80449031  0.07963325  0.30874414  1
  O  O393  1  0.79355897  0.08584313  0.80364812  1
  O  O394  1  0.78951195  0.58462866  0.30457635  1
  O  O395  1  0.78874408  0.58414160  0.80789867  1
  O  O396  1  0.28387689  0.33224132  0.30523685  1
  O  O397  1  0.28844079  0.33444203  0.79864773  1
  O  O398  1  0.29588124  0.83061887  0.30868344  1
  O  O399  1  0.28625094  0.83370598  0.80363132  1
  O  O400  1  0.62123457  0.33721417  0.30738641  1
  O  O401  1  0.62409917  0.33057713  0.80548450  1
  O  O402  1  0.62609397  0.83046603  0.30783204  1
  O  O403  1  0.62120824  0.83574683  0.80567309  1
  O  O404  1  0.95728753  0.33079938  0.30899896  1
  O  O405  1  0.95602835  0.33269377  0.80077249  1
  O  O406  1  0.96075989  0.83383799  0.30806361  1
  O  O407  1  0.95529124  0.82829117  0.80181664  1
  O  O408  1  0.12008734  0.41351229  0.30661499  1
  O  O409  1  0.12256763  0.41445929  0.80259609  1
  O  O410  1  0.12077859  0.92396650  0.30678965  1
  O  O411  1  0.12632721  0.91847642  0.80481979  1
  O  O412  1  0.45525725  0.41874896  0.30470067  1
  O  O413  1  0.45525372  0.41753467  0.79997184  1
  O  O414  1  0.45126918  0.90929635  0.30631764  1
  O  O415  1  0.45188705  0.91612960  0.80247225  1
  O  O416  1  0.78934313  0.41705592  0.30215736  1
  O  O417  1  0.78939720  0.41230388  0.80268678  1
  O  O418  1  0.79492568  0.91061593  0.30762789  1
  O  O419  1  0.78957020  0.91737405  0.80025716  1
  O  O420  1  0.28485514  0.17524021  0.30604293  1
  O  O421  1  0.29002047  0.16154594  0.80575360  1
  O  O422  1  0.28933087  0.66572186  0.30035371  1
  O  O423  1  0.28651649  0.66738710  0.80389574  1
  O  O424  1  0.61560498  0.17541933  0.30245164  1
  O  O425  1  0.62363020  0.16414157  0.80103930  1
  O  O426  1  0.62380066  0.66841141  0.31125114  1
  O  O427  1  0.62327837  0.66753867  0.79913710  1
  O  O428  1  0.95910992  0.16418189  0.30595124  1
  O  O429  1  0.95967552  0.16847581  0.80144387  1
  O  O430  1  0.95886548  0.66743873  0.30920073  1
  O  O431  1  0.95893086  0.66191870  0.80659356  1
  F  F432  1  0.04626444  0.00282977  0.20230001  1
  F  F433  1  0.04870740  0.00688478  0.69589214  1
  F  F434  1  0.04215659  0.49767963  0.20551859  1
  F  F435  1  0.04776470  0.49973671  0.69886683  1
  F  F436  1  0.36792181  -0.01359440  0.19047862  1
  F  F437  1  0.37562885  -0.00177803  0.69953243  1
  F  F438  1  0.37952919  0.50448541  0.20170949  1
  F  F439  1  0.37654399  0.50358462  0.70095136  1
  F  F440  1  0.71937538  -0.01027432  0.20126257  1
  F  F441  1  0.71190345  0.00043816  0.70048904  1
  F  F442  1  0.70897600  0.50213979  0.20378210  1
  F  F443  1  0.70898324  0.50270539  0.70039544  1
  F  F444  1  0.20846458  0.25160455  0.20008373  1
  F  F445  1  0.20349334  0.24708108  0.69599725  1
  F  F446  1  0.21069999  0.74626668  0.19968503  1
  F  F447  1  0.21018224  0.75045828  0.70084518  1
  F  F448  1  0.54251116  0.25947497  0.20088150  1
  F  F449  1  0.54592160  0.24709667  0.69878518  1
  F  F450  1  0.54736502  0.74593100  0.20613895  1
  F  F451  1  0.54234906  0.75305836  0.70118940  1
  F  F452  1  0.87902271  0.25224110  0.20594406  1
  F  F453  1  0.88042285  0.24785643  0.69790895  1
  F  F454  1  0.88131290  0.74593559  0.20725684  1
  F  F455  1  0.87705933  0.74617506  0.70130412  1
  F  F456  1  0.28437665  -0.00691690  0.30409078  1
  F  F457  1  0.28611664  -0.00006039  0.79522264  1
  F  F458  1  0.28533435  0.49874023  0.30153243  1
  F  F459  1  0.28719352  0.50048759  0.79673192  1
  F  F460  1  0.63823323  -0.01381949  0.31596117  1
  F  F461  1  0.61874336  0.00114938  0.79420359  1
  F  F462  1  0.61886528  0.50243999  0.30101238  1
  F  F463  1  0.62252798  0.50091480  0.79810764  1
  F  F464  1  0.95909546  0.00307812  0.29970408  1
  F  F465  1  0.95693869  0.00522218  0.79775838  1
  F  F466  1  0.95523708  0.49865991  0.30146550  1
  F  F467  1  0.96009238  0.49759595  0.79649908  1
  F  F468  1  0.11981995  0.25029535  0.29753056  1
  F  F469  1  0.12052837  0.24894776  0.79667902  1
  F  F470  1  0.12088482  0.73870679  0.30443684  1
  F  F471  1  0.12255619  0.74726248  0.79769669  1
  F  F472  1  0.45075895  0.25484198  0.29899230  1
  F  F473  1  0.46021933  0.24826599  0.79589824  1
  F  F474  1  0.45416676  0.74949419  0.29900238  1
  F  F475  1  0.45055838  0.75205227  0.79657793  1
  F  F476  1  0.78989781  0.25180569  0.30220645  1
  F  F477  1  0.79014229  0.24726581  0.79401749  1
  F  F478  1  0.78940214  0.75094162  0.30064820  1
  F  F479  1  0.78802998  0.74904994  0.79726342  1
