# generated using pymatgen
data_K24Na3Li5Mg64Fe17Si79(O5F)48
_symmetry_space_group_name_H-M   'P 1'
_cell_length_a   16.12278048
_cell_length_b   18.59793797
_cell_length_c   20.56803258
_cell_angle_alpha   89.99576684
_cell_angle_beta   100.00331384
_cell_angle_gamma   90.00440794
_symmetry_Int_Tables_number   1
_chemical_formula_structural   K24Na3Li5Mg64Fe17Si79(O5F)48
_chemical_formula_sum   'K24 Na3 Li5 Mg64 Fe17 Si79 O240 F48'
_cell_volume   6073.57661939
_cell_formula_units_Z   1
loop_
 _symmetry_equiv_pos_site_id
 _symmetry_equiv_pos_as_xyz
  1  'x, y, z'
loop_
 _atom_site_type_symbol
 _atom_site_label
 _atom_site_symmetry_multiplicity
 _atom_site_fract_x
 _atom_site_fract_y
 _atom_site_fract_z
 _atom_site_occupancy
  K  K0  1  0.00775276  0.00042228  0.01014016  1
  K  K1  1  0.01218060  -0.00463680  0.49349729  1
  K  K2  1  0.00620696  0.50027365  0.00714991  1
  K  K3  1  -0.00256236  0.50595122  0.49361098  1
  K  K4  1  0.32640996  -0.00814916  -0.00406663  1
  K  K5  1  0.31390672  -0.01005166  0.50002862  1
  K  K6  1  0.33646186  0.49912523  0.00756453  1
  K  K7  1  0.34515876  0.50031148  0.50117156  1
  K  K8  1  0.66307939  -0.00583304  0.00163363  1
  K  K9  1  0.66171179  -0.00319958  0.49569130  1
  K  K10  1  0.66271317  0.50836544  0.00146105  1
  K  K11  1  0.66573744  0.51161578  0.49853309  1
  K  K12  1  0.18057419  0.25996126  0.00908290  1
  K  K13  1  0.18137356  0.24711003  0.50077859  1
  K  K14  1  0.17594526  0.74682147  0.00417083  1
  K  K15  1  0.17762106  0.75262148  0.50005255  1
  K  K16  1  0.48417885  0.25302514  -0.00176489  1
  K  K17  1  0.47814925  0.26128576  0.49621158  1
  K  K18  1  0.48905426  0.74822633  -0.00468445  1
  K  K19  1  0.48680885  0.74347832  0.49989745  1
  K  K20  1  0.84034134  0.25404158  0.00656139  1
  K  K21  1  0.83750162  0.25400737  0.49530670  1
  K  K22  1  0.83292229  0.73894551  0.01125217  1
  K  K23  1  0.83516487  0.74066989  0.48675245  1
  Na  Na24  1  0.49937000  0.50366095  0.74817879  1
  Na  Na25  1  0.83482591  0.82728576  0.24569620  1
  Na  Na26  1  0.83457020  0.66879152  0.25180975  1
  Li  Li27  1  0.34277289  0.74701876  0.75642453  1
  Li  Li28  1  0.32795886  0.25276722  0.24757993  1
  Li  Li29  1  0.49475464  0.66540654  0.75470205  1
  Li  Li30  1  0.33365655  0.58018300  0.25275297  1
  Li  Li31  1  0.00071861  0.08022631  0.24441705  1
  Mg  Mg32  1  0.49686662  -0.00068367  0.75416790  1
  Mg  Mg33  1  0.16994198  0.50046980  0.24840127  1
  Mg  Mg34  1  0.66695310  0.24832598  0.25325087  1
  Mg  Mg35  1  -0.00008920  0.75102498  0.74801994  1
  Mg  Mg36  1  0.83809866  -0.00127395  0.24708568  1
  Mg  Mg37  1  0.49754963  0.49846093  0.25381855  1
  Mg  Mg38  1  0.66267945  0.74813793  0.75035445  1
  Mg  Mg39  1  0.83198705  0.50392133  0.75085223  1
  Mg  Mg40  1  0.83353879  0.49943452  0.25167527  1
  Mg  Mg41  1  0.33267964  0.25344999  0.74897012  1
  Mg  Mg42  1  0.00283604  0.74848694  0.24553291  1
  Mg  Mg43  1  0.16510264  -0.00029029  0.24688253  1
  Mg  Mg44  1  0.16622012  0.50196076  0.75072520  1
  Mg  Mg45  1  0.00096879  0.24754370  0.24638886  1
  Mg  Mg46  1  0.33375461  0.74671096  0.25348125  1
  Mg  Mg47  1  0.50016514  -0.00019168  0.25147385  1
  Mg  Mg48  1  0.66747174  0.74969371  0.25297581  1
  Mg  Mg49  1  -0.00093236  0.25070211  0.74601733  1
  Mg  Mg50  1  0.16989371  -0.00089245  0.74622950  1
  Mg  Mg51  1  0.83211648  0.00053086  0.74867290  1
  Mg  Mg52  1  0.66478910  0.25110527  0.75185377  1
  Mg  Mg53  1  0.16719054  0.33635417  0.74890909  1
  Mg  Mg54  1  0.16847623  0.83406766  0.24698748  1
  Mg  Mg55  1  0.83232579  0.83524422  0.74890219  1
  Mg  Mg56  1  0.00183218  0.91680920  0.74683764  1
  Mg  Mg57  1  0.66610109  0.58608164  0.75308426  1
  Mg  Mg58  1  0.33505899  0.41511741  0.25121865  1
  Mg  Mg59  1  0.49586532  0.16727284  0.24924577  1
  Mg  Mg60  1  0.66806170  0.58370651  0.25322761  1
  Mg  Mg61  1  0.49829583  0.33742604  0.74993417  1
  Mg  Mg62  1  0.83578987  0.16347299  0.24790290  1
  Mg  Mg63  1  0.16884388  0.16600384  0.74728150  1
  Mg  Mg64  1  0.16459140  0.16653621  0.24416934  1
  Mg  Mg65  1  0.83194383  0.33449388  0.74909693  1
  Mg  Mg66  1  0.83235289  0.66646025  0.74994952  1
  Mg  Mg67  1  0.49983338  0.83409163  0.25340141  1
  Mg  Mg68  1  0.66682509  0.41858631  0.75071258  1
  Mg  Mg69  1  0.66404546  0.08487081  0.75230006  1
  Mg  Mg70  1  0.00078027  0.08490162  0.74501316  1
  Mg  Mg71  1  -0.00101348  0.41499985  0.24733617  1
  Mg  Mg72  1  0.00028621  0.58441077  0.25137595  1
  Mg  Mg73  1  0.17138291  0.83254401  0.74741359  1
  Mg  Mg74  1  -0.00203047  0.58611575  0.75102005  1
  Mg  Mg75  1  0.49616033  0.16626473  0.74941221  1
  Mg  Mg76  1  0.33203829  0.91081950  0.74957369  1
  Mg  Mg77  1  0.66997373  0.91481272  0.24862080  1
  Mg  Mg78  1  0.33229181  0.08380275  0.74835898  1
  Mg  Mg79  1  0.49740059  0.33173538  0.25554209  1
  Mg  Mg80  1  -0.00212264  0.41762191  0.74958885  1
  Mg  Mg81  1  0.33155373  0.91486165  0.25082859  1
  Mg  Mg82  1  0.17021727  0.66889708  0.75218068  1
  Mg  Mg83  1  0.49724495  0.82964227  0.75243280  1
  Mg  Mg84  1  0.83364208  0.33214957  0.25069082  1
  Mg  Mg85  1  0.33048513  0.08533345  0.24631465  1
  Mg  Mg86  1  0.66413922  0.91614977  0.75078293  1
  Mg  Mg87  1  0.66687238  0.41467935  0.25557477  1
  Mg  Mg88  1  0.33435045  0.41715982  0.75099728  1
  Mg  Mg89  1  0.16911151  0.66447594  0.25090619  1
  Mg  Mg90  1  0.83196075  0.16583809  0.74850419  1
  Mg  Mg91  1  0.66780137  0.08219657  0.24945254  1
  Mg  Mg92  1  0.33582143  0.58588815  0.75252670  1
  Mg  Mg93  1  -0.00056703  0.91686124  0.24499446  1
  Mg  Mg94  1  0.49970223  0.66414150  0.25576277  1
  Mg  Mg95  1  0.16682483  0.33334188  0.24648695  1
  Fe  Fe96  1  0.18952018  0.08400013  0.60595723  1
  Fe  Fe97  1  0.02437165  0.33592659  0.10837861  1
  Fe  Fe98  1  0.81217298  0.58510171  0.89194332  1
  Fe  Fe99  1  0.81109282  0.58315557  0.39288158  1
  Fe  Fe100  1  0.19479602  0.91212593  0.10840791  1
  Fe  Fe101  1  0.35889865  0.34179343  0.60834633  1
  Fe  Fe102  1  0.85440546  0.58300685  0.60971030  1
  Fe  Fe103  1  0.30992244  0.83062250  0.39166907  1
  Fe  Fe104  1  0.30827999  0.33933554  0.89022315  1
  Fe  Fe105  1  0.02095791  0.66305024  0.10972548  1
  Fe  Fe106  1  0.18936128  0.90867489  0.60576199  1
  Fe  Fe107  1  0.84901946  0.57845211  0.11108656  1
  Fe  Fe108  1  0.36461644  0.33269524  0.11444260  1
  Fe  Fe109  1  0.30673713  0.82796966  0.89022823  1
  Fe  Fe110  1  0.85567588  0.91770847  0.10581999  1
  Fe  Fe111  1  0.47415994  0.08415020  0.89031244  1
  Fe  Fe112  1  0.47805056  0.41514305  0.39520658  1
  Si  Si113  1  0.14385197  0.57875009  0.38790228  1
  Si  Si114  1  0.02548763  0.66440910  0.61478072  1
  Si  Si115  1  0.80581976  0.08411660  0.88446848  1
  Si  Si116  1  0.85831491  0.08577665  0.61218047  1
  Si  Si117  1  0.47447910  0.08691727  0.38496045  1
  Si  Si118  1  0.02448381  0.83233709  0.10756049  1
  Si  Si119  1  0.47885971  0.92070802  0.38955349  1
  Si  Si120  1  0.53429475  0.41496457  0.11744881  1
  Si  Si121  1  0.85125101  0.08642090  0.10997287  1
  Si  Si122  1  0.13843747  0.91972903  0.38472575  1
  Si  Si123  1  0.47524601  0.58494106  0.88658874  1
  Si  Si124  1  0.02180833  0.16613581  0.10984550  1
  Si  Si125  1  0.35825277  0.16229148  0.11150124  1
  Si  Si126  1  0.80980595  0.41120387  0.38993866  1
  Si  Si127  1  0.69018481  0.16333953  0.61478692  1
  Si  Si128  1  0.02107095  0.33983082  0.61330145  1
  Si  Si129  1  0.29999752  0.33346653  0.38594276  1
  Si  Si130  1  0.30563586  0.16658008  0.38124046  1
  Si  Si131  1  0.81171766  0.91641781  0.38343525  1
  Si  Si132  1  0.69044041  0.84125829  0.61466605  1
  Si  Si133  1  0.64341738  0.17184337  0.88827634  1
  Si  Si134  1  0.97520339  0.16534061  0.38209399  1
  Si  Si135  1  0.13051937  0.41788406  0.88659862  1
  Si  Si136  1  0.81135661  0.41441338  0.88569899  1
  Si  Si137  1  0.68893759  0.67683847  0.61130129  1
  Si  Si138  1  0.18896551  0.08248603  0.10920911  1
  Si  Si139  1  0.36807807  0.83031329  0.11492160  1
  Si  Si140  1  0.13582960  0.41407149  0.38503015  1
  Si  Si141  1  0.68801596  0.16741238  0.11556550  1
  Si  Si142  1  0.64338450  0.83100800  0.88582699  1
  Si  Si143  1  0.97235036  0.16367288  0.88186796  1
  Si  Si144  1  0.18478484  0.42495507  0.61157864  1
  Si  Si145  1  0.68063800  0.66989631  0.11494074  1
  Si  Si146  1  0.52920459  0.91626927  0.11663950  1
  Si  Si147  1  0.52473829  0.08103915  0.11518112  1
  Si  Si148  1  0.30857080  0.66032242  0.38950141  1
  Si  Si149  1  0.30807284  0.65627371  0.89129655  1
  Si  Si150  1  0.68572753  0.83050120  0.11267693  1
  Si  Si151  1  0.13749771  0.92070728  0.88395449  1
  Si  Si152  1  0.02104495  0.17375007  0.60922611  1
  Si  Si153  1  0.84942294  0.41278591  0.11326733  1
  Si  Si154  1  0.69374993  0.32791426  0.61513393  1
  Si  Si155  1  0.13686923  0.08543003  0.88136839  1
  Si  Si156  1  0.80541149  0.91789006  0.88426467  1
  Si  Si157  1  0.64485079  0.83936279  0.38646191  1
  Si  Si158  1  0.97937237  0.83398690  0.38275169  1
  Si  Si159  1  0.19603191  0.42193308  0.11061218  1
  Si  Si160  1  0.36370563  0.66167273  0.61852998  1
  Si  Si161  1  0.36664593  0.82812910  0.61379465  1
  Si  Si162  1  0.64556289  0.16094936  0.38562547  1
  Si  Si163  1  0.64557230  0.32551249  0.39097594  1
  Si  Si164  1  0.30311856  0.16612058  0.88713405  1
  Si  Si165  1  0.53687843  0.41965937  0.61259225  1
  Si  Si166  1  0.48001050  0.91397320  0.89028565  1
  Si  Si167  1  0.85225581  0.41383108  0.61369171  1
  Si  Si168  1  0.97932442  0.67751675  0.88691133  1
  Si  Si169  1  0.69235893  0.32964005  0.11911755  1
  Si  Si170  1  0.53269108  0.58746541  0.61681334  1
  Si  Si171  1  0.52465704  0.91876145  0.61683428  1
  Si  Si172  1  0.36206146  0.16798051  0.60903696  1
  Si  Si173  1  0.96976235  0.32795278  0.88222878  1
  Si  Si174  1  0.13731060  0.58348562  0.88607058  1
  Si  Si175  1  0.19527953  0.58795646  0.11523723  1
  Si  Si176  1  0.63913250  0.67310124  0.39017273  1
  Si  Si177  1  0.01744851  0.82792685  0.61084714  1
  Si  Si178  1  0.81204421  0.07954060  0.38482480  1
  Si  Si179  1  0.98640775  0.66997026  0.38999671  1
  Si  Si180  1  0.85767000  0.91931408  0.61245476  1
  Si  Si181  1  0.47963561  0.58532368  0.39055095  1
  Si  Si182  1  0.14150768  0.08507106  0.38003872  1
  Si  Si183  1  0.52620295  0.58012968  0.11901697  1
  Si  Si184  1  0.52645917  0.08287175  0.61559208  1
  Si  Si185  1  0.97334682  0.84163378  0.88268807  1
  Si  Si186  1  0.64053550  0.66678398  0.88844551  1
  Si  Si187  1  0.36466026  0.66466992  0.12040086  1
  Si  Si188  1  0.64432878  0.33688791  0.88594712  1
  Si  Si189  1  0.97315743  0.32863709  0.38479051  1
  Si  Si190  1  0.19247474  0.59011152  0.61652563  1
  Si  Si191  1  0.47986988  0.41989595  0.88937345  1
  O  O192  1  0.27249950  0.11541657  0.08250648  1
  O  O193  1  0.28718644  0.11513358  0.57494424  1
  O  O194  1  0.28154208  0.61785226  0.08962408  1
  O  O195  1  0.27403380  0.62023786  0.58620201  1
  O  O196  1  0.60744050  0.11418341  0.08741632  1
  O  O197  1  0.61043528  0.11094000  0.58594180  1
  O  O198  1  0.60104877  0.61553230  0.08510535  1
  O  O199  1  0.60020937  0.63440181  0.58135596  1
  O  O200  1  0.93633806  0.11647919  0.08315840  1
  O  O201  1  0.93233299  0.12776253  0.58224952  1
  O  O202  1  0.93849138  0.59990027  0.06955033  1
  O  O203  1  0.95640789  0.60622745  0.58125396  1
  O  O204  1  0.11522877  0.37520884  0.07465633  1
  O  O205  1  0.09790197  0.37737555  0.58317728  1
  O  O206  1  0.10981121  0.84751825  0.07588019  1
  O  O207  1  0.09236500  0.85188746  0.57368545  1
  O  O208  1  0.46131053  0.36273548  0.08125898  1
  O  O209  1  0.45049201  0.38345081  0.57496507  1
  O  O210  1  0.45307826  0.86073646  0.08832004  1
  O  O211  1  0.44843058  0.86521713  0.58536355  1
  O  O212  1  0.77891973  0.34637422  0.09123568  1
  O  O213  1  0.78055055  0.35065594  0.58868536  1
  O  O214  1  0.76512126  0.85208291  0.07846541  1
  O  O215  1  0.76809186  0.87904113  0.58370130  1
  O  O216  1  0.27752316  0.39564995  0.08016093  1
  O  O217  1  0.25896495  0.39395669  0.57608131  1
  O  O218  1  0.29155195  0.87835378  0.07747880  1
  O  O219  1  0.28289315  0.86706482  0.57512252  1
  O  O220  1  0.62166374  0.38993743  0.09070934  1
  O  O221  1  0.61708828  0.38105453  0.58370998  1
  O  O222  1  0.61005463  0.88985648  0.08488213  1
  O  O223  1  0.60915324  0.89305304  0.58742328  1
  O  O224  1  0.92843606  0.39220896  0.07743646  1
  O  O225  1  0.93662645  0.38690949  0.58477758  1
  O  O226  1  0.95571129  0.89392866  0.07640604  1
  O  O227  1  0.93263225  0.87874691  0.58302695  1
  O  O228  1  0.10397983  0.13136775  0.08179696  1
  O  O229  1  0.09545678  0.14589206  0.57352241  1
  O  O230  1  0.12082433  0.63854419  0.07746995  1
  O  O231  1  0.11465371  0.64553441  0.58846950  1
  O  O232  1  0.44008009  0.12538582  0.08338675  1
  O  O233  1  0.45059886  0.13709457  0.58589553  1
  O  O234  1  0.44092580  0.62569068  0.08938682  1
  O  O235  1  0.43717665  0.61811574  0.58647347  1
  O  O236  1  0.77127041  0.14452552  0.08439459  1
  O  O237  1  0.77015784  0.12929693  0.58447109  1
  O  O238  1  0.76043152  0.64542488  0.08313754  1
  O  O239  1  0.76549660  0.64689237  0.57749487  1
  O  O240  1  0.06382070  0.12370406  0.41052559  1
  O  O241  1  0.05284001  0.11290814  0.91053784  1
  O  O242  1  0.07510995  0.62578873  0.42092773  1
  O  O243  1  0.06752508  0.63338162  0.91409380  1
  O  O244  1  0.39753878  0.12827773  0.41275707  1
  O  O245  1  0.37375552  0.10811507  0.91982372  1
  O  O246  1  0.39662159  0.61691800  0.41791504  1
  O  O247  1  0.39405804  0.60897312  0.92134501  1
  O  O248  1  0.73022190  0.11204239  0.41478158  1
  O  O249  1  0.72898833  0.12190707  0.91417616  1
  O  O250  1  0.72150505  0.62977942  0.42571579  1
  O  O251  1  0.71610442  0.61583075  0.92509832  1
  O  O252  1  0.21836853  0.36598863  0.41648664  1
  O  O253  1  0.21394542  0.37721092  0.92250042  1
  O  O254  1  0.22131048  0.87853750  0.42224953  1
  O  O255  1  0.21185852  0.87014644  0.92028605  1
  O  O256  1  0.57097298  0.35380361  0.42705303  1
  O  O257  1  0.56556930  0.36992612  0.91686408  1
  O  O258  1  0.57395510  0.88665548  0.41696991  1
  O  O259  1  0.56361653  0.86157585  0.91601915  1
  O  O260  1  0.89452029  0.36095684  0.41650329  1
  O  O261  1  0.88478389  0.35219779  0.90967529  1
  O  O262  1  0.89604318  0.86818159  0.41009011  1
  O  O263  1  0.88991526  0.87076813  0.91134190  1
  O  O264  1  0.05708688  0.37594309  0.41428546  1
  O  O265  1  0.04836647  0.37980629  0.91182263  1
  O  O266  1  0.05704759  0.88757871  0.41478021  1
  O  O267  1  0.04789324  0.89951974  0.90913127  1
  O  O268  1  0.38219849  0.37565196  0.42393748  1
  O  O269  1  0.40500103  0.39302988  0.92691905  1
  O  O270  1  0.41194105  0.88007745  0.42606074  1
  O  O271  1  0.40384576  0.88284472  0.92429466  1
  O  O272  1  0.73394750  0.36851041  0.41907264  1
  O  O273  1  0.72750191  0.38565754  0.91409279  1
  O  O274  1  0.73468248  0.88013594  0.41622017  1
  O  O275  1  0.72613668  0.88300292  0.91322660  1
  O  O276  1  0.23053562  0.12568414  0.41288995  1
  O  O277  1  0.21268943  0.14044064  0.91000226  1
  O  O278  1  0.23656357  0.61172394  0.41845096  1
  O  O279  1  0.23091673  0.61236911  0.91925929  1
  O  O280  1  0.56487962  0.12737105  0.41501464  1
  O  O281  1  0.56702559  0.14582138  0.92322077  1
  O  O282  1  0.55598997  0.64323349  0.41891327  1
  O  O283  1  0.55366364  0.64038287  0.91514183  1
  O  O284  1  0.89742672  0.12677116  0.41372922  1
  O  O285  1  0.89174523  0.13051053  0.91142268  1
  O  O286  1  0.91227697  0.63450936  0.42376669  1
  O  O287  1  0.90273100  0.64878752  0.92037092  1
  O  O288  1  0.17053423  0.00532277  0.07348330  1
  O  O289  1  0.16376003  -0.00324799  0.56500109  1
  O  O290  1  0.17901255  0.50600235  0.08499033  1
  O  O291  1  0.16527334  0.50931047  0.58642691  1
  O  O292  1  0.50934881  -0.00167554  0.08746711  1
  O  O293  1  0.50582393  0.00098586  0.58699842  1
  O  O294  1  0.51441447  0.49789742  0.08974064  1
  O  O295  1  0.53780035  0.50453036  0.58867795  1
  O  O296  1  0.82285435  0.01202983  0.07197463  1
  O  O297  1  0.84888342  0.00287182  0.58354719  1
  O  O298  1  0.80443106  0.48619651  0.08384648  1
  O  O299  1  0.81949762  0.48904045  0.58079054  1
  O  O300  1  0.00230854  0.24267070  0.07245948  1
  O  O301  1  -0.00022453  0.25789893  0.58468373  1
  O  O302  1  -0.01271218  0.75503608  0.07891245  1
  O  O303  1  -0.00924913  0.74477067  0.58794256  1
  O  O304  1  0.34366656  0.24011127  0.07730196  1
  O  O305  1  0.34724871  0.24705381  0.57499150  1
  O  O306  1  0.35640006  0.74630571  0.08847358  1
  O  O307  1  0.36341154  0.74355898  0.58735429  1
  O  O308  1  0.66014832  0.24932967  0.09009020  1
  O  O309  1  0.67228223  0.24526555  0.58648557  1
  O  O310  1  0.64930657  0.75071450  0.08562816  1
  O  O311  1  0.67156484  0.76111631  0.58423342  1
  O  O312  1  0.14687017  0.00402134  0.41132207  1
  O  O313  1  0.15744216  0.00442373  0.91024574  1
  O  O314  1  0.14284413  0.49562862  0.41714083  1
  O  O315  1  0.12810865  0.50141586  0.91322553  1
  O  O316  1  0.48629325  0.00550659  0.41603523  1
  O  O317  1  0.50983025  -0.00747044  0.92089081  1
  O  O318  1  0.50287862  0.50913216  0.42807937  1
  O  O319  1  0.50521780  0.50338843  0.91436092  1
  O  O320  1  0.82763113  -0.00168505  0.41678948  1
  O  O321  1  0.81864544  0.00122414  0.91204914  1
  O  O322  1  0.82541046  0.48764934  0.42667017  1
  O  O323  1  0.84305683  0.48961237  0.91919273  1
  O  O324  1  0.30961773  0.24823724  0.41199895  1
  O  O325  1  0.32523821  0.24430963  0.92057719  1
  O  O326  1  0.31558232  0.73712931  0.42801918  1
  O  O327  1  0.31897681  0.73406865  0.92720022  1
  O  O328  1  0.66703180  0.24104106  0.41634379  1
  O  O329  1  0.66835617  0.25486038  0.91357870  1
  O  O330  1  0.64902833  0.75805543  0.41685819  1
  O  O331  1  0.66236971  0.75036053  0.91612193  1
  O  O332  1  0.98596996  0.24645618  0.41535969  1
  O  O333  1  0.99019683  0.24554035  0.90981503  1
  O  O334  1  0.99788334  0.75450597  0.41797048  1
  O  O335  1  1.00002922  0.76177923  0.91141975  1
  O  O336  1  0.20892704  0.08285397  0.19017337  1
  O  O337  1  0.21009927  0.08429120  0.69877332  1
  O  O338  1  0.20866003  0.58437082  0.19530274  1
  O  O339  1  0.20848006  0.58593425  0.69678098  1
  O  O340  1  0.54347282  0.08287197  0.19578730  1
  O  O341  1  0.54653775  0.08364214  0.69589673  1
  O  O342  1  0.54363581  0.58142208  0.19931849  1
  O  O343  1  0.55384399  0.59239101  0.69505431  1
  O  O344  1  0.86700736  0.08451547  0.19012587  1
  O  O345  1  0.87478782  0.08454745  0.69268926  1
  O  O346  1  0.88389205  0.57259493  0.20030429  1
  O  O347  1  0.87919983  0.58504580  0.70108112  1
  O  O348  1  0.04358397  0.33270101  0.20006089  1
  O  O349  1  0.04053706  0.33627882  0.69392266  1
  O  O350  1  0.04683574  0.83452428  0.18966549  1
  O  O351  1  0.03786431  0.83414306  0.69178760  1
  O  O352  1  0.38054439  0.33094065  0.20444178  1
  O  O353  1  0.37944387  0.33598528  0.69942301  1
  O  O354  1  0.38203006  0.83351787  0.19566589  1
  O  O355  1  0.38256719  0.83635423  0.69309389  1
  O  O356  1  0.70947476  0.32958936  0.19985298  1
  O  O357  1  0.71084136  0.32916290  0.69573828  1
  O  O358  1  0.69772297  0.83224684  0.19267825  1
  O  O359  1  0.71170899  0.83975482  0.69482781  1
  O  O360  1  0.20940659  0.41718195  0.19191161  1
  O  O361  1  0.20187625  0.42023161  0.69223415  1
  O  O362  1  0.21370554  0.91790306  0.19979703  1
  O  O363  1  0.20936957  0.91638837  0.69746770  1
  O  O364  1  0.54823932  0.41345762  0.19812119  1
  O  O365  1  0.55171708  0.40970723  0.69209522  1
  O  O366  1  0.54415584  0.91809150  0.19721752  1
  O  O367  1  0.54394082  0.91993356  0.69714756  1
  O  O368  1  0.87343221  0.41203308  0.19505379  1
  O  O369  1  0.87457333  0.41501072  0.69473591  1
  O  O370  1  0.88088764  0.92341712  0.19543887  1
  O  O371  1  0.87470456  0.91993880  0.69297740  1
  O  O372  1  0.04229542  0.16915266  0.18991344  1
  O  O373  1  0.03881497  0.16888119  0.69023961  1
  O  O374  1  0.04949896  0.66279044  0.20150260  1
  O  O375  1  0.04251785  0.66603616  0.69581984  1
  O  O376  1  0.37947971  0.16023130  0.19170358  1
  O  O377  1  0.37579665  0.16895881  0.69056756  1
  O  O378  1  0.38236142  0.66836419  0.19994858  1
  O  O379  1  0.37589428  0.66280746  0.69688933  1
  O  O380  1  0.70816527  0.16533796  0.19614912  1
  O  O381  1  0.70964295  0.16445518  0.69531965  1
  O  O382  1  0.69403627  0.66792985  0.19476861  1
  O  O383  1  0.70988194  0.67373639  0.69194287  1
  O  O384  1  0.12753794  0.08517459  0.30084856  1
  O  O385  1  0.11784043  0.08533582  0.80082310  1
  O  O386  1  0.12619718  0.57918562  0.30807195  1
  O  O387  1  0.12127676  0.58444344  0.80538708  1
  O  O388  1  0.45792338  0.08411449  0.30483680  1
  O  O389  1  0.45470187  0.08490942  0.79803622  1
  O  O390  1  0.46449481  0.58215831  0.31066758  1
  O  O391  1  0.45004589  0.58710240  0.80850690  1
  O  O392  1  0.79126088  0.08253966  0.30489230  1
  O  O393  1  0.78910113  0.08398680  0.80363415  1
  O  O394  1  0.78378890  0.57434529  0.30399234  1
  O  O395  1  0.78850025  0.58622161  0.80019069  1
  O  O396  1  0.28279505  0.33689637  0.30642312  1
  O  O397  1  0.28463170  0.33559577  0.79852701  1
  O  O398  1  0.29266342  0.83194327  0.30071862  1
  O  O399  1  0.28821239  0.83120296  0.80022831  1
  O  O400  1  0.62615600  0.32881221  0.31010154  1
  O  O401  1  0.62476951  0.33452883  0.80528614  1
  O  O402  1  0.62263155  0.83857102  0.30650672  1
  O  O403  1  0.62656873  0.83425971  0.80536369  1
  O  O404  1  0.95459967  0.32949278  0.30487746  1
  O  O405  1  0.95419502  0.33000480  0.80147871  1
  O  O406  1  0.96936293  0.83178443  0.30404605  1
  O  O407  1  0.95377065  0.83897415  0.80181946  1
  O  O408  1  0.12169929  0.41573286  0.30526928  1
  O  O409  1  0.11817367  0.41662976  0.80546982  1
  O  O410  1  0.12375778  0.91746784  0.30453122  1
  O  O411  1  0.12015793  0.91893420  0.80292017  1
  O  O412  1  0.45881777  0.41589549  0.30459213  1
  O  O413  1  0.45621640  0.41193654  0.80991076  1
  O  O414  1  0.45900095  0.91862269  0.30857875  1
  O  O415  1  0.45977664  0.91527480  0.80860632  1
  O  O416  1  0.79083713  0.41126758  0.30903369  1
  O  O417  1  0.79179772  0.41453856  0.80444063  1
  O  O418  1  0.78604860  0.92430512  0.30513043  1
  O  O419  1  0.78875245  0.91935006  0.80352099  1
  O  O420  1  0.28803487  0.16356417  0.30185728  1
  O  O421  1  0.28913233  0.16839105  0.80539974  1
  O  O422  1  0.28914030  0.66711361  0.30979021  1
  O  O423  1  0.28611983  0.65925355  0.81132996  1
  O  O424  1  0.62598720  0.16199773  0.30552531  1
  O  O425  1  0.62532132  0.16797474  0.80695626  1
  O  O426  1  0.62154506  0.66829873  0.30968819  1
  O  O427  1  0.62988312  0.66833768  0.80861562  1
  O  O428  1  0.95385590  0.16832657  0.30293215  1
  O  O429  1  0.95392985  0.16491853  0.80111699  1
  O  O430  1  0.97207166  0.66785442  0.31080734  1
  O  O431  1  0.95881748  0.67287986  0.80588152  1
  F  F432  1  0.04825621  -0.00155231  0.19921263  1
  F  F433  1  0.04151151  0.00117005  0.69790807  1
  F  F434  1  0.04754563  0.49817477  0.20412450  1
  F  F435  1  0.04393114  0.50080425  0.70367415  1
  F  F436  1  0.38120189  -0.00086295  0.20371052  1
  F  F437  1  0.37895190  -0.00273075  0.70201690  1
  F  F438  1  0.38150210  0.49754077  0.20265379  1
  F  F439  1  0.36339158  0.50007947  0.69936542  1
  F  F440  1  0.70941453  0.00098737  0.20110972  1
  F  F441  1  0.71120542  0.00203523  0.70175633  1
  F  F442  1  0.70866198  0.49474762  0.20506727  1
  F  F443  1  0.71304070  0.49829252  0.70053731  1
  F  F444  1  0.20670615  0.24991058  0.19866468  1
  F  F445  1  0.20838144  0.25077401  0.69903995  1
  F  F446  1  0.21615661  0.74707353  0.20148511  1
  F  F447  1  0.20224628  0.74740117  0.69844308  1
  F  F448  1  0.54775751  0.24799233  0.20496975  1
  F  F449  1  0.54723644  0.24846674  0.70323896  1
  F  F450  1  0.54304385  0.75020436  0.20856980  1
  F  F451  1  0.55085561  0.76064094  0.69838742  1
  F  F452  1  0.87616186  0.24877014  0.20137906  1
  F  F453  1  0.87597014  0.24837264  0.69965961  1
  F  F454  1  0.89181900  0.74540919  0.19184360  1
  F  F455  1  0.87755432  0.75324385  0.70166677  1
  F  F456  1  0.29025028  0.00333562  0.29798897  1
  F  F457  1  0.28942710  -0.00034795  0.79819865  1
  F  F458  1  0.28593076  0.49523642  0.29913483  1
  F  F459  1  0.28375463  0.49864407  0.79945286  1
  F  F460  1  0.62180975  0.00100680  0.29894742  1
  F  F461  1  0.62367073  0.00086537  0.79951254  1
  F  F462  1  0.62093413  0.49771363  0.30146114  1
  F  F463  1  0.63502558  0.49919506  0.80196409  1
  F  F464  1  0.95539339  0.00015503  0.29919864  1
  F  F465  1  0.95256663  0.00257269  0.79407973  1
  F  F466  1  0.95694399  0.49294339  0.30186718  1
  F  F467  1  0.95491675  0.49832194  0.79897509  1
  F  F468  1  0.12110531  0.24665741  0.29780129  1
  F  F469  1  0.11743759  0.24988419  0.79371996  1
  F  F470  1  0.12706387  0.75216176  0.29671564  1
  F  F471  1  0.11849206  0.75238275  0.79685974  1
  F  F472  1  0.46671137  0.24437890  0.30572839  1
  F  F473  1  0.45599700  0.24926578  0.79754511  1
  F  F474  1  0.45573396  0.75162136  0.30332093  1
  F  F475  1  0.46074285  0.75234079  0.80237518  1
  F  F476  1  0.78925955  0.24575643  0.29930791  1
  F  F477  1  0.78857978  0.24793011  0.79718331  1
  F  F478  1  0.77547159  0.75282354  0.31122368  1
  F  F479  1  0.78737110  0.75415748  0.79605646  1
