# generated using pymatgen
data_K24Na3Li5Mg64Fe17Si79(O5F)48
_symmetry_space_group_name_H-M   'P 1'
_cell_length_a   16.09025944
_cell_length_b   18.58826686
_cell_length_c   20.54826051
_cell_angle_alpha   89.99379656
_cell_angle_beta   100.00446779
_cell_angle_gamma   90.00824787
_symmetry_Int_Tables_number   1
_chemical_formula_structural   K24Na3Li5Mg64Fe17Si79(O5F)48
_chemical_formula_sum   'K24 Na3 Li5 Mg64 Fe17 Si79 O240 F48'
_cell_volume   6052.32845188
_cell_formula_units_Z   1
loop_
 _symmetry_equiv_pos_site_id
 _symmetry_equiv_pos_as_xyz
  1  'x, y, z'
loop_
 _atom_site_type_symbol
 _atom_site_label
 _atom_site_symmetry_multiplicity
 _atom_site_fract_x
 _atom_site_fract_y
 _atom_site_fract_z
 _atom_site_occupancy
  K  K0  1  -0.00175928  0.00328540  0.00532265  1
  K  K1  1  -0.01020827  0.00284767  0.49171312  1
  K  K2  1  0.00236183  0.50051529  0.00117785  1
  K  K3  1  -0.01166495  0.49054090  0.49483827  1
  K  K4  1  0.33432562  -0.00191428  0.00791849  1
  K  K5  1  0.33748974  0.00065450  0.48386300  1
  K  K6  1  0.34824867  0.49580294  0.01052908  1
  K  K7  1  0.32915779  0.49050431  0.48887604  1
  K  K8  1  0.66464196  0.00828259  0.00470803  1
  K  K9  1  0.67068655  -0.00383804  0.49334400  1
  K  K10  1  0.66946065  0.49549882  -0.00020385  1
  K  K11  1  0.65863232  0.48934139  0.49520846  1
  K  K12  1  0.17752060  0.24356726  0.00704411  1
  K  K13  1  0.16325101  0.24755551  0.48572909  1
  K  K14  1  0.17568769  0.75102116  0.01091995  1
  K  K15  1  0.16685181  0.75492859  0.49430411  1
  K  K16  1  0.49501194  0.24747797  0.00870859  1
  K  K17  1  0.48292114  0.25565247  0.48228119  1
  K  K18  1  0.49364646  0.75646045  0.00130375  1
  K  K19  1  0.49667240  0.75954319  0.49179291  1
  K  K20  1  0.83486132  0.25130642  0.00388105  1
  K  K21  1  0.83746701  0.24519669  0.49001161  1
  K  K22  1  0.83790384  0.75059151  -0.00194159  1
  K  K23  1  0.83107803  0.76294686  0.50095002  1
  Na  Na24  1  0.33635898  0.24981808  0.25343098  1
  Na  Na25  1  -0.00436913  0.07953382  0.24844276  1
  Na  Na26  1  0.33444534  0.91771025  0.24717999  1
  Li  Li27  1  0.83487800  0.00180603  0.24981382  1
  Li  Li28  1  0.66900319  0.24959869  0.24894587  1
  Li  Li29  1  0.16401274  0.16447180  0.75573399  1
  Li  Li30  1  0.83147077  0.83809565  0.74427205  1
  Li  Li31  1  0.83378156  0.33328385  0.75575788  1
  Mg  Mg32  1  0.33298766  0.75013736  0.75097034  1
  Mg  Mg33  1  0.32902382  0.25019275  0.75177328  1
  Mg  Mg34  1  -0.00059696  0.24868651  0.75022920  1
  Mg  Mg35  1  -0.00561199  0.75181868  0.74385356  1
  Mg  Mg36  1  0.66834744  0.25244709  0.75069961  1
  Mg  Mg37  1  0.83532947  0.49774788  0.25181682  1
  Mg  Mg38  1  0.16392219  0.49843491  0.74910667  1
  Mg  Mg39  1  0.83358819  -0.00101918  0.74266473  1
  Mg  Mg40  1  -0.00086297  0.74945435  0.24827722  1
  Mg  Mg41  1  0.83126506  0.49683870  0.75146316  1
  Mg  Mg42  1  0.33486058  0.75132807  0.24951832  1
  Mg  Mg43  1  0.49904366  0.00019159  0.75292294  1
  Mg  Mg44  1  0.49981819  0.49975823  0.75360327  1
  Mg  Mg45  1  0.50231341  0.00255818  0.25137435  1
  Mg  Mg46  1  0.16810385  -0.00055535  0.24810060  1
  Mg  Mg47  1  0.16951476  0.49676803  0.25055678  1
  Mg  Mg48  1  0.50108664  0.49739352  0.25177895  1
  Mg  Mg49  1  0.66911652  0.75174164  0.75144677  1
  Mg  Mg50  1  0.00128137  0.24902748  0.24994586  1
  Mg  Mg51  1  0.66841215  0.75178655  0.25299288  1
  Mg  Mg52  1  0.16495719  0.00175852  0.75006781  1
  Mg  Mg53  1  -0.00314204  0.58349583  0.74744031  1
  Mg  Mg54  1  0.50005779  0.83573365  0.25031023  1
  Mg  Mg55  1  0.83210032  0.66789678  0.74816463  1
  Mg  Mg56  1  0.83485384  0.33205804  0.25015071  1
  Mg  Mg57  1  0.83318781  0.16724628  0.25137966  1
  Mg  Mg58  1  0.67296856  0.08586333  0.24788823  1
  Mg  Mg59  1  0.33494094  0.58369759  0.75180967  1
  Mg  Mg60  1  0.66745122  0.08491600  0.74696445  1
  Mg  Mg61  1  0.66951534  0.91551646  0.74798403  1
  Mg  Mg62  1  0.50294889  0.83606589  0.75503992  1
  Mg  Mg63  1  0.49929491  0.66643311  0.24983090  1
  Mg  Mg64  1  -0.00521870  0.41321208  0.75039844  1
  Mg  Mg65  1  -0.00433270  0.91575944  0.74499229  1
  Mg  Mg66  1  0.83346351  0.83711838  0.24882228  1
  Mg  Mg67  1  0.66768987  0.58333756  0.25222734  1
  Mg  Mg68  1  0.16756149  0.33165698  0.24951487  1
  Mg  Mg69  1  0.00028481  0.41356130  0.25331987  1
  Mg  Mg70  1  0.16685962  0.66491159  0.24860727  1
  Mg  Mg71  1  0.16477123  0.83386284  0.74781305  1
  Mg  Mg72  1  0.33464935  0.91656332  0.75240686  1
  Mg  Mg73  1  0.50009853  0.33498976  0.75400686  1
  Mg  Mg74  1  0.16463947  0.66512561  0.74777708  1
  Mg  Mg75  1  0.66809989  0.91908129  0.25023737  1
  Mg  Mg76  1  0.16492542  0.33156053  0.75013964  1
  Mg  Mg77  1  0.32992895  0.08590745  0.75342445  1
  Mg  Mg78  1  0.16684126  0.83403859  0.24772622  1
  Mg  Mg79  1  -0.00030556  0.58348548  0.24946811  1
  Mg  Mg80  1  0.33433376  0.41609100  0.75238271  1
  Mg  Mg81  1  0.50347078  0.33219712  0.25409364  1
  Mg  Mg82  1  0.16582345  0.16415563  0.24997865  1
  Mg  Mg83  1  0.66837587  0.58491592  0.75359242  1
  Mg  Mg84  1  0.50363926  0.66721815  0.75384325  1
  Mg  Mg85  1  0.66887549  0.41259370  0.25181765  1
  Mg  Mg86  1  -0.00367217  0.91781761  0.24843572  1
  Mg  Mg87  1  0.33331428  0.08367179  0.25147529  1
  Mg  Mg88  1  0.50409419  0.16905093  0.25116000  1
  Mg  Mg89  1  0.49926417  0.16671613  0.75086720  1
  Mg  Mg90  1  0.00312972  0.08463886  0.74735270  1
  Mg  Mg91  1  0.83481487  0.16891608  0.74629794  1
  Mg  Mg92  1  0.33560199  0.41456190  0.25048673  1
  Mg  Mg93  1  0.83310013  0.66619862  0.25089730  1
  Mg  Mg94  1  0.33253658  0.58375095  0.24957246  1
  Mg  Mg95  1  0.66932953  0.41480460  0.75249396  1
  Fe  Fe96  1  0.14444638  0.07857188  0.88911838  1
  Fe  Fe97  1  0.18937383  0.57994003  0.11059670  1
  Fe  Fe98  1  0.47583434  0.41689504  0.89223841  1
  Fe  Fe99  1  0.85977918  0.41996615  0.11060905  1
  Fe  Fe100  1  0.35984776  0.83228450  0.10834359  1
  Fe  Fe101  1  0.48039011  0.91906122  0.39236969  1
  Fe  Fe102  1  0.02808565  0.33216276  0.11134482  1
  Fe  Fe103  1  0.18901935  0.08215065  0.10988897  1
  Fe  Fe104  1  0.81078234  0.41355034  0.88946429  1
  Fe  Fe105  1  0.36586259  0.33354079  0.11068940  1
  Fe  Fe106  1  0.47617861  0.41777134  0.39461615  1
  Fe  Fe107  1  0.97214135  0.32937402  0.39321984  1
  Fe  Fe108  1  0.47263982  0.91755903  0.89306331  1
  Fe  Fe109  1  0.85595101  0.91738210  0.60397622  1
  Fe  Fe110  1  0.85202930  0.08151285  0.11001354  1
  Fe  Fe111  1  0.64620639  0.67059696  0.89130857  1
  Fe  Fe112  1  0.30022832  0.33345885  0.39461451  1
  Si  Si113  1  0.69113506  0.17168934  0.11331093  1
  Si  Si114  1  0.65062424  0.83879542  0.88923368  1
  Si  Si115  1  0.02550140  0.66243858  0.61121541  1
  Si  Si116  1  0.64236397  0.33282902  0.38838703  1
  Si  Si117  1  0.68453445  0.82951221  0.61038955  1
  Si  Si118  1  0.19351681  0.58168381  0.61331169  1
  Si  Si119  1  0.13959660  0.90977160  0.88321426  1
  Si  Si120  1  0.36412888  0.15955038  0.11335815  1
  Si  Si121  1  0.19331891  0.91689714  0.61345405  1
  Si  Si122  1  0.02863110  0.82953340  0.60784106  1
  Si  Si123  1  0.13798611  0.91145708  0.38527683  1
  Si  Si124  1  0.47501062  0.58858056  0.88940072  1
  Si  Si125  1  0.30110503  0.33906326  0.88652056  1
  Si  Si126  1  0.97209434  0.66870886  0.38669128  1
  Si  Si127  1  0.80844793  0.91773838  0.38335588  1
  Si  Si128  1  0.02629180  0.16981911  0.61360066  1
  Si  Si129  1  0.80750255  0.08303083  0.38603121  1
  Si  Si130  1  0.97334786  0.67093435  0.88186829  1
  Si  Si131  1  0.35872595  0.66780846  0.61495480  1
  Si  Si132  1  0.68816926  0.33543887  0.61397951  1
  Si  Si133  1  0.14201517  0.07550792  0.38659915  1
  Si  Si134  1  0.64597246  0.16600039  0.88247959  1
  Si  Si135  1  0.19411776  0.41352908  0.11081204  1
  Si  Si136  1  0.35840021  0.83421772  0.61508932  1
  Si  Si137  1  0.80808917  0.58273074  0.38743473  1
  Si  Si138  1  0.13532347  0.42513018  0.39346439  1
  Si  Si139  1  0.97183161  0.83514016  0.87969904  1
  Si  Si140  1  0.30503032  0.15965060  0.39076009  1
  Si  Si141  1  0.53183583  0.08394209  0.11650866  1
  Si  Si142  1  0.30862675  0.66872488  0.38676805  1
  Si  Si143  1  0.97139843  0.83320008  0.38443202  1
  Si  Si144  1  0.19122622  0.08254288  0.61464917  1
  Si  Si145  1  0.64507585  0.66833769  0.38678797  1
  Si  Si146  1  0.52457419  0.08362860  0.61397914  1
  Si  Si147  1  0.64808565  0.83213071  0.38893983  1
  Si  Si148  1  0.02533765  0.33545196  0.61375157  1
  Si  Si149  1  0.68871555  0.66319184  0.61310536  1
  Si  Si150  1  0.97473348  0.16326851  0.88394593  1
  Si  Si151  1  0.02327414  0.16775459  0.11158265  1
  Si  Si152  1  0.80990711  0.92276566  0.88020270  1
  Si  Si153  1  0.53310579  0.91821995  0.11302894  1
  Si  Si154  1  0.13993388  0.58983641  0.38734926  1
  Si  Si155  1  0.19328660  0.41608936  0.61462288  1
  Si  Si156  1  0.52390281  0.91683631  0.61466430  1
  Si  Si157  1  0.85508461  0.91185883  0.11141060  1
  Si  Si158  1  0.30377757  0.66171449  0.88378787  1
  Si  Si159  1  0.85338578  0.58825507  0.11460894  1
  Si  Si160  1  0.85713719  0.09033606  0.60782819  1
  Si  Si161  1  0.80953987  0.08541618  0.87953570  1
  Si  Si162  1  0.97559306  0.32631612  0.88485295  1
  Si  Si163  1  0.18097917  0.91307622  0.10946578  1
  Si  Si164  1  0.01923674  0.83103491  0.11408946  1
  Si  Si165  1  0.30039282  0.82706200  0.88505488  1
  Si  Si166  1  0.30439114  0.83157655  0.38815373  1
  Si  Si167  1  0.36315249  0.66132898  0.11091204  1
  Si  Si168  1  0.31070850  0.17319274  0.88736374  1
  Si  Si169  1  0.63983044  0.32914574  0.88885103  1
  Si  Si170  1  0.48098578  0.08941201  0.39050880  1
  Si  Si171  1  0.47819897  0.58958664  0.38919772  1
  Si  Si172  1  0.47736171  0.09044108  0.88821826  1
  Si  Si173  1  0.68875737  0.17054767  0.61156718  1
  Si  Si174  1  0.52327464  0.41623990  0.61567072  1
  Si  Si175  1  0.13596916  0.58284812  0.88284598  1
  Si  Si176  1  0.35806118  0.33078873  0.61615338  1
  Si  Si177  1  0.69360604  0.83212565  0.11606782  1
  Si  Si178  1  0.97706833  0.16239446  0.39017279  1
  Si  Si179  1  0.53541618  0.41821583  0.11414684  1
  Si  Si180  1  0.53284125  0.58327986  0.11720229  1
  Si  Si181  1  0.69581526  0.33358667  0.11581271  1
  Si  Si182  1  0.02057659  0.66752387  0.11275046  1
  Si  Si183  1  0.80454206  0.41716995  0.39051856  1
  Si  Si184  1  0.69263294  0.67060686  0.11791017  1
  Si  Si185  1  0.81474050  0.58220586  0.88740613  1
  Si  Si186  1  0.13314084  0.41638952  0.88367074  1
  Si  Si187  1  0.35710839  0.16490730  0.61488860  1
  Si  Si188  1  0.85739372  0.41670904  0.61391238  1
  Si  Si189  1  0.85631672  0.58234522  0.61228122  1
  Si  Si190  1  0.64645593  0.16842985  0.38510903  1
  Si  Si191  1  0.52227037  0.58156629  0.61531664  1
  O  O192  1  0.28940489  0.10493531  0.08022944  1
  O  O193  1  0.26842666  0.12311330  0.58451826  1
  O  O194  1  0.28978744  0.60467160  0.08008868  1
  O  O195  1  0.26822116  0.62730445  0.58522179  1
  O  O196  1  0.60945740  0.11873581  0.08489974  1
  O  O197  1  0.60139763  0.12406589  0.58423203  1
  O  O198  1  0.61611113  0.61488963  0.08936666  1
  O  O199  1  0.60216752  0.61632642  0.58532504  1
  O  O200  1  0.95490108  0.10404702  0.08441189  1
  O  O201  1  0.93453199  0.13434802  0.58039238  1
  O  O202  1  0.93729769  0.61689428  0.08597833  1
  O  O203  1  0.93452713  0.62253185  0.58260959  1
  O  O204  1  0.13116359  0.34774879  0.08286533  1
  O  O205  1  0.10069680  0.38038820  0.58531742  1
  O  O206  1  0.10149354  0.85483515  0.08291328  1
  O  O207  1  0.11094375  0.86763727  0.58252781  1
  O  O208  1  0.45982116  0.36968847  0.07561169  1
  O  O209  1  0.43611510  0.37093492  0.58823647  1
  O  O210  1  0.45421442  0.87174051  0.07596710  1
  O  O211  1  0.43385487  0.87578915  0.58583053  1
  O  O212  1  0.77532710  0.35146901  0.07996677  1
  O  O213  1  0.76744133  0.37502231  0.58570150  1
  O  O214  1  0.77952580  0.85050293  0.08689692  1
  O  O215  1  0.75529430  0.86463818  0.57323284  1
  O  O216  1  0.28126310  0.40152216  0.08141752  1
  O  O217  1  0.26885604  0.37266745  0.58666320  1
  O  O218  1  0.26004697  0.88355484  0.07679707  1
  O  O219  1  0.27147808  0.87766346  0.58417668  1
  O  O220  1  0.62231183  0.39402920  0.08798444  1
  O  O221  1  0.60164564  0.38166269  0.58375476  1
  O  O222  1  0.61914546  0.88862876  0.08618752  1
  O  O223  1  0.59408687  0.87218261  0.58227166  1
  O  O224  1  0.95415931  0.40393904  0.07458558  1
  O  O225  1  0.93463993  0.37569278  0.58420685  1
  O  O226  1  0.93881192  0.88163711  0.08213039  1
  O  O227  1  0.94436374  0.86795553  0.57015671  1
  O  O228  1  0.10725040  0.15072561  0.07868760  1
  O  O229  1  0.10248565  0.12547170  0.58532850  1
  O  O230  1  0.09892257  0.64459735  0.07794648  1
  O  O231  1  0.10115815  0.61789132  0.58300296  1
  O  O232  1  0.44882286  0.12968764  0.08401292  1
  O  O233  1  0.43446836  0.12450258  0.58543194  1
  O  O234  1  0.45263019  0.63376941  0.08717603  1
  O  O235  1  0.43566121  0.62784103  0.58543549  1
  O  O236  1  0.76450793  0.14682201  0.07287364  1
  O  O237  1  0.76857268  0.13675349  0.58176360  1
  O  O238  1  0.77909633  0.65011960  0.09052384  1
  O  O239  1  0.76776622  0.62550884  0.58283791  1
  O  O240  1  0.06289987  0.11228952  0.41651225  1
  O  O241  1  0.04302348  0.10509820  0.91762256  1
  O  O242  1  0.06387529  0.63241978  0.41794275  1
  O  O243  1  0.05685363  0.62106992  0.91046170  1
  O  O244  1  0.39900438  0.12275969  0.41991332  1
  O  O245  1  0.40184046  0.13340059  0.91596517  1
  O  O246  1  0.39705358  0.62713191  0.41734039  1
  O  O247  1  0.38256307  0.60914877  0.91214889  1
  O  O248  1  0.73046608  0.11976410  0.41909745  1
  O  O249  1  0.72374709  0.10952106  0.90773756  1
  O  O250  1  0.72799677  0.61815718  0.41676169  1
  O  O251  1  0.73395528  0.60492518  0.92057595  1
  O  O252  1  0.21598460  0.38115653  0.43215891  1
  O  O253  1  0.21370481  0.36527601  0.91182879  1
  O  O254  1  0.22240747  0.86530245  0.41784941  1
  O  O255  1  0.20853169  0.84424883  0.90644674  1
  O  O256  1  0.56866584  0.35726534  0.42816537  1
  O  O257  1  0.55357633  0.34232410  0.91835396  1
  O  O258  1  0.57566788  0.86072416  0.42753729  1
  O  O259  1  0.56957661  0.86196528  0.92202958  1
  O  O260  1  0.88201684  0.37062290  0.42912400  1
  O  O261  1  0.89525003  0.34525273  0.91838768  1
  O  O262  1  0.89756722  0.87607016  0.41447798  1
  O  O263  1  0.88969484  0.86825017  0.90775885  1
  O  O264  1  0.05450260  0.39836131  0.42455159  1
  O  O265  1  0.05276082  0.38434284  0.91258872  1
  O  O266  1  0.06142787  0.87109932  0.41619073  1
  O  O267  1  0.05326301  0.88469468  0.91083589  1
  O  O268  1  0.39584571  0.38037754  0.43902132  1
  O  O269  1  0.37283913  0.39508586  0.91872079  1
  O  O270  1  0.38597744  0.87677409  0.42300346  1
  O  O271  1  0.37471974  0.87895607  0.92044772  1
  O  O272  1  0.72101014  0.38820794  0.41853424  1
  O  O273  1  0.71126372  0.38633111  0.92037516  1
  O  O274  1  0.73589202  0.87688410  0.41735739  1
  O  O275  1  0.72775766  0.89857752  0.91214445  1
  O  O276  1  0.23259738  0.11166523  0.42234105  1
  O  O277  1  0.23649699  0.13942415  0.92101807  1
  O  O278  1  0.22909582  0.63213371  0.41646609  1
  O  O279  1  0.22047919  0.63038387  0.91109758  1
  O  O280  1  0.56459133  0.14131424  0.41797264  1
  O  O281  1  0.56372422  0.13883561  0.91256985  1
  O  O282  1  0.56123902  0.64295331  0.41617949  1
  O  O283  1  0.54129313  0.65148085  0.91800490  1
  O  O284  1  0.89843785  0.11997133  0.41901580  1
  O  O285  1  0.88366096  0.14297717  0.90817074  1
  O  O286  1  0.89612398  0.62717553  0.41688198  1
  O  O287  1  0.89199993  0.64229583  0.91148759  1
  O  O288  1  0.15098516  -0.00965058  0.07738854  1
  O  O289  1  0.18182594  -0.00064412  0.58371026  1
  O  O290  1  0.15234671  0.48968111  0.07971536  1
  O  O291  1  0.19328213  0.49905692  0.58501101  1
  O  O292  1  0.52123416  0.00165796  0.08636841  1
  O  O293  1  0.51696133  0.00016737  0.58601553  1
  O  O294  1  0.51770698  0.50251942  0.08699144  1
  O  O295  1  0.50823025  0.49907464  0.58641860  1
  O  O296  1  0.82444905  -0.01382082  0.07505395  1
  O  O297  1  0.84636537  0.01341463  0.57047995  1
  O  O298  1  0.81928552  0.51381837  0.08122929  1
  O  O299  1  0.84909370  0.49968622  0.58172698  1
  O  O300  1  -0.01739911  0.24363511  0.07983012  1
  O  O301  1  0.02521514  0.25321785  0.58460533  1
  O  O302  1  -0.00871329  0.74952695  0.08712866  1
  O  O303  1  0.02687331  0.74411078  0.58116512  1
  O  O304  1  0.34414012  0.23880398  0.07987762  1
  O  O305  1  0.35082626  0.24817997  0.58663394  1
  O  O306  1  0.34262662  0.73804161  0.07383219  1
  O  O307  1  0.35042242  0.75088514  0.58561797  1
  O  O308  1  0.65861673  0.25380343  0.08950290  1
  O  O309  1  0.67570189  0.25336309  0.58267413  1
  O  O310  1  0.66306133  0.75081796  0.08944699  1
  O  O311  1  0.67124585  0.74458245  0.58284743  1
  O  O312  1  0.14709819  -0.00775631  0.41752988  1
  O  O313  1  0.17542247  -0.01662079  0.91783029  1
  O  O314  1  0.14989364  0.51070114  0.42088671  1
  O  O315  1  0.14795286  0.50029416  0.91088867  1
  O  O316  1  0.50066732  0.01259638  0.42825944  1
  O  O317  1  0.49224200  0.01273723  0.92334832  1
  O  O318  1  0.49916158  0.51432186  0.42694675  1
  O  O319  1  0.50600391  0.51142671  0.92141967  1
  O  O320  1  0.81533784  -0.00077801  0.41431445  1
  O  O321  1  0.83636039  0.00446991  0.90856868  1
  O  O322  1  0.81956891  0.50199481  0.41859888  1
  O  O323  1  0.85228808  0.50585805  0.91634010  1
  O  O324  1  0.30605564  0.23714695  0.42694493  1
  O  O325  1  0.32445174  0.25738087  0.91347810  1
  O  O326  1  0.31613789  0.74899715  0.42071428  1
  O  O327  1  0.32263824  0.74355463  0.91121535  1
  O  O328  1  0.67139092  0.25006420  0.41347965  1
  O  O329  1  0.67369942  0.24591986  0.91058230  1
  O  O330  1  0.67142717  0.74863506  0.41568527  1
  O  O331  1  0.68745144  0.76212458  0.91925340  1
  O  O332  1  0.99314186  0.23687540  0.43210187  1
  O  O333  1  1.00620349  0.24437518  0.90964578  1
  O  O334  1  0.97471886  0.75108348  0.41656332  1
  O  O335  1  0.99052622  0.75317435  0.91045762  1
  O  O336  1  0.21234633  0.08180515  0.20127640  1
  O  O337  1  0.21333332  0.07932219  0.69378285  1
  O  O338  1  0.21063997  0.58313131  0.20284785  1
  O  O339  1  0.20944630  0.58324783  0.69364800  1
  O  O340  1  0.54901444  0.08374052  0.19679788  1
  O  O341  1  0.54195345  0.08441713  0.69442878  1
  O  O342  1  0.54748565  0.58426795  0.19795433  1
  O  O343  1  0.53940398  0.58315549  0.69540318  1
  O  O344  1  0.86346628  0.08316842  0.19757831  1
  O  O345  1  0.87508566  0.08598188  0.68856859  1
  O  O346  1  0.87510396  0.58645391  0.19612869  1
  O  O347  1  0.87517725  0.58248341  0.69249621  1
  O  O348  1  0.04721355  0.33586868  0.20376036  1
  O  O349  1  0.04270904  0.33581514  0.69372452  1
  O  O350  1  0.03911784  0.83063665  0.19475933  1
  O  O351  1  0.04375419  0.83062524  0.68861236  1
  O  O352  1  0.38786974  0.34050553  0.19997935  1
  O  O353  1  0.37500689  0.33220404  0.69622626  1
  O  O354  1  0.38487484  0.82346961  0.19822210  1
  O  O355  1  0.37466738  0.83250258  0.69508917  1
  O  O356  1  0.71530882  0.33804996  0.19609017  1
  O  O357  1  0.70123443  0.33324007  0.69307465  1
  O  O358  1  0.71070178  0.83203131  0.19671250  1
  O  O359  1  0.70145335  0.83212573  0.69048004  1
  O  O360  1  0.21072815  0.41808255  0.19316264  1
  O  O361  1  0.20959425  0.41782112  0.69494875  1
  O  O362  1  0.19852834  0.91251427  0.19009210  1
  O  O363  1  0.21098127  0.91545409  0.69389949  1
  O  O364  1  0.54955697  0.41950403  0.19494073  1
  O  O365  1  0.54353660  0.41677256  0.69572657  1
  O  O366  1  0.54862008  0.91502184  0.19365088  1
  O  O367  1  0.54294435  0.91730477  0.69482578  1
  O  O368  1  0.87915113  0.41997056  0.20312280  1
  O  O369  1  0.87876896  0.42145344  0.69284946  1
  O  O370  1  0.87733880  0.91038392  0.19152730  1
  O  O371  1  0.87806711  0.91834625  0.69403297  1
  O  O372  1  0.04581896  0.17229085  0.19245739  1
  O  O373  1  0.03936081  0.16843954  0.69273574  1
  O  O374  1  0.04071562  0.66606317  0.19421491  1
  O  O375  1  0.04316027  0.66330821  0.69147757  1
  O  O376  1  0.38488336  0.15929879  0.19380030  1
  O  O377  1  0.37573095  0.16536538  0.69517973  1
  O  O378  1  0.37869883  0.66424324  0.19297751  1
  O  O379  1  0.37582708  0.66698384  0.69530794  1
  O  O380  1  0.71261561  0.16651488  0.19315109  1
  O  O381  1  0.70702258  0.16813250  0.69180678  1
  O  O382  1  0.71040391  0.66826505  0.19868666  1
  O  O383  1  0.70991291  0.66428588  0.69300284  1
  O  O384  1  0.12865119  0.07790284  0.30805157  1
  O  O385  1  0.12048909  0.07974805  0.79807286  1
  O  O386  1  0.11997063  0.58937357  0.30761662  1
  O  O387  1  0.12034044  0.58336039  0.80189521  1
  O  O388  1  0.46181619  0.08550619  0.31020612  1
  O  O389  1  0.45761389  0.08563186  0.80658236  1
  O  O390  1  0.45944750  0.58686978  0.30840569  1
  O  O391  1  0.45579609  0.58586262  0.80685645  1
  O  O392  1  0.78843516  0.08675086  0.30738763  1
  O  O393  1  0.79006653  0.08397864  0.79865429  1
  O  O394  1  0.79105933  0.58530068  0.30731374  1
  O  O395  1  0.79342864  0.58469293  0.80516562  1
  O  O396  1  0.28212454  0.34435128  0.30527547  1
  O  O397  1  0.28616493  0.33696438  0.80503119  1
  O  O398  1  0.28414885  0.82541837  0.30885709  1
  O  O399  1  0.28752020  0.83039816  0.80344137  1
  O  O400  1  0.62364329  0.33883284  0.30884164  1
  O  O401  1  0.62198538  0.33186710  0.80660574  1
  O  O402  1  0.62771473  0.83265294  0.30824974  1
  O  O403  1  0.62695673  0.83686869  0.80697852  1
  O  O404  1  0.95467089  0.33212811  0.30308041  1
  O  O405  1  0.96011401  0.33113690  0.80425992  1
  O  O406  1  0.95539728  0.82910761  0.30476043  1
  O  O407  1  0.95937722  0.83218141  0.79996449  1
  O  O408  1  0.12247211  0.42439617  0.31265485  1
  O  O409  1  0.11918792  0.41800854  0.80268960  1
  O  O410  1  0.12166161  0.91075280  0.30569523  1
  O  O411  1  0.12068287  0.91304121  0.80151487  1
  O  O412  1  0.45875677  0.41978876  0.30344921  1
  O  O413  1  0.45389023  0.41795552  0.79942244  1
  O  O414  1  0.47117745  0.91826187  0.30327392  1
  O  O415  1  0.45451792  0.91733566  0.80032329  1
  O  O416  1  0.79005016  0.41922594  0.31025839  1
  O  O417  1  0.78701701  0.41732168  0.79828495  1
  O  O418  1  0.78757656  0.91222522  0.30451948  1
  O  O419  1  0.78797918  0.92262071  0.80045416  1
  O  O420  1  0.28697850  0.15902158  0.31161738  1
  O  O421  1  0.29412717  0.16906027  0.80656836  1
  O  O422  1  0.29176054  0.66795060  0.30674613  1
  O  O423  1  0.28625724  0.66441888  0.80257941  1
  O  O424  1  0.62664785  0.16210106  0.30619276  1
  O  O425  1  0.62359330  0.16583063  0.80155357  1
  O  O426  1  0.62669701  0.66654527  0.30658108  1
  O  O427  1  0.62364428  0.66832800  0.79860062  1
  O  O428  1  0.95471358  0.17214746  0.31151863  1
  O  O429  1  0.95591693  0.16391778  0.80255277  1
  O  O430  1  0.95551493  0.66744615  0.30656673  1
  O  O431  1  0.95731138  0.66778308  0.80109928  1
  F  F432  1  0.04927183  -0.01158990  0.20019128  1
  F  F433  1  0.04534523  -0.00320616  0.69595550  1
  F  F434  1  0.04595755  0.50163253  0.20721850  1
  F  F435  1  0.04412822  0.50055184  0.69882042  1
  F  F436  1  0.38742958  0.00911858  0.20097586  1
  F  F437  1  0.37765825  0.00255817  0.70200239  1
  F  F438  1  0.38169176  0.50461444  0.20383698  1
  F  F439  1  0.37598226  0.50278223  0.70066146  1
  F  F440  1  0.70715032  -0.00141458  0.20093779  1
  F  F441  1  0.70815193  0.00166512  0.69619570  1
  F  F442  1  0.71367347  0.50231772  0.20634087  1
  F  F443  1  0.70883477  0.50339918  0.69999245  1
  F  F444  1  0.20372534  0.24801527  0.20310826  1
  F  F445  1  0.21446354  0.25699460  0.69823646  1
  F  F446  1  0.21147155  0.74816716  0.20218449  1
  F  F447  1  0.21183226  0.74829280  0.69900106  1
  F  F448  1  0.54545747  0.25132691  0.20360558  1
  F  F449  1  0.54311905  0.25048408  0.70235215  1
  F  F450  1  0.54957532  0.74898798  0.20552668  1
  F  F451  1  0.54224505  0.75342001  0.70232325  1
  F  F452  1  0.87903247  0.24851550  0.20240945  1
  F  F453  1  0.88094006  0.24758880  0.69787897  1
  F  F454  1  0.87688621  0.74866847  0.20339910  1
  F  F455  1  0.88078379  0.74020141  0.69177449  1
  F  F456  1  0.28609257  0.00226470  0.30421065  1
  F  F457  1  0.28775485  -0.00131998  0.79775333  1
  F  F458  1  0.29094772  0.50232705  0.30139130  1
  F  F459  1  0.28435298  0.50174577  0.79648419  1
  F  F460  1  0.62557032  0.00060139  0.29995926  1
  F  F461  1  0.62208418  0.00156906  0.79454980  1
  F  F462  1  0.62373879  0.50221152  0.30095514  1
  F  F463  1  0.62097286  0.50059367  0.79705157  1
  F  F464  1  0.95293383  -0.01686735  0.30800031  1
  F  F465  1  0.95408246  0.00147087  0.79260233  1
  F  F466  1  0.95402038  0.50772235  0.30339300  1
  F  F467  1  0.95608146  0.50171174  0.79582599  1
  F  F468  1  0.12240012  0.24680725  0.30369591  1
  F  F469  1  0.11918827  0.25346595  0.79668999  1
  F  F470  1  0.11914452  0.74848077  0.29725977  1
  F  F471  1  0.11796376  0.74790684  0.79187269  1
  F  F472  1  0.47196154  0.24846608  0.30804025  1
  F  F473  1  0.45241939  0.24927476  0.79676765  1
  F  F474  1  0.45778143  0.74635453  0.30199191  1
  F  F475  1  0.45250754  0.75076690  0.79764202  1
  F  F476  1  0.79189011  0.25112259  0.30016697  1
  F  F477  1  0.78575632  0.24482510  0.79581366  1
  F  F478  1  0.79064995  0.74991341  0.30057162  1
  F  F479  1  0.78980942  0.74951363  0.79331093  1
