# generated using pymatgen
data_K24Na3Li5Mg64Fe17Si79(O5F)48
_symmetry_space_group_name_H-M   'P 1'
_cell_length_a   16.10879966
_cell_length_b   18.59716053
_cell_length_c   20.55987736
_cell_angle_alpha   90.01039537
_cell_angle_beta   100.02004938
_cell_angle_gamma   89.97278569
_symmetry_Int_Tables_number   1
_chemical_formula_structural   K24Na3Li5Mg64Fe17Si79(O5F)48
_chemical_formula_sum   'K24 Na3 Li5 Mg64 Fe17 Si79 O240 F48'
_cell_volume   6065.33682859
_cell_formula_units_Z   1
loop_
 _symmetry_equiv_pos_site_id
 _symmetry_equiv_pos_as_xyz
  1  'x, y, z'
loop_
 _atom_site_type_symbol
 _atom_site_label
 _atom_site_symmetry_multiplicity
 _atom_site_fract_x
 _atom_site_fract_y
 _atom_site_fract_z
 _atom_site_occupancy
  K  K0  1  -0.00015953  -0.00001148  0.00815082  1
  K  K1  1  0.00189499  -0.00374929  0.48943324  1
  K  K2  1  0.00758229  0.49038565  0.00635924  1
  K  K3  1  -0.00981872  0.49111717  0.49510254  1
  K  K4  1  0.32475756  -0.00207282  0.01593823  1
  K  K5  1  0.33083936  0.00320398  0.48071418  1
  K  K6  1  0.33755649  0.50615045  0.01350340  1
  K  K7  1  0.33495366  0.49517688  0.48631910  1
  K  K8  1  0.67948576  -0.00153057  0.01167766  1
  K  K9  1  0.65858328  -0.00088041  0.49586694  1
  K  K10  1  0.66041674  0.48467865  0.00642745  1
  K  K11  1  0.65262396  0.49885960  0.48874976  1
  K  K12  1  0.16598154  0.24783994  0.00831139  1
  K  K13  1  0.16505762  0.24076935  0.48243903  1
  K  K14  1  0.18112882  0.75743034  0.01242682  1
  K  K15  1  0.16377327  0.75317678  0.49275870  1
  K  K16  1  0.52081491  0.24548132  0.00752123  1
  K  K17  1  0.51301715  0.24119323  0.49311696  1
  K  K18  1  0.50303544  0.74948938  0.01617651  1
  K  K19  1  0.51029419  0.76184705  0.48469577  1
  K  K20  1  0.82947441  0.24738182  0.00091916  1
  K  K21  1  0.82455189  0.24554590  0.49366621  1
  K  K22  1  0.82606821  0.75703907  0.00570671  1
  K  K23  1  0.81770849  0.75765870  0.48938387  1
  Na  Na24  1  0.33255839  0.75232465  0.24507550  1
  Na  Na25  1  0.66836984  0.41898190  0.75237838  1
  Na  Na26  1  0.32777870  0.92164666  0.24905244  1
  Li  Li27  1  0.17013639  0.00622231  0.24708368  1
  Li  Li28  1  0.83637792  -0.00153618  0.25178007  1
  Li  Li29  1  0.83412551  0.83532234  0.75152570  1
  Li  Li30  1  -0.00351995  0.41574059  0.75118838  1
  Li  Li31  1  0.32815893  0.41656351  0.24472195  1
  Mg  Mg32  1  -0.00152335  0.75033752  0.25134267  1
  Mg  Mg33  1  0.66722248  0.24753087  0.25207439  1
  Mg  Mg34  1  0.00139629  0.25063602  0.25077822  1
  Mg  Mg35  1  0.50027693  -0.00073187  0.74414822  1
  Mg  Mg36  1  0.49737164  0.49828530  0.25159894  1
  Mg  Mg37  1  0.50142426  0.49994925  0.75168204  1
  Mg  Mg38  1  0.16872016  0.49937612  0.24937243  1
  Mg  Mg39  1  0.83706109  0.49981350  0.75138162  1
  Mg  Mg40  1  0.33158811  0.25336184  0.24735904  1
  Mg  Mg41  1  0.33239758  0.25179421  0.74845039  1
  Mg  Mg42  1  -0.00163060  0.25297242  0.75154383  1
  Mg  Mg43  1  0.67026236  0.75211580  0.74805118  1
  Mg  Mg44  1  -0.00098815  0.75153278  0.75130487  1
  Mg  Mg45  1  0.33314164  0.75041366  0.74909386  1
  Mg  Mg46  1  0.83304360  0.49829517  0.25438355  1
  Mg  Mg47  1  0.66455010  0.75108308  0.25054537  1
  Mg  Mg48  1  0.83294892  -0.00223820  0.75019435  1
  Mg  Mg49  1  0.49927278  0.00047690  0.24634142  1
  Mg  Mg50  1  0.16358075  0.49925062  0.74864508  1
  Mg  Mg51  1  0.16552058  0.00026902  0.75390083  1
  Mg  Mg52  1  0.66756378  0.25108982  0.74911666  1
  Mg  Mg53  1  0.83664213  0.16283244  0.25257460  1
  Mg  Mg54  1  0.83069292  0.16547310  0.75019276  1
  Mg  Mg55  1  0.66724374  0.91533363  0.74671032  1
  Mg  Mg56  1  0.33328715  0.91534235  0.74929157  1
  Mg  Mg57  1  0.66954350  0.58443957  0.75032599  1
  Mg  Mg58  1  0.16603534  0.66787982  0.24909767  1
  Mg  Mg59  1  0.00051763  0.91570462  0.75408573  1
  Mg  Mg60  1  0.66924180  0.08045707  0.24884619  1
  Mg  Mg61  1  0.16299624  0.33576639  0.74932852  1
  Mg  Mg62  1  0.66895820  0.91605599  0.24879833  1
  Mg  Mg63  1  0.83533888  0.66863722  0.74999998  1
  Mg  Mg64  1  0.50282067  0.33420008  0.75035291  1
  Mg  Mg65  1  0.00172366  0.91859869  0.25096617  1
  Mg  Mg66  1  0.33269431  0.58243976  0.24868265  1
  Mg  Mg67  1  0.50198581  0.16591590  0.74924974  1
  Mg  Mg68  1  0.33313861  0.08471801  0.74876955  1
  Mg  Mg69  1  0.50070974  0.83522359  0.24938775  1
  Mg  Mg70  1  0.16620436  0.33609417  0.24833744  1
  Mg  Mg71  1  0.66908040  0.08457052  0.74887875  1
  Mg  Mg72  1  0.33333240  0.58374813  0.74989392  1
  Mg  Mg73  1  0.16663886  0.66622202  0.75005070  1
  Mg  Mg74  1  0.83184663  0.83582537  0.25229832  1
  Mg  Mg75  1  0.33017521  0.08519927  0.24906752  1
  Mg  Mg76  1  0.49872983  0.33393417  0.25030401  1
  Mg  Mg77  1  0.50056026  0.83465907  0.74596228  1
  Mg  Mg78  1  0.83591161  0.33241813  0.25369207  1
  Mg  Mg79  1  0.00109984  0.58258242  0.74947876  1
  Mg  Mg80  1  0.83339624  0.33659093  0.75025522  1
  Mg  Mg81  1  0.66590374  0.41352872  0.25339086  1
  Mg  Mg82  1  0.82941884  0.66585830  0.25135951  1
  Mg  Mg83  1  0.16668373  0.83569313  0.75371138  1
  Mg  Mg84  1  0.50175461  0.66612668  0.74890159  1
  Mg  Mg85  1  0.33372516  0.41645677  0.75039846  1
  Mg  Mg86  1  -0.00080222  0.58329517  0.25200749  1
  Mg  Mg87  1  0.49897874  0.16532521  0.24699118  1
  Mg  Mg88  1  -0.00115638  0.08554160  0.75204281  1
  Mg  Mg89  1  0.66348472  0.58351593  0.25083772  1
  Mg  Mg90  1  0.00168752  0.08059925  0.25090846  1
  Mg  Mg91  1  0.16584545  0.16744009  0.75030439  1
  Mg  Mg92  1  0.50117332  0.66584512  0.24966678  1
  Mg  Mg93  1  0.16513953  0.16542522  0.24840252  1
  Mg  Mg94  1  0.16417910  0.83549885  0.24982723  1
  Mg  Mg95  1  0.00085081  0.41429165  0.25071047  1
  Fe  Fe96  1  0.63846370  0.33139193  0.39134053  1
  Fe  Fe97  1  0.64060661  0.66534784  0.39205390  1
  Fe  Fe98  1  0.13988620  0.91933727  0.89323508  1
  Fe  Fe99  1  0.52555574  0.57459967  0.10981859  1
  Fe  Fe100  1  0.97725798  0.33252945  0.39260232  1
  Fe  Fe101  1  0.69206560  0.16887114  0.60786109  1
  Fe  Fe102  1  0.19448357  0.42035090  0.10753393  1
  Fe  Fe103  1  0.64218262  0.84200053  0.39131566  1
  Fe  Fe104  1  0.02152724  0.33479953  0.10830683  1
  Fe  Fe105  1  0.18818179  0.08528208  0.10727882  1
  Fe  Fe106  1  0.52171358  0.91389821  0.60561056  1
  Fe  Fe107  1  0.81074034  0.07648035  0.89052035  1
  Fe  Fe108  1  0.64440698  0.32919908  0.89088501  1
  Fe  Fe109  1  0.14497073  0.07560646  0.38800513  1
  Fe  Fe110  1  0.18664969  0.91218803  0.10913312  1
  Fe  Fe111  1  0.69064447  0.83350423  0.11029641  1
  Fe  Fe112  1  0.52490370  0.08795311  0.10943749  1
  Si  Si113  1  0.14205890  0.58724308  0.38602743  1
  Si  Si114  1  0.30516487  0.82942405  0.38482016  1
  Si  Si115  1  0.80810568  0.90848614  0.88500483  1
  Si  Si116  1  0.02286196  0.33153720  0.61549143  1
  Si  Si117  1  0.51740415  0.08500464  0.60866810  1
  Si  Si118  1  0.97538293  0.83053846  0.38813261  1
  Si  Si119  1  0.81041965  0.08301578  0.38454705  1
  Si  Si120  1  0.19306422  0.91805243  0.61524857  1
  Si  Si121  1  0.86530039  0.08000279  0.11934400  1
  Si  Si122  1  0.36636007  0.83254687  0.11208538  1
  Si  Si123  1  0.85891463  0.41913346  0.61507735  1
  Si  Si124  1  0.30801270  0.17142073  0.88314308  1
  Si  Si125  1  0.69749320  0.83196650  0.61292076  1
  Si  Si126  1  0.47144759  0.08617156  0.38320023  1
  Si  Si127  1  0.81560163  0.42101944  0.88906774  1
  Si  Si128  1  0.97956942  0.66580837  0.88597444  1
  Si  Si129  1  0.80742665  0.41609061  0.39060461  1
  Si  Si130  1  0.14395141  0.09145090  0.88676829  1
  Si  Si131  1  0.52221830  0.91971035  0.10767256  1
  Si  Si132  1  0.18990209  0.58072923  0.61419053  1
  Si  Si133  1  0.35987573  0.66500254  0.11166931  1
  Si  Si134  1  0.81469241  0.92005351  0.38897263  1
  Si  Si135  1  0.30748526  0.33590787  0.88415012  1
  Si  Si136  1  0.46855524  0.92112830  0.38520223  1
  Si  Si137  1  0.85523159  0.42311383  0.11509781  1
  Si  Si138  1  0.52388826  0.58592023  0.61348095  1
  Si  Si139  1  0.85824850  0.58483908  0.11776889  1
  Si  Si140  1  0.69153866  0.33908873  0.61166255  1
  Si  Si141  1  0.14293760  0.90638073  0.39123244  1
  Si  Si142  1  0.31027666  0.17214619  0.38668148  1
  Si  Si143  1  0.52703670  0.40593744  0.11335230  1
  Si  Si144  1  0.14212345  0.42300845  0.38955637  1
  Si  Si145  1  0.97634256  0.16286164  0.39046035  1
  Si  Si146  1  0.47311763  0.91576870  0.88298859  1
  Si  Si147  1  0.47692444  0.58338960  0.88401788  1
  Si  Si148  1  0.18665102  0.59140398  0.11143706  1
  Si  Si149  1  0.63742080  0.15823501  0.88864315  1
  Si  Si150  1  0.46787236  0.08170133  0.88253797  1
  Si  Si151  1  0.97241279  0.82963120  0.88695240  1
  Si  Si152  1  0.35446554  0.66356735  0.61386968  1
  Si  Si153  1  0.69383500  0.66502798  0.61444430  1
  Si  Si154  1  0.97382251  0.66531159  0.38709840  1
  Si  Si155  1  0.81161135  0.58023789  0.38881926  1
  Si  Si156  1  0.64282050  0.66713092  0.88399606  1
  Si  Si157  1  0.02894980  0.83320597  0.61550931  1
  Si  Si158  1  0.35757943  0.17296274  0.11053530  1
  Si  Si159  1  0.69363211  0.66293957  0.11109163  1
  Si  Si160  1  0.02700741  0.66804809  0.61471731  1
  Si  Si161  1  0.46990962  0.41521475  0.38749380  1
  Si  Si162  1  0.64463173  0.15872413  0.38729109  1
  Si  Si163  1  0.97718805  0.33724149  0.88455209  1
  Si  Si164  1  0.69881554  0.33065742  0.11776121  1
  Si  Si165  1  0.14345599  0.41726779  0.88329434  1
  Si  Si166  1  0.36174685  0.33411084  0.11450431  1
  Si  Si167  1  0.18791138  0.41570898  0.61364853  1
  Si  Si168  1  0.86470008  0.91479265  0.61691263  1
  Si  Si169  1  0.35591671  0.33686010  0.61319193  1
  Si  Si170  1  0.02137936  0.82806984  0.11529367  1
  Si  Si171  1  0.81211848  0.58664220  0.88604824  1
  Si  Si172  1  0.47234228  0.41744641  0.88751489  1
  Si  Si173  1  0.31084730  0.66498842  0.88441503  1
  Si  Si174  1  0.86451539  0.08052565  0.61202845  1
  Si  Si175  1  0.19392607  0.08450642  0.61561060  1
  Si  Si176  1  0.86287637  0.91462903  0.11587119  1
  Si  Si177  1  0.70188096  0.16468724  0.11422419  1
  Si  Si178  1  0.02780021  0.16631165  0.61515169  1
  Si  Si179  1  0.01949528  0.66620322  0.11711297  1
  Si  Si180  1  0.31027561  0.83025496  0.88669876  1
  Si  Si181  1  0.14460519  0.58250996  0.88522966  1
  Si  Si182  1  0.01839654  0.16911832  0.11221618  1
  Si  Si183  1  0.35655426  0.17115035  0.61390538  1
  Si  Si184  1  0.63901544  0.83261960  0.88353500  1
  Si  Si185  1  0.30506053  0.66625987  0.38439448  1
  Si  Si186  1  0.46751198  0.58168025  0.38874323  1
  Si  Si187  1  0.35296846  0.82788991  0.61092599  1
  Si  Si188  1  0.30287361  0.33561643  0.38368201  1
  Si  Si189  1  0.52057054  0.42020944  0.61427304  1
  Si  Si190  1  0.97571714  0.17204890  0.88744703  1
  Si  Si191  1  0.86160517  0.58438835  0.61488792  1
  O  O192  1  0.28381387  0.11982064  0.07448329  1
  O  O193  1  0.27173905  0.12279035  0.58641184  1
  O  O194  1  0.26507913  0.63050190  0.08300188  1
  O  O195  1  0.27219838  0.61209672  0.58559242  1
  O  O196  1  0.62164355  0.12051261  0.07626962  1
  O  O197  1  0.59427029  0.11535813  0.57521412  1
  O  O198  1  0.62479698  0.60291712  0.07896189  1
  O  O199  1  0.60420667  0.62252821  0.58615124  1
  O  O200  1  0.94626909  0.10609396  0.08736773  1
  O  O201  1  0.94833914  0.11480264  0.58543706  1
  O  O202  1  0.94438582  0.60752590  0.08911321  1
  O  O203  1  0.93780187  0.62728986  0.58568158  1
  O  O204  1  0.10864032  0.36133322  0.06485378  1
  O  O205  1  0.10152880  0.37063483  0.58594560  1
  O  O206  1  0.10029682  0.84335024  0.07928783  1
  O  O207  1  0.10547580  0.87421448  0.58639595  1
  O  O208  1  0.45263336  0.34671162  0.08811972  1
  O  O209  1  0.43328725  0.37494643  0.58263725  1
  O  O210  1  0.44683526  0.86107579  0.07855145  1
  O  O211  1  0.42972929  0.85090936  0.57554425  1
  O  O212  1  0.77236597  0.37256013  0.08663085  1
  O  O213  1  0.76713980  0.38486521  0.58321061  1
  O  O214  1  0.78477234  0.86782608  0.07676147  1
  O  O215  1  0.78225783  0.86538326  0.58832911  1
  O  O216  1  0.29704982  0.39493921  0.07959548  1
  O  O217  1  0.26851683  0.38188619  0.58445473  1
  O  O218  1  0.28312574  0.87627961  0.07782305  1
  O  O219  1  0.26789665  0.87736801  0.58478690  1
  O  O220  1  0.61068565  0.37160597  0.08714685  1
  O  O221  1  0.60329305  0.38753913  0.58886765  1
  O  O222  1  0.60262561  0.89502060  0.07421243  1
  O  O223  1  0.61736643  0.87679541  0.57558974  1
  O  O224  1  0.93230451  0.40140844  0.07927962  1
  O  O225  1  0.93572787  0.37593910  0.58675531  1
  O  O226  1  0.94589010  0.88523222  0.08583204  1
  O  O227  1  0.94227750  0.87595707  0.58601155  1
  O  O228  1  0.09904067  0.15038780  0.07790030  1
  O  O229  1  0.10972775  0.13221432  0.58735703  1
  O  O230  1  0.10317416  0.64423501  0.08631165  1
  O  O231  1  0.10510143  0.62821635  0.58545513  1
  O  O232  1  0.44298829  0.15783845  0.07999314  1
  O  O233  1  0.43605938  0.14089770  0.58378674  1
  O  O234  1  0.42741170  0.62665312  0.07195056  1
  O  O235  1  0.43672329  0.63191731  0.58542814  1
  O  O236  1  0.78521842  0.13197472  0.08750311  1
  O  O237  1  0.78384470  0.12528980  0.57624138  1
  O  O238  1  0.78557664  0.64258442  0.08744104  1
  O  O239  1  0.77083234  0.62321506  0.58624631  1
  O  O240  1  0.04933702  0.10674938  0.42321880  1
  O  O241  1  0.06306574  0.12640723  0.91384351  1
  O  O242  1  0.06127370  0.62062017  0.41659125  1
  O  O243  1  0.06396428  0.61634721  0.91400697  1
  O  O244  1  0.40428782  0.13628037  0.41501744  1
  O  O245  1  0.38571151  0.11609917  0.90981869  1
  O  O246  1  0.38303038  0.61301503  0.41643609  1
  O  O247  1  0.39590498  0.61799199  0.91198726  1
  O  O248  1  0.72666112  0.10682440  0.41567366  1
  O  O249  1  0.70848468  0.09935690  0.91801937  1
  O  O250  1  0.73674994  0.60673511  0.42545752  1
  O  O251  1  0.73126859  0.62444608  0.91318938  1
  O  O252  1  0.22707543  0.37415788  0.41671949  1
  O  O253  1  0.22474521  0.36568108  0.91270052  1
  O  O254  1  0.22681543  0.85615782  0.42190121  1
  O  O255  1  0.23331418  0.85771910  0.92000529  1
  O  O256  1  0.54751677  0.36870187  0.42780075  1
  O  O257  1  0.55006235  0.37007283  0.92341177  1
  O  O258  1  0.55322444  0.88579299  0.42684458  1
  O  O259  1  0.55957097  0.87047275  0.91102663  1
  O  O260  1  0.88176953  0.36293741  0.42627618  1
  O  O261  1  0.90347608  0.37618487  0.91820301  1
  O  O262  1  0.90068068  0.87114427  0.41907965  1
  O  O263  1  0.88024910  0.84577659  0.90833941  1
  O  O264  1  0.06797773  0.39528756  0.42711244  1
  O  O265  1  0.06218713  0.38586998  0.91118794  1
  O  O266  1  0.06476938  0.86726723  0.42306724  1
  O  O267  1  0.04294365  0.88511428  0.92298659  1
  O  O268  1  0.38517848  0.38444222  0.41370124  1
  O  O269  1  0.38474620  0.39060874  0.91231594  1
  O  O270  1  0.38777252  0.88049615  0.41131388  1
  O  O271  1  0.39700387  0.87630845  0.91280860  1
  O  O272  1  0.72323040  0.39924391  0.42126430  1
  O  O273  1  0.73942869  0.38847788  0.92159181  1
  O  O274  1  0.74154237  0.89411431  0.42834527  1
  O  O275  1  0.72392549  0.87727365  0.91337990  1
  O  O276  1  0.24191552  0.13195755  0.42341632  1
  O  O277  1  0.22296212  0.14830502  0.91055304  1
  O  O278  1  0.22241563  0.63889082  0.41702389  1
  O  O279  1  0.23059436  0.62946686  0.91309177  1
  O  O280  1  0.56525067  0.11853279  0.41435003  1
  O  O281  1  0.54793422  0.13150718  0.91254352  1
  O  O282  1  0.54822533  0.62525976  0.42648873  1
  O  O283  1  0.56325901  0.62889296  0.91178524  1
  O  O284  1  0.88668480  0.13843100  0.41524669  1
  O  O285  1  0.89974076  0.14182010  0.92123220  1
  O  O286  1  0.89753513  0.62826023  0.41797490  1
  O  O287  1  0.89784817  0.63340558  0.91466886  1
  O  O288  1  0.15899351  -0.00181860  0.06566033  1
  O  O289  1  0.18230241  0.00142935  0.58767430  1
  O  O290  1  0.16778006  0.51575422  0.07343437  1
  O  O291  1  0.17361536  0.49865781  0.58531015  1
  O  O292  1  0.48941465  -0.00276924  0.07574537  1
  O  O293  1  0.48640944  0.00700772  0.57805054  1
  O  O294  1  0.50492996  0.48072684  0.07384921  1
  O  O295  1  0.50806177  0.50351266  0.58430241  1
  O  O296  1  0.84499827  -0.00150427  0.09000705  1
  O  O297  1  0.85638982  -0.00383667  0.58517557  1
  O  O298  1  0.82630454  0.50558582  0.08912097  1
  O  O299  1  0.86120764  0.50221126  0.58567533  1
  O  O300  1  -0.02345684  0.24416483  0.08127125  1
  O  O301  1  0.01322665  0.24883108  0.58592288  1
  O  O302  1  -0.01447412  0.74575449  0.09036958  1
  O  O303  1  0.02333746  0.75050812  0.58536716  1
  O  O304  1  0.32597055  0.25543753  0.08563611  1
  O  O305  1  0.33931554  0.25415057  0.58582821  1
  O  O306  1  0.35154700  0.74840232  0.08426636  1
  O  O307  1  0.32659760  0.74403237  0.58643947  1
  O  O308  1  0.69394777  0.24921857  0.08715724  1
  O  O309  1  0.67735356  0.26347465  0.57262242  1
  O  O310  1  0.66657037  0.73982626  0.07632730  1
  O  O311  1  0.68961660  0.74700074  0.58587055  1
  O  O312  1  0.16072777  -0.01668876  0.42764637  1
  O  O313  1  0.17068935  0.01423621  0.91839237  1
  O  O314  1  0.16433429  0.50680362  0.41740565  1
  O  O315  1  0.16147290  0.49991364  0.91253569  1
  O  O316  1  0.46486936  0.00511763  0.41320693  1
  O  O317  1  0.48185093  -0.00117623  0.91011013  1
  O  O318  1  0.47692061  0.49832592  0.41745071  1
  O  O319  1  0.48805030  0.50187036  0.91280258  1
  O  O320  1  0.84074744  0.00317925  0.41403960  1
  O  O321  1  0.83852433  -0.01757742  0.92314535  1
  O  O322  1  0.84036243  0.49848638  0.41366080  1
  O  O323  1  0.82930379  0.50580982  0.91651383  1
  O  O324  1  0.31759784  0.25539485  0.41765578  1
  O  O325  1  0.33151161  0.25368406  0.91042087  1
  O  O326  1  0.32822389  0.74708966  0.41527564  1
  O  O327  1  0.33018732  0.74619266  0.91232621  1
  O  O328  1  0.66066554  0.23629087  0.42338214  1
  O  O329  1  0.66043640  0.23526323  0.92483039  1
  O  O330  1  0.65922398  0.75322963  0.43363341  1
  O  O331  1  0.65015976  0.74964498  0.91302743  1
  O  O332  1  1.00255930  0.24014079  0.42589597  1
  O  O333  1  0.99603195  0.25568818  0.91381108  1
  O  O334  1  0.98365008  0.74711302  0.41779003  1
  O  O335  1  0.99817390  0.74677750  0.91500326  1
  O  O336  1  0.21330651  0.08943185  0.19715499  1
  O  O337  1  0.21064785  0.08436226  0.69621367  1
  O  O338  1  0.20564932  0.58622430  0.19217198  1
  O  O339  1  0.20981801  0.58336254  0.69464653  1
  O  O340  1  0.54832281  0.08498803  0.20076094  1
  O  O341  1  0.53809870  0.08477924  0.69066290  1
  O  O342  1  0.54371026  0.57852547  0.20087288  1
  O  O343  1  0.54166781  0.58502082  0.69394778  1
  O  O344  1  0.88071202  0.08488025  0.19864507  1
  O  O345  1  0.88061729  0.08312967  0.69297141  1
  O  O346  1  0.87635342  0.58360327  0.19844688  1
  O  O347  1  0.88001216  0.58561847  0.69517260  1
  O  O348  1  0.04512337  0.33519952  0.20047562  1
  O  O349  1  0.04451182  0.33110496  0.69508387  1
  O  O350  1  0.03840519  0.83002233  0.19612304  1
  O  O351  1  0.04637339  0.83118810  0.69557931  1
  O  O352  1  0.37908206  0.33305028  0.19489845  1
  O  O353  1  0.37384424  0.33622148  0.69379376  1
  O  O354  1  0.38868821  0.83615357  0.19052688  1
  O  O355  1  0.37326094  0.83084063  0.69236952  1
  O  O356  1  0.71491032  0.33208838  0.19782242  1
  O  O357  1  0.71548099  0.33032473  0.69101839  1
  O  O358  1  0.71409491  0.83141260  0.20136228  1
  O  O359  1  0.70735728  0.83203128  0.69298729  1
  O  O360  1  0.20491611  0.41890922  0.19818344  1
  O  O361  1  0.20936850  0.41701454  0.69404929  1
  O  O362  1  0.19431117  0.91789852  0.19676129  1
  O  O363  1  0.21158272  0.91678069  0.69564902  1
  O  O364  1  0.54448383  0.41457278  0.19375328  1
  O  O365  1  0.52945135  0.42030968  0.69346622  1
  O  O366  1  0.54354435  0.91940821  0.18890850  1
  O  O367  1  0.54317816  0.91492805  0.69785292  1
  O  O368  1  0.87416882  0.41980015  0.19591489  1
  O  O369  1  0.87459062  0.41893618  0.69467393  1
  O  O370  1  0.87971392  0.90998019  0.19573392  1
  O  O371  1  0.88328783  0.91802205  0.69667142  1
  O  O372  1  0.03951097  0.16930580  0.19352267  1
  O  O373  1  0.04473204  0.16787184  0.69580900  1
  O  O374  1  0.03889412  0.66449791  0.19752516  1
  O  O375  1  0.04595086  0.66716959  0.69507920  1
  O  O376  1  0.37543642  0.17070436  0.19210330  1
  O  O377  1  0.37369614  0.16902745  0.69448281  1
  O  O378  1  0.38152891  0.65711947  0.19109772  1
  O  O379  1  0.37481109  0.66446557  0.69458807  1
  O  O380  1  0.71338636  0.16565344  0.19483039  1
  O  O381  1  0.70967881  0.16814361  0.69969046  1
  O  O382  1  0.71123281  0.66351702  0.19256254  1
  O  O383  1  0.71074120  0.66582360  0.69487363  1
  O  O384  1  0.12003567  0.08655472  0.29922017  1
  O  O385  1  0.12446895  0.08762817  0.80512027  1
  O  O386  1  0.12148243  0.58540263  0.30609765  1
  O  O387  1  0.12619469  0.58419580  0.80455864  1
  O  O388  1  0.45562078  0.08739171  0.30360351  1
  O  O389  1  0.45282359  0.08231405  0.80152975  1
  O  O390  1  0.45372569  0.58324295  0.30850549  1
  O  O391  1  0.45596603  0.58511209  0.80324245  1
  O  O392  1  0.78885972  0.08545822  0.30520076  1
  O  O393  1  0.79119487  0.08065174  0.79863848  1
  O  O394  1  0.79154202  0.58308977  0.30777705  1
  O  O395  1  0.79346025  0.58631157  0.80558908  1
  O  O396  1  0.28523591  0.33218009  0.30461623  1
  O  O397  1  0.28868558  0.33529510  0.80308065  1
  O  O398  1  0.27719112  0.82984066  0.30738063  1
  O  O399  1  0.29160857  0.83156168  0.80499089  1
  O  O400  1  0.62168626  0.33093100  0.30002124  1
  O  O401  1  0.61723008  0.32583024  0.80057116  1
  O  O402  1  0.62218509  0.83543404  0.29989935  1
  O  O403  1  0.62178317  0.83065642  0.80316919  1
  O  O404  1  0.95524172  0.33441177  0.30138123  1
  O  O405  1  0.95606093  0.33390263  0.80474660  1
  O  O406  1  0.95651127  0.83035130  0.30829544  1
  O  O407  1  0.96337252  0.83084792  0.80660806  1
  O  O408  1  0.12176409  0.42191763  0.30949015  1
  O  O409  1  0.12872510  0.41861493  0.80344096  1
  O  O410  1  0.11714975  0.90618905  0.31221958  1
  O  O411  1  0.12276902  0.91719583  0.80051721  1
  O  O412  1  0.46301711  0.41527082  0.30816933  1
  O  O413  1  0.45473828  0.41751360  0.80602963  1
  O  O414  1  0.46518198  0.91980702  0.30646606  1
  O  O415  1  0.45393085  0.91502497  0.80222661  1
  O  O416  1  0.79106575  0.41444550  0.30896614  1
  O  O417  1  0.80282681  0.42050780  0.80905735  1
  O  O418  1  0.79237394  0.91396599  0.30960062  1
  O  O419  1  0.78650579  0.91653868  0.80485714  1
  O  O420  1  0.29178240  0.17310484  0.30653415  1
  O  O421  1  0.28980639  0.16963891  0.80217807  1
  O  O422  1  0.28385871  0.66088350  0.30542908  1
  O  O423  1  0.29040831  0.66516099  0.80348254  1
  O  O424  1  0.62673126  0.16454992  0.30700110  1
  O  O425  1  0.61967657  0.16278689  0.80685597  1
  O  O426  1  0.62482337  0.66617287  0.30038519  1
  O  O427  1  0.62406643  0.66770125  0.80341275  1
  O  O428  1  0.95849915  0.16652029  0.30928833  1
  O  O429  1  0.95748413  0.16907390  0.80581539  1
  O  O430  1  0.95576286  0.66510520  0.30705066  1
  O  O431  1  0.96091748  0.66513682  0.80530969  1
  F  F432  1  0.03577404  -0.00157819  0.19937906  1
  F  F433  1  0.04636784  0.00294550  0.70254223  1
  F  F434  1  0.04372771  0.50183505  0.20460868  1
  F  F435  1  0.04947069  0.50768296  0.69687319  1
  F  F436  1  0.38305620  0.01196675  0.19790216  1
  F  F437  1  0.37471338  -0.00038652  0.70006146  1
  F  F438  1  0.37935008  0.50099158  0.20325036  1
  F  F439  1  0.37697321  0.50120786  0.70213060  1
  F  F440  1  0.71188859  -0.00150468  0.20152022  1
  F  F441  1  0.71169651  -0.00208841  0.69867182  1
  F  F442  1  0.71313841  0.49757272  0.20673532  1
  F  F443  1  0.71890020  0.51083172  0.70006678  1
  F  F444  1  0.21008685  0.25160865  0.20182547  1
  F  F445  1  0.21065246  0.25197084  0.70059369  1
  F  F446  1  0.19397552  0.74931049  0.19768008  1
  F  F447  1  0.21148460  0.74974671  0.70217356  1
  F  F448  1  0.54746217  0.24825471  0.20197466  1
  F  F449  1  0.53987583  0.24895941  0.69865769  1
  F  F450  1  0.54568477  0.74771732  0.19747194  1
  F  F451  1  0.54510738  0.74771370  0.70031170  1
  F  F452  1  0.87689949  0.24844981  0.20459944  1
  F  F453  1  0.87996242  0.25038120  0.70227565  1
  F  F454  1  0.87778866  0.74774035  0.20582552  1
  F  F455  1  0.88395494  0.74429549  0.69985200  1
  F  F456  1  0.29225177  0.01525356  0.30947667  1
  F  F457  1  0.28935387  0.00047157  0.79716328  1
  F  F458  1  0.28390263  0.50709762  0.30076738  1
  F  F459  1  0.28687602  0.50105593  0.79673141  1
  F  F460  1  0.62316432  -0.00176374  0.29820875  1
  F  F461  1  0.61937854  0.00049018  0.79418295  1
  F  F462  1  0.62190615  0.49723758  0.30075372  1
  F  F463  1  0.61636227  0.51289924  0.80169401  1
  F  F464  1  0.95958891  -0.00204368  0.30210227  1
  F  F465  1  0.95627803  0.00144923  0.79864805  1
  F  F466  1  0.95490990  0.50058892  0.30032499  1
  F  F467  1  0.95761492  0.50526027  0.79853432  1
  F  F468  1  0.12285570  0.25076892  0.29965572  1
  F  F469  1  0.12264705  0.25171021  0.79786120  1
  F  F470  1  0.11625508  0.74539367  0.30125044  1
  F  F471  1  0.12353419  0.74783375  0.79838434  1
  F  F472  1  0.45474512  0.24964255  0.29711014  1
  F  F473  1  0.45092017  0.25053240  0.79551740  1
  F  F474  1  0.46778337  0.74918561  0.30071504  1
  F  F475  1  0.45442358  0.74924657  0.79532205  1
  F  F476  1  0.78862506  0.24820831  0.29987117  1
  F  F477  1  0.79015045  0.25298765  0.79859779  1
  F  F478  1  0.79012998  0.74686618  0.30181786  1
  F  F479  1  0.78647190  0.74489443  0.79836849  1
