# generated using pymatgen
data_K24Na3Li5Mg64Fe17Si79(O5F)48
_symmetry_space_group_name_H-M   'P 1'
_cell_length_a   16.09178412
_cell_length_b   18.59423606
_cell_length_c   20.55813461
_cell_angle_alpha   89.98320924
_cell_angle_beta   100.01037591
_cell_angle_gamma   90.03048307
_symmetry_Int_Tables_number   1
_chemical_formula_structural   K24Na3Li5Mg64Fe17Si79(O5F)48
_chemical_formula_sum   'K24 Na3 Li5 Mg64 Fe17 Si79 O240 F48'
_cell_volume   6057.64413533
_cell_formula_units_Z   1
loop_
 _symmetry_equiv_pos_site_id
 _symmetry_equiv_pos_as_xyz
  1  'x, y, z'
loop_
 _atom_site_type_symbol
 _atom_site_label
 _atom_site_symmetry_multiplicity
 _atom_site_fract_x
 _atom_site_fract_y
 _atom_site_fract_z
 _atom_site_occupancy
  K  K0  1  -0.00778792  0.00173045  0.00456573  1
  K  K1  1  -0.00564512  -0.00040926  0.49654417  1
  K  K2  1  -0.00009586  0.50596372  0.00135099  1
  K  K3  1  0.00909056  0.49396884  0.49896562  1
  K  K4  1  0.34028040  -0.00262840  0.00120362  1
  K  K5  1  0.34270029  -0.00545032  0.49968358  1
  K  K6  1  0.34133050  0.51334536  -0.01037372  1
  K  K7  1  0.33030876  0.50199705  0.50932405  1
  K  K8  1  0.66956358  0.00158948  0.00509140  1
  K  K9  1  0.65899216  0.00120472  0.49400616  1
  K  K10  1  0.66055244  0.49937649  -0.00460584  1
  K  K11  1  0.66162005  0.49114689  0.50702151  1
  K  K12  1  0.16802270  0.25281207  -0.00177373  1
  K  K13  1  0.15688556  0.26138114  0.49660967  1
  K  K14  1  0.17156133  0.73865269  0.00187638  1
  K  K15  1  0.16698302  0.74421600  0.50275287  1
  K  K16  1  0.50633435  0.25633401  -0.00340400  1
  K  K17  1  0.51265794  0.25551290  0.50487878  1
  K  K18  1  0.49434800  0.75035156  -0.00017462  1
  K  K19  1  0.49826031  0.74461704  0.50173388  1
  K  K20  1  0.82683015  0.24954786  0.00543504  1
  K  K21  1  0.83026456  0.25562454  0.49576360  1
  K  K22  1  0.83582875  0.74397848  0.00368117  1
  K  K23  1  0.82288396  0.74585722  0.49436880  1
  Na  Na24  1  0.67235157  0.24832847  0.25279203  1
  Na  Na25  1  0.66834035  0.41571928  0.25160893  1
  Na  Na26  1  0.17185807  0.66713358  0.75564153  1
  Li  Li27  1  0.33755631  0.74843386  0.24588848  1
  Li  Li28  1  0.48850071  0.50694681  0.75338247  1
  Li  Li29  1  0.67161421  0.08792694  0.25131156  1
  Li  Li30  1  0.82305459  0.16738738  0.25228074  1
  Li  Li31  1  0.33708837  0.58425487  0.75143087  1
  Mg  Mg32  1  0.83482711  0.49833849  0.24797747  1
  Mg  Mg33  1  0.50033869  0.49902810  0.24952793  1
  Mg  Mg34  1  0.16738415  0.00163163  0.75087725  1
  Mg  Mg35  1  0.16740096  -0.00168117  0.25097199  1
  Mg  Mg36  1  0.16593309  0.50009531  0.25281645  1
  Mg  Mg37  1  0.33353319  0.25153314  0.75686017  1
  Mg  Mg38  1  0.83111558  0.50036107  0.74644158  1
  Mg  Mg39  1  0.00365830  0.74795089  0.75281549  1
  Mg  Mg40  1  -0.00016214  0.75084765  0.24557308  1
  Mg  Mg41  1  -0.00491350  0.24763709  0.25438405  1
  Mg  Mg42  1  -0.00057017  0.25106940  0.74861698  1
  Mg  Mg43  1  0.50376065  0.00088062  0.25086060  1
  Mg  Mg44  1  0.17010649  0.50132836  0.75537916  1
  Mg  Mg45  1  0.83323603  -0.00088986  0.74921272  1
  Mg  Mg46  1  0.66546155  0.25224665  0.75086052  1
  Mg  Mg47  1  0.82800620  0.00275298  0.24439990  1
  Mg  Mg48  1  0.33204883  0.24970583  0.25294832  1
  Mg  Mg49  1  0.33578345  0.74891252  0.74540638  1
  Mg  Mg50  1  0.50101993  0.00002516  0.74872950  1
  Mg  Mg51  1  0.66657148  0.75057777  0.24619084  1
  Mg  Mg52  1  0.66461227  0.74871947  0.74751224  1
  Mg  Mg53  1  0.00018106  0.41475031  0.25156588  1
  Mg  Mg54  1  0.83046018  0.16587225  0.74683005  1
  Mg  Mg55  1  -0.00612387  0.08314985  0.24847680  1
  Mg  Mg56  1  -0.00055944  0.08384109  0.75000094  1
  Mg  Mg57  1  0.83577721  0.32938174  0.25193496  1
  Mg  Mg58  1  0.00263553  0.91432116  0.75046780  1
  Mg  Mg59  1  0.49999608  0.83486952  0.74620754  1
  Mg  Mg60  1  0.83362308  0.83257274  0.74866873  1
  Mg  Mg61  1  0.50475886  0.16677746  0.25227387  1
  Mg  Mg62  1  0.33404815  0.58640225  0.24833200  1
  Mg  Mg63  1  0.50089007  0.33861237  0.75211839  1
  Mg  Mg64  1  0.16729099  0.33513867  0.75506213  1
  Mg  Mg65  1  0.16471562  0.16478539  0.25266118  1
  Mg  Mg66  1  0.83166522  0.66497391  0.24483544  1
  Mg  Mg67  1  0.49841403  0.83383491  0.24834609  1
  Mg  Mg68  1  0.33196085  0.41581029  0.25345061  1
  Mg  Mg69  1  0.16409294  0.33428594  0.25508718  1
  Mg  Mg70  1  0.66491991  0.91600596  0.74655132  1
  Mg  Mg71  1  0.33619939  0.08344487  0.25384093  1
  Mg  Mg72  1  0.33451200  0.08628113  0.75434970  1
  Mg  Mg73  1  0.17080957  0.83473632  0.75053907  1
  Mg  Mg74  1  0.50117897  0.16725228  0.75265166  1
  Mg  Mg75  1  0.66447644  0.08577882  0.74725458  1
  Mg  Mg76  1  -0.00020830  0.58464885  0.24923108  1
  Mg  Mg77  1  0.83231396  0.66535944  0.75029460  1
  Mg  Mg78  1  0.33757101  0.91350743  0.25044105  1
  Mg  Mg79  1  0.66046568  0.58232390  0.75014932  1
  Mg  Mg80  1  0.33657206  0.42189285  0.75532212  1
  Mg  Mg81  1  0.66607734  0.58213187  0.24613720  1
  Mg  Mg82  1  0.00074014  0.41654185  0.74945306  1
  Mg  Mg83  1  0.49700476  0.66269667  0.74971058  1
  Mg  Mg84  1  0.66258835  0.41646192  0.74754927  1
  Mg  Mg85  1  0.83135661  0.33498413  0.74579394  1
  Mg  Mg86  1  0.17000237  0.83220102  0.24754173  1
  Mg  Mg87  1  0.49760895  0.66690354  0.24773904  1
  Mg  Mg88  1  0.66542960  0.91717691  0.24641851  1
  Mg  Mg89  1  0.16711817  0.16714854  0.75268466  1
  Mg  Mg90  1  0.33548320  0.91663874  0.74786760  1
  Mg  Mg91  1  0.82917343  0.83579107  0.24454607  1
  Mg  Mg92  1  0.00251695  0.58341101  0.75108535  1
  Mg  Mg93  1  0.49921325  0.33192607  0.25042350  1
  Mg  Mg94  1  -0.00366402  0.91618125  0.24528528  1
  Mg  Mg95  1  0.17013883  0.66739635  0.24777198  1
  Fe  Fe96  1  0.96923455  0.32720634  0.39292091  1
  Fe  Fe97  1  0.14285771  0.58121850  0.89435799  1
  Fe  Fe98  1  0.64596497  0.67008698  0.88985516  1
  Fe  Fe99  1  0.52738743  0.91699743  0.60641359  1
  Fe  Fe100  1  0.14149037  0.42107059  0.39365418  1
  Fe  Fe101  1  0.85815959  0.58214958  0.10837676  1
  Fe  Fe102  1  0.52006027  0.58066449  0.60877626  1
  Fe  Fe103  1  0.69554434  0.33128343  0.60827290  1
  Fe  Fe104  1  0.68442800  0.83034269  0.10559368  1
  Fe  Fe105  1  0.36202138  0.66763617  0.10826521  1
  Fe  Fe106  1  0.85994364  0.91501732  0.10475799  1
  Fe  Fe107  1  0.47657018  0.91730709  0.38956844  1
  Fe  Fe108  1  0.35467872  0.83149652  0.60661790  1
  Fe  Fe109  1  0.64238657  0.16801899  0.88962350  1
  Fe  Fe110  1  0.47540861  0.42352132  0.89219665  1
  Fe  Fe111  1  0.02579785  0.33451094  0.61231571  1
  Fe  Fe112  1  0.30589239  0.16345990  0.89385494  1
  Si  Si113  1  0.35529372  0.33281069  0.11653667  1
  Si  Si114  1  0.18759246  0.08657690  0.61553894  1
  Si  Si115  1  0.64142545  0.66254178  0.38228078  1
  Si  Si116  1  0.19804222  0.91953039  0.11532059  1
  Si  Si117  1  0.36017149  0.83876221  0.11099187  1
  Si  Si118  1  0.81164969  0.91951339  0.88217527  1
  Si  Si119  1  0.80401589  0.91672035  0.38433582  1
  Si  Si120  1  0.13963445  0.91156294  0.38327102  1
  Si  Si121  1  0.19758551  0.41451775  0.61849861  1
  Si  Si122  1  0.02592518  0.33009898  0.11561974  1
  Si  Si123  1  0.80453049  0.08029184  0.38434788  1
  Si  Si124  1  0.52849189  0.57567439  0.11182508  1
  Si  Si125  1  0.69365710  0.32974788  0.11535678  1
  Si  Si126  1  0.34976838  0.66504954  0.60927914  1
  Si  Si127  1  0.35392543  0.16922705  0.61719692  1
  Si  Si128  1  0.97126611  0.33092288  0.88456868  1
  Si  Si129  1  0.51817226  0.08785959  0.61200138  1
  Si  Si130  1  0.85672339  0.41131125  0.11014106  1
  Si  Si131  1  0.19151958  0.57664070  0.61878102  1
  Si  Si132  1  0.31005586  0.33095352  0.39068874  1
  Si  Si133  1  0.80737082  0.08148658  0.88398842  1
  Si  Si134  1  0.80804493  0.58011269  0.88406655  1
  Si  Si135  1  0.13199699  0.08240646  0.88876278  1
  Si  Si136  1  0.02812568  0.66566724  0.61564012  1
  Si  Si137  1  0.85880793  0.07430938  0.61351582  1
  Si  Si138  1  0.69300971  0.16004332  0.60966031  1
  Si  Si139  1  0.80877417  0.58288883  0.38438784  1
  Si  Si140  1  0.52173013  0.40907060  0.60962379  1
  Si  Si141  1  0.85540707  0.08540481  0.10954383  1
  Si  Si142  1  0.97667008  0.15571841  0.38888555  1
  Si  Si143  1  0.30726621  0.33391518  0.89289676  1
  Si  Si144  1  0.30453212  0.83361964  0.38403585  1
  Si  Si145  1  0.02477762  0.16640798  0.11558240  1
  Si  Si146  1  0.01950310  0.16468736  0.61342033  1
  Si  Si147  1  0.97067635  0.66684446  0.88818392  1
  Si  Si148  1  0.69326627  0.66828735  0.61108086  1
  Si  Si149  1  0.14047420  0.91678540  0.88602723  1
  Si  Si150  1  0.31006041  0.66905115  0.38307596  1
  Si  Si151  1  0.97215364  0.67156842  0.38400494  1
  Si  Si152  1  0.19071299  0.08372883  0.11650693  1
  Si  Si153  1  0.64308798  0.17066000  0.38723638  1
  Si  Si154  1  0.52153938  0.08845611  0.11586604  1
  Si  Si155  1  0.86026731  0.59037910  0.61406756  1
  Si  Si156  1  0.14273493  0.59285532  0.38777004  1
  Si  Si157  1  0.14378531  0.07699025  0.38643594  1
  Si  Si158  1  0.48018295  0.08869234  0.39010589  1
  Si  Si159  1  0.47430922  0.07997806  0.88963211  1
  Si  Si160  1  0.03551132  0.83402265  0.11085920  1
  Si  Si161  1  0.68578356  0.66311934  0.11124637  1
  Si  Si162  1  0.13962260  0.41180669  0.89106759  1
  Si  Si163  1  0.31114566  0.84107247  0.88642560  1
  Si  Si164  1  0.35808940  0.33157345  0.61917181  1
  Si  Si165  1  0.81220152  0.41824290  0.88256170  1
  Si  Si166  1  0.96773288  0.16633654  0.88307647  1
  Si  Si167  1  0.03230685  0.83135785  0.61466904  1
  Si  Si168  1  0.86174696  0.42555662  0.60961620  1
  Si  Si169  1  0.35582713  0.16784258  0.11731595  1
  Si  Si170  1  0.19075660  0.92313094  0.61229614  1
  Si  Si171  1  0.80686731  0.41791165  0.38757804  1
  Si  Si172  1  0.47446094  0.59518449  0.89180878  1
  Si  Si173  1  0.69843396  0.83408080  0.61159286  1
  Si  Si174  1  0.52219872  0.41075084  0.11581735  1
  Si  Si175  1  0.69078707  0.16511628  0.11583974  1
  Si  Si176  1  0.52339717  0.92389023  0.11017971  1
  Si  Si177  1  0.86591438  0.90950163  0.61439583  1
  Si  Si178  1  0.64813501  0.33778706  0.88997601  1
  Si  Si179  1  0.47453637  0.41556443  0.38730573  1
  Si  Si180  1  0.03140819  0.66711466  0.11216234  1
  Si  Si181  1  0.63779242  0.33571756  0.38548631  1
  Si  Si182  1  0.64279694  0.82789344  0.38581079  1
  Si  Si183  1  0.31072324  0.67716106  0.88758580  1
  Si  Si184  1  0.48091557  0.91704225  0.88492073  1
  Si  Si185  1  0.97417112  0.83236736  0.88489435  1
  Si  Si186  1  0.30841397  0.16419688  0.38787730  1
  Si  Si187  1  0.19445454  0.57882835  0.11429650  1
  Si  Si188  1  0.64904760  0.83801669  0.88526186  1
  Si  Si189  1  0.97042386  0.83658829  0.38309912  1
  Si  Si190  1  0.18992652  0.41445232  0.11667593  1
  Si  Si191  1  0.47386759  0.58185974  0.38446801  1
  O  O192  1  0.27005749  0.12036574  0.08759790  1
  O  O193  1  0.27153994  0.11725429  0.58812649  1
  O  O194  1  0.27082108  0.60416433  0.07866057  1
  O  O195  1  0.26903169  0.60839000  0.58527094  1
  O  O196  1  0.60100674  0.12195969  0.08485010  1
  O  O197  1  0.60205223  0.11897889  0.58408402  1
  O  O198  1  0.61873381  0.59595211  0.08944314  1
  O  O199  1  0.61707388  0.61826835  0.57557173  1
  O  O200  1  0.93595321  0.12820286  0.08301325  1
  O  O201  1  0.94141948  0.10683323  0.58629647  1
  O  O202  1  0.94950085  0.62451609  0.07546424  1
  O  O203  1  0.94068408  0.62298470  0.58279097  1
  O  O204  1  0.10525420  0.36722347  0.08635864  1
  O  O205  1  0.12719638  0.35751864  0.58464490  1
  O  O206  1  0.12165734  0.86473860  0.08566649  1
  O  O207  1  0.10779656  0.87109956  0.58433374  1
  O  O208  1  0.43606333  0.36337994  0.08593174  1
  O  O209  1  0.44060340  0.35217125  0.58687884  1
  O  O210  1  0.43826475  0.87634207  0.08070129  1
  O  O211  1  0.44726039  0.85289799  0.56745700  1
  O  O212  1  0.77050480  0.36418571  0.08028382  1
  O  O213  1  0.78363680  0.37631707  0.57418072  1
  O  O214  1  0.77653039  0.85294560  0.06642977  1
  O  O215  1  0.78859167  0.85535938  0.58601886  1
  O  O216  1  0.26969198  0.37941189  0.08668429  1
  O  O217  1  0.28472185  0.39034984  0.59123800  1
  O  O218  1  0.28072228  0.89559654  0.08512390  1
  O  O219  1  0.26728082  0.90038077  0.57636619  1
  O  O220  1  0.60344046  0.37391029  0.08936004  1
  O  O221  1  0.59522398  0.37729910  0.57133802  1
  O  O222  1  0.59861908  0.89806963  0.07344609  1
  O  O223  1  0.63092520  0.89255701  0.57834584  1
  O  O224  1  0.93691574  0.36894505  0.08384510  1
  O  O225  1  0.94743743  0.40659173  0.58193579  1
  O  O226  1  0.95971619  0.88325685  0.07429576  1
  O  O227  1  0.94677257  0.87768378  0.58441821  1
  O  O228  1  0.10337172  0.12721450  0.08645067  1
  O  O229  1  0.10502820  0.13630596  0.58593342  1
  O  O230  1  0.11331983  0.63078421  0.08663784  1
  O  O231  1  0.10607947  0.62616148  0.58792650  1
  O  O232  1  0.43546074  0.13649489  0.08619922  1
  O  O233  1  0.43709786  0.14324531  0.58655987  1
  O  O234  1  0.45446597  0.62748343  0.07535872  1
  O  O235  1  0.42607458  0.63758485  0.57234213  1
  O  O236  1  0.76915724  0.13255553  0.08120243  1
  O  O237  1  0.76899565  0.11254784  0.58314871  1
  O  O238  1  0.76869144  0.64491662  0.07905923  1
  O  O239  1  0.78164460  0.64398285  0.58460743  1
  O  O240  1  0.06304594  0.10548205  0.41769656  1
  O  O241  1  0.04473089  0.11155021  0.91305239  1
  O  O242  1  0.06348313  0.63531564  0.41469218  1
  O  O243  1  0.04845165  0.62082383  0.92675056  1
  O  O244  1  0.39579306  0.12158046  0.41721860  1
  O  O245  1  0.38847713  0.09310555  0.91979997  1
  O  O246  1  0.39552681  0.62132065  0.41281614  1
  O  O247  1  0.39178804  0.62845871  0.92121353  1
  O  O248  1  0.73116872  0.12510262  0.41621981  1
  O  O249  1  0.72878526  0.09996470  0.91931125  1
  O  O250  1  0.72923836  0.61958684  0.41354905  1
  O  O251  1  0.72905535  0.59908817  0.91906622  1
  O  O252  1  0.24007486  0.36687961  0.42686280  1
  O  O253  1  0.21534913  0.35335985  0.91635112  1
  O  O254  1  0.21629001  0.85659257  0.41194361  1
  O  O255  1  0.23121651  0.87865954  0.91626141  1
  O  O256  1  0.56080155  0.37219269  0.41921335  1
  O  O257  1  0.57198490  0.36620841  0.92558831  1
  O  O258  1  0.57156588  0.86095051  0.42323403  1
  O  O259  1  0.56284302  0.86589497  0.91215190  1
  O  O260  1  0.87931361  0.36777704  0.42844997  1
  O  O261  1  0.88991175  0.36271987  0.91370762  1
  O  O262  1  0.89644640  0.87875671  0.41408549  1
  O  O263  1  0.89340709  0.86864964  0.91216344  1
  O  O264  1  0.06014306  0.38131580  0.43446943  1
  O  O265  1  0.05496194  0.37662996  0.91680675  1
  O  O266  1  0.05729784  0.88129397  0.41314995  1
  O  O267  1  0.06220018  0.87622758  0.91388402  1
  O  O268  1  0.40001418  0.37324715  0.41725256  1
  O  O269  1  0.37800407  0.39157409  0.92486928  1
  O  O270  1  0.37703848  0.88778792  0.41857406  1
  O  O271  1  0.39718498  0.88853506  0.91479171  1
  O  O272  1  0.71741974  0.39033044  0.40983734  1
  O  O273  1  0.72956373  0.39401775  0.91302213  1
  O  O274  1  0.73440955  0.86834192  0.41480112  1
  O  O275  1  0.72551617  0.89856908  0.90958022  1
  O  O276  1  0.22939942  0.12437893  0.41592120  1
  O  O277  1  0.20789501  0.13118218  0.92620579  1
  O  O278  1  0.22816936  0.64151385  0.41483575  1
  O  O279  1  0.23120312  0.64749418  0.91922479  1
  O  O280  1  0.56235858  0.14019746  0.42066034  1
  O  O281  1  0.54610951  0.13695776  0.92227222  1
  O  O282  1  0.56273878  0.62520759  0.41233278  1
  O  O283  1  0.55032472  0.64968586  0.92491513  1
  O  O284  1  0.89871716  0.11270828  0.41650657  1
  O  O285  1  0.88540155  0.13770234  0.91219975  1
  O  O286  1  0.89518979  0.63053595  0.41328567  1
  O  O287  1  0.88413771  0.63777309  0.91199564  1
  O  O288  1  0.17524450  0.00179902  0.08689681  1
  O  O289  1  0.16245242  0.00586981  0.58591801  1
  O  O290  1  0.16900882  0.49573132  0.08878000  1
  O  O291  1  0.17223819  0.49514771  0.58689068  1
  O  O292  1  0.49978968  0.00767843  0.08481037  1
  O  O293  1  0.49377455  0.01161542  0.57718768  1
  O  O294  1  0.50843565  0.49200504  0.08489910  1
  O  O295  1  0.49381459  0.48671979  0.57636925  1
  O  O296  1  0.84522067  0.00999235  0.06949188  1
  O  O297  1  0.84923856  -0.00875195  0.58478310  1
  O  O298  1  0.84596567  0.48822300  0.07281300  1
  O  O299  1  0.83698453  0.50993785  0.58512469  1
  O  O300  1  0.02129180  0.24802542  0.08503693  1
  O  O301  1  -0.00949267  0.24107813  0.58122400  1
  O  O302  1  0.02662830  0.75056223  0.08413032  1
  O  O303  1  0.02198802  0.74903667  0.58480461  1
  O  O304  1  0.33604405  0.25003384  0.08897474  1
  O  O305  1  0.32780876  0.25053238  0.58946597  1
  O  O306  1  0.33711183  0.76222701  0.07515911  1
  O  O307  1  0.31340261  0.74126013  0.57601429  1
  O  O308  1  0.67614118  0.24782813  0.08453865  1
  O  O309  1  0.68944221  0.23650693  0.57298046  1
  O  O310  1  0.64213087  0.73745255  0.08184872  1
  O  O311  1  0.67721908  0.75209935  0.58311330  1
  O  O312  1  0.16165433  -0.00665764  0.41314333  1
  O  O313  1  0.14328388  -0.00143531  0.91630499  1
  O  O314  1  0.15652179  0.51705618  0.42535286  1
  O  O315  1  0.16094093  0.48671630  0.93006890  1
  O  O316  1  0.49957570  0.01092721  0.42368174  1
  O  O317  1  0.50605744  -0.00264775  0.91452859  1
  O  O318  1  0.48284724  0.49937361  0.41486584  1
  O  O319  1  0.49429037  0.51658792  0.92700220  1
  O  O320  1  0.80506579  -0.00242114  0.41728920  1
  O  O321  1  0.84263694  0.00027558  0.90774998  1
  O  O322  1  0.82126320  0.50238291  0.41622497  1
  O  O323  1  0.84322746  0.49881655  0.90919316  1
  O  O324  1  0.32085861  0.24620000  0.41666188  1
  O  O325  1  0.33443499  0.25555333  0.92668741  1
  O  O326  1  0.32837185  0.75114028  0.41103974  1
  O  O327  1  0.32674495  0.76124901  0.91832093  1
  O  O328  1  0.65886145  0.25395803  0.41712347  1
  O  O329  1  0.68032079  0.25934503  0.92068062  1
  O  O330  1  0.65785027  0.74376077  0.41287497  1
  O  O331  1  0.68219800  0.76362016  0.91995590  1
  O  O332  1  0.99043711  0.23195336  0.42612997  1
  O  O333  1  0.98838682  0.24768106  0.91264088  1
  O  O334  1  0.97580352  0.75446274  0.41423870  1
  O  O335  1  0.98377747  0.75135020  0.91502400  1
  O  O336  1  0.20924492  0.08395050  0.19691269  1
  O  O337  1  0.20579285  0.08467589  0.69596816  1
  O  O338  1  0.21043822  0.58076368  0.19542613  1
  O  O339  1  0.20930994  0.57564998  0.69704933  1
  O  O340  1  0.53491898  0.08552738  0.19525227  1
  O  O341  1  0.53920351  0.08518184  0.69289816  1
  O  O342  1  0.54120518  0.58012240  0.19288518  1
  O  O343  1  0.54316356  0.58368848  0.69866586  1
  O  O344  1  0.87918210  0.07860692  0.18913890  1
  O  O345  1  0.87673657  0.07900713  0.69409072  1
  O  O346  1  0.88084251  0.58331445  0.20031212  1
  O  O347  1  0.87818585  0.58728502  0.69460772  1
  O  O348  1  0.04543007  0.33006218  0.19544427  1
  O  O349  1  0.04571907  0.33257617  0.70414870  1
  O  O350  1  0.04643688  0.83472571  0.19206523  1
  O  O351  1  0.04565450  0.83383627  0.69482167  1
  O  O352  1  0.37102720  0.33332421  0.19707096  1
  O  O353  1  0.37536868  0.33019394  0.69922175  1
  O  O354  1  0.37799864  0.83692359  0.19107897  1
  O  O355  1  0.37768737  0.83690661  0.69888732  1
  O  O356  1  0.72186584  0.33270086  0.19302930  1
  O  O357  1  0.71184845  0.33166185  0.70001058  1
  O  O358  1  0.70926815  0.83291916  0.19850443  1
  O  O359  1  0.71411416  0.83420885  0.69271434  1
  O  O360  1  0.21043696  0.41361783  0.19704082  1
  O  O361  1  0.21113159  0.41471043  0.69920642  1
  O  O362  1  0.21249913  0.91916793  0.19570784  1
  O  O363  1  0.20772801  0.92138994  0.69336395  1
  O  O364  1  0.53097953  0.41443051  0.19485333  1
  O  O365  1  0.54758007  0.40765279  0.68948540  1
  O  O366  1  0.54272120  0.91840884  0.19084777  1
  O  O367  1  0.54568698  0.91857212  0.69894363  1
  O  O368  1  0.87840782  0.41640751  0.19072871  1
  O  O369  1  0.87604110  0.41922852  0.69125157  1
  O  O370  1  0.87777319  0.91637284  0.19738230  1
  O  O371  1  0.88162854  0.91408661  0.69472695  1
  O  O372  1  0.04415703  0.16473846  0.19591766  1
  O  O373  1  0.04054120  0.16386949  0.69470773  1
  O  O374  1  0.04479538  0.66708180  0.19342194  1
  O  O375  1  0.03526574  0.66885769  0.69446556  1
  O  O376  1  0.37177190  0.16630136  0.19759115  1
  O  O377  1  0.37536723  0.16671733  0.69741789  1
  O  O378  1  0.37995985  0.66424635  0.19862493  1
  O  O379  1  0.37684235  0.67061454  0.68922309  1
  O  O380  1  0.71197341  0.15925347  0.19333503  1
  O  O381  1  0.71255285  0.16326639  0.69042184  1
  O  O382  1  0.70865313  0.66599361  0.19328345  1
  O  O383  1  0.71258869  0.66782658  0.69181295  1
  O  O384  1  0.12577526  0.08018470  0.30600797  1
  O  O385  1  0.11977896  0.08253208  0.80757728  1
  O  O386  1  0.12339042  0.58794571  0.30667038  1
  O  O387  1  0.11498389  0.57553194  0.80504868  1
  O  O388  1  0.45746030  0.08667562  0.30919153  1
  O  O389  1  0.45804061  0.08268358  0.80772110  1
  O  O390  1  0.45632087  0.58135582  0.30452048  1
  O  O391  1  0.45820760  0.59163721  0.81213647  1
  O  O392  1  0.79094008  0.07743424  0.30587015  1
  O  O393  1  0.79073903  0.08312831  0.80281964  1
  O  O394  1  0.79056659  0.58453865  0.30455166  1
  O  O395  1  0.79045441  0.58282825  0.80290584  1
  O  O396  1  0.28982017  0.33196314  0.30929810  1
  O  O397  1  0.28949455  0.33173275  0.81127234  1
  O  O398  1  0.28631334  0.83713297  0.30394700  1
  O  O399  1  0.28936542  0.84195266  0.80654600  1
  O  O400  1  0.60975277  0.33175505  0.30799580  1
  O  O401  1  0.62550205  0.33451947  0.80863053  1
  O  O402  1  0.62337968  0.83146343  0.30540348  1
  O  O403  1  0.62884284  0.83546612  0.80429278  1
  O  O404  1  0.95950743  0.33325096  0.30117701  1
  O  O405  1  0.95288360  0.33189954  0.80429276  1
  O  O406  1  0.95647534  0.83333626  0.30322951  1
  O  O407  1  0.95695653  0.83423683  0.80434018  1
  O  O408  1  0.12272706  0.41792373  0.30101873  1
  O  O409  1  0.12102666  0.41537880  0.81029916  1
  O  O410  1  0.12102167  0.91484569  0.30285990  1
  O  O411  1  0.12336039  0.91873533  0.80540303  1
  O  O412  1  0.45401060  0.41593782  0.30697568  1
  O  O413  1  0.45642066  0.41552056  0.80222599  1
  O  O414  1  0.45681247  0.91757681  0.29807121  1
  O  O415  1  0.45827729  0.91868163  0.80485042  1
  O  O416  1  0.80366822  0.41872763  0.30855515  1
  O  O417  1  0.79442224  0.41655275  0.80231373  1
  O  O418  1  0.78928837  0.91660069  0.30480432  1
  O  O419  1  0.79326278  0.91633135  0.80143140  1
  O  O420  1  0.28850604  0.16467563  0.30717205  1
  O  O421  1  0.28635666  0.16565070  0.80197870  1
  O  O422  1  0.28785640  0.66345738  0.30382833  1
  O  O423  1  0.30087818  0.67956522  0.80899040  1
  O  O424  1  0.61791681  0.16316760  0.30941944  1
  O  O425  1  0.62386161  0.16652416  0.79759835  1
  O  O426  1  0.62351876  0.66488473  0.30215334  1
  O  O427  1  0.62471588  0.66925503  0.79832918  1
  O  O428  1  0.96599444  0.16027100  0.30918433  1
  O  O429  1  0.95333378  0.16549091  0.80251498  1
  O  O430  1  0.95691398  0.67070965  0.30399726  1
  O  O431  1  0.95665449  0.66742837  0.80706135  1
  F  F432  1  0.04785049  0.00091778  0.20132777  1
  F  F433  1  0.04482621  -0.00035405  0.70252906  1
  F  F434  1  0.04620566  0.50167505  0.20175292  1
  F  F435  1  0.04394178  0.49849447  0.70169527  1
  F  F436  1  0.37635157  0.00403369  0.20291996  1
  F  F437  1  0.37734330  0.00405250  0.70370316  1
  F  F438  1  0.37604774  0.49744041  0.20408791  1
  F  F439  1  0.37267587  0.50026602  0.70376111  1
  F  F440  1  0.71183061  -0.00602885  0.19675597  1
  F  F441  1  0.71434257  0.00057334  0.70017810  1
  F  F442  1  0.71804891  0.50696632  0.19918469  1
  F  F443  1  0.71231404  0.50054477  0.69890600  1
  F  F444  1  0.21063780  0.24907434  0.20547038  1
  F  F445  1  0.21007922  0.25128130  0.70570374  1
  F  F446  1  0.20664108  0.75015452  0.19870288  1
  F  F447  1  0.21440438  0.76211600  0.69855064  1
  F  F448  1  0.52695479  0.24946880  0.19723772  1
  F  F449  1  0.54329499  0.25099524  0.70300143  1
  F  F450  1  0.54490226  0.75013729  0.20118771  1
  F  F451  1  0.54732335  0.75452561  0.69792942  1
  F  F452  1  0.88402060  0.24961215  0.19887844  1
  F  F453  1  0.87826876  0.24816474  0.69987324  1
  F  F454  1  0.87997586  0.75047341  0.19982263  1
  F  F455  1  0.88171030  0.75049922  0.70287932  1
  F  F456  1  0.28754691  0.00082385  0.29937757  1
  F  F457  1  0.28656693  0.00042528  0.79782564  1
  F  F458  1  0.28796594  0.50019692  0.29940518  1
  F  F459  1  0.28379025  0.49293673  0.80808958  1
  F  F460  1  0.62028793  -0.00626871  0.29890139  1
  F  F461  1  0.62454049  0.00227844  0.79574927  1
  F  F462  1  0.61630930  0.50982523  0.30079038  1
  F  F463  1  0.63248206  0.49705182  0.79968259  1
  F  F464  1  0.95640228  -0.00113271  0.29732289  1
  F  F465  1  0.95536513  -0.00141936  0.79724101  1
  F  F466  1  0.95851860  0.50072629  0.29883354  1
  F  F467  1  0.95114945  0.49923152  0.79539692  1
  F  F468  1  0.12206774  0.24701049  0.30042182  1
  F  F469  1  0.11815524  0.24527985  0.80176333  1
  F  F470  1  0.11978099  0.75090140  0.29612206  1
  F  F471  1  0.11720211  0.76399977  0.80353766  1
  F  F472  1  0.44954902  0.24916780  0.30055137  1
  F  F473  1  0.45621086  0.24906951  0.80034403  1
  F  F474  1  0.46213693  0.75052814  0.29950127  1
  F  F475  1  0.45862927  0.75270547  0.79478290  1
  F  F476  1  0.80637586  0.25165499  0.30841614  1
  F  F477  1  0.79116614  0.24724438  0.79658411  1
  F  F478  1  0.79067870  0.74809925  0.29672356  1
  F  F479  1  0.78946526  0.75087653  0.79573569  1
