# generated using pymatgen
data_K24Na3Li5Mg64Fe17Si79(O5F)48
_symmetry_space_group_name_H-M   'P 1'
_cell_length_a   16.09625778
_cell_length_b   18.60789710
_cell_length_c   20.56176390
_cell_angle_alpha   90.00344696
_cell_angle_beta   100.01781034
_cell_angle_gamma   89.98518721
_symmetry_Int_Tables_number   1
_chemical_formula_structural   K24Na3Li5Mg64Fe17Si79(O5F)48
_chemical_formula_sum   'K24 Na3 Li5 Mg64 Fe17 Si79 O240 F48'
_cell_volume   6064.71226810
_cell_formula_units_Z   1
loop_
 _symmetry_equiv_pos_site_id
 _symmetry_equiv_pos_as_xyz
  1  'x, y, z'
loop_
 _atom_site_type_symbol
 _atom_site_label
 _atom_site_symmetry_multiplicity
 _atom_site_fract_x
 _atom_site_fract_y
 _atom_site_fract_z
 _atom_site_occupancy
  K  K0  1  0.00793217  0.00627898  0.00797312  1
  K  K1  1  0.00064401  -0.00724462  0.50116371  1
  K  K2  1  -0.00368242  0.49833353  0.00837286  1
  K  K3  1  0.00566648  0.50275843  0.49289954  1
  K  K4  1  0.32866999  0.00495680  0.00665932  1
  K  K5  1  0.32060981  -0.00118657  0.49089661  1
  K  K6  1  0.34479441  0.50514409  0.00110907  1
  K  K7  1  0.33710422  0.49428588  0.49818542  1
  K  K8  1  0.65744191  0.00254778  0.00035831  1
  K  K9  1  0.66109691  0.00469690  0.49965947  1
  K  K10  1  0.66031772  0.49114691  -0.00436621  1
  K  K11  1  0.65496671  0.50677819  0.50180008  1
  K  K12  1  0.17035274  0.24438822  0.00529202  1
  K  K13  1  0.17878359  0.25438850  0.49615080  1
  K  K14  1  0.18381631  0.74545287  0.01386982  1
  K  K15  1  0.16200778  0.75600579  0.49002174  1
  K  K16  1  0.49206957  0.25218321  -0.00538530  1
  K  K17  1  0.49831361  0.24826527  0.50029937  1
  K  K18  1  0.49093127  0.74480540  0.00474879  1
  K  K19  1  0.49911618  0.75033957  0.49269571  1
  K  K20  1  0.83881543  0.25643014  -0.00416258  1
  K  K21  1  0.82161349  0.24552817  0.50087729  1
  K  K22  1  0.83902890  0.74400034  0.00043577  1
  K  K23  1  0.84102681  0.75115725  0.49684206  1
  Na  Na24  1  0.33198636  0.24931505  0.24960749  1
  Na  Na25  1  0.16510937  0.66747517  0.24186654  1
  Na  Na26  1  0.66362959  0.41862225  0.75104283  1
  Li  Li27  1  0.17107178  0.00023937  0.24947801  1
  Li  Li28  1  0.66636653  0.75037561  0.74871571  1
  Li  Li29  1  0.33974402  0.41479543  0.75312127  1
  Li  Li30  1  0.00129716  0.41869834  0.24672049  1
  Li  Li31  1  0.16429238  0.83379771  0.74508715  1
  Mg  Mg32  1  0.83855316  0.49973611  0.24799180  1
  Mg  Mg33  1  0.33080523  0.74947946  0.24859801  1
  Mg  Mg34  1  0.16623031  -0.00292449  0.74974226  1
  Mg  Mg35  1  0.33034198  0.75110412  0.74977536  1
  Mg  Mg36  1  0.16441595  0.49864630  0.24553627  1
  Mg  Mg37  1  0.83268739  -0.00056964  0.25237729  1
  Mg  Mg38  1  0.17020260  0.49872826  0.75037645  1
  Mg  Mg39  1  0.66478533  0.75045798  0.25169273  1
  Mg  Mg40  1  0.49761530  0.00085168  0.25502336  1
  Mg  Mg41  1  -0.00101257  0.75093800  0.24721485  1
  Mg  Mg42  1  0.50150037  0.50222405  0.24994455  1
  Mg  Mg43  1  0.66671270  0.24997024  0.25209299  1
  Mg  Mg44  1  0.00049921  0.25067329  0.24934030  1
  Mg  Mg45  1  0.83409914  -0.00033402  0.74871226  1
  Mg  Mg46  1  0.00396194  0.75080391  0.74643806  1
  Mg  Mg47  1  -0.00127230  0.24966135  0.75379101  1
  Mg  Mg48  1  0.33422313  0.25265838  0.75380269  1
  Mg  Mg49  1  0.83125515  0.50143908  0.74902418  1
  Mg  Mg50  1  0.66536539  0.25015661  0.74966779  1
  Mg  Mg51  1  0.49987632  -0.00078041  0.75393799  1
  Mg  Mg52  1  0.49699190  0.49864251  0.75147555  1
  Mg  Mg53  1  0.83545889  0.66526126  0.24919522  1
  Mg  Mg54  1  0.83006734  0.33528135  0.75072877  1
  Mg  Mg55  1  0.83724887  0.33453920  0.24806125  1
  Mg  Mg56  1  0.49973858  0.83445659  0.25232296  1
  Mg  Mg57  1  0.66558602  0.91628843  0.25383128  1
  Mg  Mg58  1  0.00257294  0.91690726  0.25064043  1
  Mg  Mg59  1  0.32940289  0.08333475  0.25167966  1
  Mg  Mg60  1  0.83215671  0.16639929  0.75133845  1
  Mg  Mg61  1  -0.00020863  0.58183044  0.24495712  1
  Mg  Mg62  1  0.83374556  0.83277695  0.74763991  1
  Mg  Mg63  1  0.66897668  0.58623015  0.24986010  1
  Mg  Mg64  1  0.16730416  0.83641455  0.24883355  1
  Mg  Mg65  1  0.50226656  0.83183920  0.75264926  1
  Mg  Mg66  1  0.50125239  0.16459133  0.75479043  1
  Mg  Mg67  1  0.66989741  0.41683610  0.25014124  1
  Mg  Mg68  1  0.83378357  0.16579766  0.25145777  1
  Mg  Mg69  1  0.50032636  0.66693075  0.25089670  1
  Mg  Mg70  1  -0.00050764  0.41624117  0.75115778  1
  Mg  Mg71  1  0.83186568  0.66873791  0.74817184  1
  Mg  Mg72  1  0.00241682  0.08224301  0.24959561  1
  Mg  Mg73  1  0.33190364  0.41641882  0.24864218  1
  Mg  Mg74  1  0.16714437  0.16541887  0.75433094  1
  Mg  Mg75  1  0.83289489  0.83434306  0.25110800  1
  Mg  Mg76  1  -0.00116858  0.08447456  0.75155585  1
  Mg  Mg77  1  0.32930039  0.91603062  0.24998871  1
  Mg  Mg78  1  0.00303225  0.91370444  0.74589370  1
  Mg  Mg79  1  0.50142426  0.33450704  0.25120234  1
  Mg  Mg80  1  0.33183651  0.58496453  0.24981707  1
  Mg  Mg81  1  0.33159641  0.91483425  0.75208486  1
  Mg  Mg82  1  0.66442722  0.58748720  0.74687611  1
  Mg  Mg83  1  0.49914210  0.33636841  0.75073261  1
  Mg  Mg84  1  0.16939712  0.33459547  0.75294192  1
  Mg  Mg85  1  0.66693248  0.08351303  0.75287588  1
  Mg  Mg86  1  0.66624975  0.08511542  0.25279649  1
  Mg  Mg87  1  0.33526784  0.08369910  0.75454363  1
  Mg  Mg88  1  0.16692988  0.16394661  0.25017716  1
  Mg  Mg89  1  0.49953492  0.16690163  0.25349374  1
  Mg  Mg90  1  0.33501384  0.58232607  0.75195154  1
  Mg  Mg91  1  0.00037301  0.58424412  0.74673146  1
  Mg  Mg92  1  0.50169016  0.66781090  0.74990203  1
  Mg  Mg93  1  0.16641414  0.66752130  0.74671381  1
  Mg  Mg94  1  0.66768691  0.91304823  0.75068660  1
  Mg  Mg95  1  0.16482332  0.33266433  0.24963502  1
  Fe  Fe96  1  0.68845693  0.16709289  0.61214965  1
  Fe  Fe97  1  0.85741789  0.58377447  0.10676277  1
  Fe  Fe98  1  0.64420571  0.83725425  0.39222524  1
  Fe  Fe99  1  0.52054864  0.42276071  0.60709377  1
  Fe  Fe100  1  0.64767519  0.66470862  0.39206418  1
  Fe  Fe101  1  0.97021226  0.16755506  0.89194697  1
  Fe  Fe102  1  0.30415530  0.83198555  0.39014067  1
  Fe  Fe103  1  0.19268937  0.08566860  0.10879636  1
  Fe  Fe104  1  0.30453822  0.16576170  0.39313567  1
  Fe  Fe105  1  0.96989738  0.83344590  0.38714280  1
  Fe  Fe106  1  0.64151568  0.16802003  0.39080288  1
  Fe  Fe107  1  0.47374032  0.08199489  0.89439928  1
  Fe  Fe108  1  0.36189125  0.66374856  0.10866762  1
  Fe  Fe109  1  0.64704656  0.32734005  0.89262798  1
  Fe  Fe110  1  0.18993814  0.57681008  0.10451342  1
  Fe  Fe111  1  0.47316005  0.41500807  0.89386779  1
  Fe  Fe112  1  0.02820939  0.82962301  0.60764793  1
  Si  Si113  1  0.13714451  0.07846740  0.88678301  1
  Si  Si114  1  0.13402990  0.08693712  0.38797085  1
  Si  Si115  1  0.68834454  0.83645345  0.11506297  1
  Si  Si116  1  0.85729002  0.91913407  0.61113981  1
  Si  Si117  1  0.18927789  0.91534431  0.11076526  1
  Si  Si118  1  0.35773001  0.32793537  0.61351743  1
  Si  Si119  1  0.30000868  0.16637098  0.89002200  1
  Si  Si120  1  0.80570540  0.92257319  0.38780055  1
  Si  Si121  1  0.81269079  0.42344365  0.88672865  1
  Si  Si122  1  0.81089860  0.08321372  0.38727655  1
  Si  Si123  1  0.81115831  0.58765162  0.88347182  1
  Si  Si124  1  0.85643837  0.08182360  0.11514653  1
  Si  Si125  1  0.47736372  0.58853054  0.88755366  1
  Si  Si126  1  0.19386023  0.41284462  0.61682596  1
  Si  Si127  1  0.52107126  0.59398363  0.61086403  1
  Si  Si128  1  0.30967066  0.33869587  0.38719984  1
  Si  Si129  1  0.02132792  0.67119970  0.10702461  1
  Si  Si130  1  0.97796534  0.83291645  0.88358364  1
  Si  Si131  1  0.13530813  0.92142508  0.38651933  1
  Si  Si132  1  0.85460179  0.91744432  0.11375814  1
  Si  Si133  1  0.97761388  0.66388317  0.38548113  1
  Si  Si134  1  0.52362463  0.91163003  0.61713361  1
  Si  Si135  1  0.69430138  0.67219338  0.11245763  1
  Si  Si136  1  0.35895830  0.16383661  0.61788235  1
  Si  Si137  1  0.29915426  0.33241848  0.88972616  1
  Si  Si138  1  0.85583328  0.58063858  0.61328026  1
  Si  Si139  1  0.64389619  0.66763784  0.88327922  1
  Si  Si140  1  0.13842656  0.57799577  0.38235697  1
  Si  Si141  1  0.52978657  0.41607376  0.11516007  1
  Si  Si142  1  0.13797891  0.42005200  0.88521096  1
  Si  Si143  1  0.02496883  0.65788492  0.60920659  1
  Si  Si144  1  0.85527740  0.41346334  0.11106121  1
  Si  Si145  1  0.02138854  0.83622048  0.11170740  1
  Si  Si146  1  0.64488927  0.83097951  0.88558516  1
  Si  Si147  1  0.97722628  0.66834089  0.88183638  1
  Si  Si148  1  0.14346225  0.91541709  0.88357255  1
  Si  Si149  1  0.14159939  0.41560551  0.38368127  1
  Si  Si150  1  0.69309835  0.32880284  0.11512104  1
  Si  Si151  1  0.97170956  0.16672125  0.38539333  1
  Si  Si152  1  0.30757546  0.83149619  0.88466090  1
  Si  Si153  1  0.81369233  0.57777096  0.38663716  1
  Si  Si154  1  0.36764160  0.16819665  0.11293479  1
  Si  Si155  1  0.19507902  0.57855576  0.61425277  1
  Si  Si156  1  0.52408902  0.92137686  0.11588325  1
  Si  Si157  1  0.47778979  0.90970690  0.89037168  1
  Si  Si158  1  0.85983342  0.41494659  0.61447846  1
  Si  Si159  1  0.80504503  0.07619674  0.88871995  1
  Si  Si160  1  0.02953909  0.16826827  0.61664646  1
  Si  Si161  1  0.52890921  0.08471907  0.11622229  1
  Si  Si162  1  0.02127819  0.32938805  0.11596216  1
  Si  Si163  1  0.19719785  0.91998764  0.61357635  1
  Si  Si164  1  0.69337802  0.33547300  0.61037639  1
  Si  Si165  1  0.47211740  0.91747056  0.38898561  1
  Si  Si166  1  0.47268251  0.58295267  0.38769524  1
  Si  Si167  1  0.86275167  0.08556535  0.61320539  1
  Si  Si168  1  0.01937063  0.16667548  0.11319604  1
  Si  Si169  1  0.19316656  0.08448321  0.61723662  1
  Si  Si170  1  0.81491010  0.41541701  0.38397096  1
  Si  Si171  1  0.18765846  0.40686631  0.11025467  1
  Si  Si172  1  0.97675224  0.32982047  0.38389385  1
  Si  Si173  1  0.36346329  0.33622437  0.11497592  1
  Si  Si174  1  0.02650779  0.33438977  0.61627133  1
  Si  Si175  1  0.64623130  0.16074490  0.89136026  1
  Si  Si176  1  0.47243971  0.08146212  0.39007824  1
  Si  Si177  1  0.69385451  0.67017116  0.61446957  1
  Si  Si178  1  0.81167691  0.91248832  0.88551393  1
  Si  Si179  1  0.30691365  0.66747047  0.88368408  1
  Si  Si180  1  0.14189996  0.58414970  0.88231673  1
  Si  Si181  1  0.69414812  0.16504381  0.11557501  1
  Si  Si182  1  0.97554234  0.33912698  0.88863379  1
  Si  Si183  1  0.52190326  0.07630577  0.61542046  1
  Si  Si184  1  0.47741933  0.41865889  0.38464678  1
  Si  Si185  1  0.35957401  0.83641928  0.11203347  1
  Si  Si186  1  0.35435773  0.67125289  0.61588664  1
  Si  Si187  1  0.35850426  0.83466934  0.61716522  1
  Si  Si188  1  0.69356388  0.83608808  0.61518682  1
  Si  Si189  1  0.53457762  0.58156559  0.11197429  1
  Si  Si190  1  0.64699096  0.33942769  0.38709621  1
  Si  Si191  1  0.30724841  0.66115187  0.38772721  1
  O  O192  1  0.28344075  0.12927233  0.07455035  1
  O  O193  1  0.27292969  0.11834574  0.58834727  1
  O  O194  1  0.27455485  0.61087520  0.06176704  1
  O  O195  1  0.27161297  0.62072218  0.58585641  1
  O  O196  1  0.61148578  0.11582165  0.08760186  1
  O  O197  1  0.59728689  0.10504810  0.58016595  1
  O  O198  1  0.61632939  0.61684256  0.08514282  1
  O  O199  1  0.60285391  0.63252215  0.58441228  1
  O  O200  1  0.93544136  0.11569007  0.08551409  1
  O  O201  1  0.94819051  0.11807809  0.58739364  1
  O  O202  1  0.94475108  0.62171459  0.06752649  1
  O  O203  1  0.93777030  0.61035123  0.58327496  1
  O  O204  1  0.10543373  0.35268785  0.08522129  1
  O  O205  1  0.10346983  0.37264573  0.58569336  1
  O  O206  1  0.10158031  0.86840512  0.08111155  1
  O  O207  1  0.12116254  0.87084801  0.57660435  1
  O  O208  1  0.43865380  0.37895323  0.08413461  1
  O  O209  1  0.42512977  0.36422607  0.57383123  1
  O  O210  1  0.43581312  0.88185617  0.08366049  1
  O  O211  1  0.44373442  0.85852130  0.58885075  1
  O  O212  1  0.77360052  0.35883368  0.08420278  1
  O  O213  1  0.78189100  0.36306303  0.58373136  1
  O  O214  1  0.76827706  0.87083981  0.08368183  1
  O  O215  1  0.76558799  0.87972279  0.58371487  1
  O  O216  1  0.27045309  0.36999593  0.08356279  1
  O  O217  1  0.26510664  0.36802956  0.58622575  1
  O  O218  1  0.26943878  0.87705511  0.08237958  1
  O  O219  1  0.28490983  0.89265683  0.58830995  1
  O  O220  1  0.60643941  0.37377153  0.08722884  1
  O  O221  1  0.62292666  0.39500151  0.58130866  1
  O  O222  1  0.60406372  0.88517298  0.08632389  1
  O  O223  1  0.60384734  0.87792565  0.58760799  1
  O  O224  1  0.93951350  0.38007844  0.08471853  1
  O  O225  1  0.94261520  0.38229256  0.58638393  1
  O  O226  1  0.93494249  0.88470124  0.08333259  1
  O  O227  1  0.92839976  0.88186314  0.57626419  1
  O  O228  1  0.09355392  0.13942989  0.07596839  1
  O  O229  1  0.11057336  0.13478025  0.58791214  1
  O  O230  1  0.10640282  0.64851842  0.07988618  1
  O  O231  1  0.10270031  0.61320450  0.58307113  1
  O  O232  1  0.44924633  0.13417798  0.08282139  1
  O  O233  1  0.43580441  0.12411853  0.58920468  1
  O  O234  1  0.45388108  0.62418711  0.07393547  1
  O  O235  1  0.43751191  0.64671059  0.58539810  1
  O  O236  1  0.77239132  0.12966108  0.08475190  1
  O  O237  1  0.78535287  0.13511042  0.57959567  1
  O  O238  1  0.77110050  0.65054535  0.07556143  1
  O  O239  1  0.77042581  0.62771055  0.58443797  1
  O  O240  1  0.04607234  0.11057504  0.41643008  1
  O  O241  1  0.05715762  0.10093328  0.91967814  1
  O  O242  1  0.05932517  0.61146586  0.41386297  1
  O  O243  1  0.06111243  0.61953484  0.91070099  1
  O  O244  1  0.39013829  0.09858341  0.42336537  1
  O  O245  1  0.37905495  0.11925621  0.92580237  1
  O  O246  1  0.38546116  0.60429189  0.41540947  1
  O  O247  1  0.39664575  0.62905753  0.91405680  1
  O  O248  1  0.73197773  0.10464468  0.42191970  1
  O  O249  1  0.71478522  0.09324896  0.91246303  1
  O  O250  1  0.73578033  0.59726935  0.42307084  1
  O  O251  1  0.72983500  0.62050125  0.91264530  1
  O  O252  1  0.22953410  0.37497493  0.41840994  1
  O  O253  1  0.21320238  0.36455813  0.91497662  1
  O  O254  1  0.21130638  0.86973385  0.42296835  1
  O  O255  1  0.22873175  0.86889516  0.91352286  1
  O  O256  1  0.56389287  0.37325165  0.41396601  1
  O  O257  1  0.56118004  0.35802226  0.93586149  1
  O  O258  1  0.54417112  0.86101836  0.42248850  1
  O  O259  1  0.56382115  0.86060937  0.91711408  1
  O  O260  1  0.89508897  0.36222108  0.41417722  1
  O  O261  1  0.89643809  0.37488422  0.91821559  1
  O  O262  1  0.87235093  0.86159816  0.41934673  1
  O  O263  1  0.89672715  0.86443972  0.91417600  1
  O  O264  1  0.06201564  0.37717332  0.41321150  1
  O  O265  1  0.05350407  0.39626950  0.91355456  1
  O  O266  1  0.05152878  0.90188132  0.41798270  1
  O  O267  1  0.06270851  0.88027908  0.91312108  1
  O  O268  1  0.39540375  0.38832226  0.41363415  1
  O  O269  1  0.37649078  0.37996232  0.92641705  1
  O  O270  1  0.38870285  0.89965862  0.42080822  1
  O  O271  1  0.39770420  0.86969447  0.91704307  1
  O  O272  1  0.72971190  0.39253587  0.41311090  1
  O  O273  1  0.73468718  0.39648653  0.91931181  1
  O  O274  1  0.71875917  0.91553452  0.41661213  1
  O  O275  1  0.73092356  0.87810378  0.91489864  1
  O  O276  1  0.20626232  0.13950127  0.42685969  1
  O  O277  1  0.21530204  0.13322731  0.91444734  1
  O  O278  1  0.22363838  0.62379560  0.41254940  1
  O  O279  1  0.22748606  0.62971335  0.91116097  1
  O  O280  1  0.54605985  0.13764026  0.42251292  1
  O  O281  1  0.56626405  0.14041739  0.92713472  1
  O  O282  1  0.54855603  0.63359466  0.42338304  1
  O  O283  1  0.56262812  0.63846976  0.91447537  1
  O  O284  1  0.88682457  0.14205980  0.41372466  1
  O  O285  1  0.87650909  0.13067943  0.92518458  1
  O  O286  1  0.89716909  0.62768257  0.41442276  1
  O  O287  1  0.89479906  0.63798090  0.91081164  1
  O  O288  1  0.17544043  -0.00796274  0.07284313  1
  O  O289  1  0.17864170  0.00374142  0.58592027  1
  O  O290  1  0.16320198  0.48149988  0.07182195  1
  O  O291  1  0.19171850  0.49529562  0.58614878  1
  O  O292  1  0.51567795  0.00324731  0.08525045  1
  O  O293  1  0.50045135  -0.00735436  0.58867267  1
  O  O294  1  0.52936509  0.49726371  0.08495767  1
  O  O295  1  0.50125803  0.51852679  0.57311190  1
  O  O296  1  0.83864274  0.00003304  0.08445709  1
  O  O297  1  0.84835424  0.00308911  0.58463378  1
  O  O298  1  0.83277990  0.48933112  0.07383427  1
  O  O299  1  0.84152655  0.49742600  0.58565056  1
  O  O300  1  -0.00752737  0.24886111  0.08696740  1
  O  O301  1  0.01441151  0.25128103  0.58767135  1
  O  O302  1  -0.00054566  0.75615090  0.08062642  1
  O  O303  1  0.01407572  0.73464273  0.57362183  1
  O  O304  1  0.36474252  0.25337913  0.08788943  1
  O  O305  1  0.34341250  0.24394793  0.58536144  1
  O  O306  1  0.35547134  0.75950760  0.07528477  1
  O  O307  1  0.33060034  0.75369998  0.58910678  1
  O  O308  1  0.67663788  0.24652432  0.08643219  1
  O  O309  1  0.66721121  0.25850304  0.57464676  1
  O  O310  1  0.66625894  0.75529088  0.08613396  1
  O  O311  1  0.68899230  0.75332187  0.58633933  1
  O  O312  1  0.15862093  0.00481787  0.41347787  1
  O  O313  1  0.16381524  -0.00361612  0.91395373  1
  O  O314  1  0.15002486  0.49680653  0.41640212  1
  O  O315  1  0.15904467  0.50255565  0.91179177  1
  O  O316  1  0.50579557  -0.00059645  0.41250877  1
  O  O317  1  0.49390855  -0.01349271  0.92664697  1
  O  O318  1  0.49451172  0.49972831  0.41463964  1
  O  O319  1  0.49095780  0.51252536  0.92463445  1
  O  O320  1  0.84768772  0.00304996  0.41040513  1
  O  O321  1  0.82967494  -0.00685228  0.91626363  1
  O  O322  1  0.84511539  0.49521770  0.41160096  1
  O  O323  1  0.83459000  0.50744450  0.91319407  1
  O  O324  1  0.32888431  0.26177282  0.42292919  1
  O  O325  1  0.30799153  0.24909538  0.91893903  1
  O  O326  1  0.32536889  0.73732967  0.42623940  1
  O  O327  1  0.31319683  0.74915954  0.91402496  1
  O  O328  1  0.67045644  0.26243480  0.42090459  1
  O  O329  1  0.68928380  0.23469118  0.92214368  1
  O  O330  1  0.68489319  0.75103377  0.43060770  1
  O  O331  1  0.66487002  0.74912674  0.91413356  1
  O  O332  1  0.99500682  0.24831892  0.41528445  1
  O  O333  1  0.99862307  0.26195711  0.92330580  1
  O  O334  1  0.99836346  0.74064235  0.42087343  1
  O  O335  1  0.99401542  0.75020111  0.91157302  1
  O  O336  1  0.21025679  0.08434939  0.19841000  1
  O  O337  1  0.20968916  0.08397272  0.69787680  1
  O  O338  1  0.21769061  0.57211590  0.19460872  1
  O  O339  1  0.21023085  0.58196669  0.69440446  1
  O  O340  1  0.54455479  0.08294428  0.19614694  1
  O  O341  1  0.54306374  0.07855961  0.69630545  1
  O  O342  1  0.54616628  0.58172182  0.19272877  1
  O  O343  1  0.54064265  0.58977479  0.69142575  1
  O  O344  1  0.87312060  0.08279758  0.19539326  1
  O  O345  1  0.87779944  0.08315191  0.69421555  1
  O  O346  1  0.87588110  0.58303182  0.19837139  1
  O  O347  1  0.87710882  0.58389897  0.69367587  1
  O  O348  1  0.04095073  0.33096711  0.19543422  1
  O  O349  1  0.04375129  0.33376683  0.69670222  1
  O  O350  1  0.04087828  0.83664486  0.19146696  1
  O  O351  1  0.04367823  0.83166288  0.69819003  1
  O  O352  1  0.38334321  0.34210777  0.19419622  1
  O  O353  1  0.37603404  0.32709407  0.69346250  1
  O  O354  1  0.37982304  0.83597091  0.19247907  1
  O  O355  1  0.37710276  0.83411014  0.69765426  1
  O  O356  1  0.71137735  0.33167829  0.19559048  1
  O  O357  1  0.71595170  0.32760047  0.69052815  1
  O  O358  1  0.71002151  0.83671192  0.19496308  1
  O  O359  1  0.71334389  0.83672968  0.69504066  1
  O  O360  1  0.20847475  0.41136155  0.19102281  1
  O  O361  1  0.20597930  0.41516624  0.69625186  1
  O  O362  1  0.20805483  0.91647909  0.19049375  1
  O  O363  1  0.21320200  0.92062922  0.69384126  1
  O  O364  1  0.54714583  0.41656023  0.19557744  1
  O  O365  1  0.53120544  0.41950437  0.69610674  1
  O  O366  1  0.54225447  0.92030084  0.19580695  1
  O  O367  1  0.54278714  0.91375475  0.69768431  1
  O  O368  1  0.87012412  0.41522168  0.19111304  1
  O  O369  1  0.87866189  0.41716781  0.69498694  1
  O  O370  1  0.87103819  0.91839257  0.19349816  1
  O  O371  1  0.87628580  0.91673221  0.69252452  1
  O  O372  1  0.03796981  0.16561585  0.19390227  1
  O  O373  1  0.04659442  0.16821329  0.69693434  1
  O  O374  1  0.02728506  0.66871570  0.18692102  1
  O  O375  1  0.04346871  0.66212387  0.69018478  1
  O  O376  1  0.38523102  0.15980109  0.19229070  1
  O  O377  1  0.37419959  0.16545231  0.69817360  1
  O  O378  1  0.37975831  0.66560906  0.20059039  1
  O  O379  1  0.37399221  0.66824566  0.69616396  1
  O  O380  1  0.71322792  0.16615472  0.19568875  1
  O  O381  1  0.71145092  0.16427716  0.70416827  1
  O  O382  1  0.71254284  0.66927125  0.19320651  1
  O  O383  1  0.71328663  0.66777199  0.69403196  1
  O  O384  1  0.11538576  0.09116293  0.30809949  1
  O  O385  1  0.12159897  0.08105809  0.80553649  1
  O  O386  1  0.11789414  0.57492099  0.30336896  1
  O  O387  1  0.12261713  0.58329931  0.80183384  1
  O  O388  1  0.45647343  0.08465948  0.30822236  1
  O  O389  1  0.45507192  0.08103280  0.80249526  1
  O  O390  1  0.45943345  0.58219938  0.30681186  1
  O  O391  1  0.45684098  0.58785515  0.80663960  1
  O  O392  1  0.79037384  0.08505149  0.30587241  1
  O  O393  1  0.79342820  0.07792306  0.80776225  1
  O  O394  1  0.79125222  0.58159177  0.30586496  1
  O  O395  1  0.79203137  0.58725379  0.80332371  1
  O  O396  1  0.28640116  0.34156858  0.30751133  1
  O  O397  1  0.28540111  0.32994790  0.80933133  1
  O  O398  1  0.28832764  0.83249334  0.29872624  1
  O  O399  1  0.29285570  0.83278793  0.80504308  1
  O  O400  1  0.62799043  0.33717568  0.30598334  1
  O  O401  1  0.61703180  0.32314218  0.80249824  1
  O  O402  1  0.62176469  0.83370094  0.29930984  1
  O  O403  1  0.62378335  0.83524069  0.80611465  1
  O  O404  1  0.95484506  0.32857240  0.30465629  1
  O  O405  1  0.95800948  0.33558913  0.80727700  1
  O  O406  1  0.95248401  0.83422569  0.29563356  1
  O  O407  1  0.95724878  0.83372246  0.80352000  1
  O  O408  1  0.12667283  0.41547566  0.30440268  1
  O  O409  1  0.12181799  0.41813979  0.80447047  1
  O  O410  1  0.12035079  0.91688268  0.30595356  1
  O  O411  1  0.12254196  0.91820966  0.80411444  1
  O  O412  1  0.45976118  0.41774302  0.30432000  1
  O  O413  1  0.45529211  0.41680102  0.80327266  1
  O  O414  1  0.45618528  0.91604728  0.30708515  1
  O  O415  1  0.45828135  0.91323118  0.80932131  1
  O  O416  1  0.79396867  0.41457830  0.30355651  1
  O  O417  1  0.80186160  0.42079526  0.80671468  1
  O  O418  1  0.78903138  0.91885309  0.30574252  1
  O  O419  1  0.79286827  0.91397807  0.80514793  1
  O  O420  1  0.28383265  0.16113827  0.30369045  1
  O  O421  1  0.28790338  0.16592786  0.80877949  1
  O  O422  1  0.29725492  0.66647045  0.30839382  1
  O  O423  1  0.28902169  0.66700186  0.80342570  1
  O  O424  1  0.62336226  0.16785890  0.29901396  1
  O  O425  1  0.62231664  0.16090346  0.80989517  1
  O  O426  1  0.62334503  0.66589753  0.29913132  1
  O  O427  1  0.62340919  0.66794291  0.80375611  1
  O  O428  1  0.95458756  0.16723030  0.30480879  1
  O  O429  1  0.95428802  0.16645668  0.79999442  1
  O  O430  1  0.95824167  0.66640718  0.30487100  1
  O  O431  1  0.95833572  0.66689654  0.80137129  1
  F  F432  1  0.03443975  0.00031634  0.19829196  1
  F  F433  1  0.04540449  0.00196540  0.70063456  1
  F  F434  1  0.04545471  0.50129940  0.19582657  1
  F  F435  1  0.04601846  0.49866074  0.70072617  1
  F  F436  1  0.38067479  -0.00054213  0.20285975  1
  F  F437  1  0.37790188  -0.00278063  0.70485290  1
  F  F438  1  0.38251627  0.49964599  0.20275684  1
  F  F439  1  0.37728829  0.50792971  0.70039896  1
  F  F440  1  0.71087250  0.00118055  0.20329165  1
  F  F441  1  0.71221124  -0.00193775  0.70398339  1
  F  F442  1  0.71320478  0.49962611  0.20268576  1
  F  F443  1  0.71707766  0.51190556  0.69789471  1
  F  F444  1  0.19644206  0.24995888  0.19828804  1
  F  F445  1  0.21079374  0.24893973  0.70471077  1
  F  F446  1  0.21537956  0.76004888  0.19356365  1
  F  F447  1  0.21334280  0.74580292  0.69902891  1
  F  F448  1  0.54768288  0.25399619  0.20001555  1
  F  F449  1  0.54230680  0.24308249  0.70162690  1
  F  F450  1  0.54322921  0.75112274  0.19903636  1
  F  F451  1  0.53960188  0.75172536  0.70157789  1
  F  F452  1  0.87713609  0.24803662  0.20102135  1
  F  F453  1  0.88058357  0.25314595  0.70223085  1
  F  F454  1  0.87349440  0.75050346  0.19942669  1
  F  F455  1  0.88049027  0.74964907  0.69931543  1
  F  F456  1  0.29223297  -0.00241503  0.29841090  1
  F  F457  1  0.28724931  -0.00092756  0.80003698  1
  F  F458  1  0.28924444  0.49747217  0.29797556  1
  F  F459  1  0.28437030  0.50664696  0.80162240  1
  F  F460  1  0.62055765  0.00187337  0.29808671  1
  F  F461  1  0.62266829  -0.00406514  0.79891137  1
  F  F462  1  0.62347201  0.49999830  0.29693019  1
  F  F463  1  0.61622932  0.51510990  0.79945316  1
  F  F464  1  0.95242952  0.00142940  0.29692266  1
  F  F465  1  0.95530278  -0.00302305  0.79551703  1
  F  F466  1  0.95554085  0.49922584  0.29722997  1
  F  F467  1  0.95601095  0.50284153  0.79573203  1
  F  F468  1  0.11847517  0.25105662  0.29978662  1
  F  F469  1  0.12061670  0.25076531  0.79958161  1
  F  F470  1  0.11567492  0.75808730  0.29593436  1
  F  F471  1  0.11916673  0.74057429  0.79946853  1
  F  F472  1  0.46882643  0.25285678  0.30157470  1
  F  F473  1  0.45241234  0.24759860  0.80014961  1
  F  F474  1  0.45569907  0.75156090  0.29783569  1
  F  F475  1  0.45306223  0.74974532  0.79946685  1
  F  F476  1  0.78951644  0.25114746  0.29754811  1
  F  F477  1  0.79132902  0.25209963  0.79952224  1
  F  F478  1  0.78820174  0.74935662  0.29650094  1
  F  F479  1  0.79726704  0.75131043  0.79907246  1
