# generated using pymatgen
data_K24Na3Li5Mg64Fe17Si79(O5F)48
_symmetry_space_group_name_H-M   'P 1'
_cell_length_a   16.09698039
_cell_length_b   18.58352470
_cell_length_c   20.55044305
_cell_angle_alpha   89.99500582
_cell_angle_beta   100.00022212
_cell_angle_gamma   90.01268530
_symmetry_Int_Tables_number   1
_chemical_formula_structural   K24Na3Li5Mg64Fe17Si79(O5F)48
_chemical_formula_sum   'K24 Na3 Li5 Mg64 Fe17 Si79 O240 F48'
_cell_volume   6054.03384657
_cell_formula_units_Z   1
loop_
 _symmetry_equiv_pos_site_id
 _symmetry_equiv_pos_as_xyz
  1  'x, y, z'
loop_
 _atom_site_type_symbol
 _atom_site_label
 _atom_site_symmetry_multiplicity
 _atom_site_fract_x
 _atom_site_fract_y
 _atom_site_fract_z
 _atom_site_occupancy
  K  K0  1  -0.00347064  0.00357283  -0.00089982  1
  K  K1  1  0.00279071  0.00025295  0.50006931  1
  K  K2  1  0.00852511  0.49470352  -0.00419080  1
  K  K3  1  0.01032167  0.49692738  0.50019549  1
  K  K4  1  0.34959364  -0.00224557  -0.00290252  1
  K  K5  1  0.32988603  -0.00077929  0.50270257  1
  K  K6  1  0.33398234  0.49896460  -0.00111349  1
  K  K7  1  0.33594088  0.49859597  0.49952737  1
  K  K8  1  0.66331294  -0.00573626  -0.01042683  1
  K  K9  1  0.66486510  0.00291386  0.50314380  1
  K  K10  1  0.65715376  0.49657703  -0.00620843  1
  K  K11  1  0.65541680  0.49558887  0.50638185  1
  K  K12  1  0.17845519  0.25405211  0.00525910  1
  K  K13  1  0.17689449  0.25029506  0.50060618  1
  K  K14  1  0.18216140  0.75267656  -0.00520427  1
  K  K15  1  0.17060293  0.74851338  0.50139319  1
  K  K16  1  0.48325367  0.24870874  0.00067077  1
  K  K17  1  0.50304004  0.25526895  0.50262927  1
  K  K18  1  0.47805610  0.75951607  -0.01417517  1
  K  K19  1  0.49085003  0.76247262  0.50582924  1
  K  K20  1  0.83066897  0.24063083  0.00026420  1
  K  K21  1  0.82565479  0.24152299  0.49953588  1
  K  K22  1  0.83208351  0.75356501  -0.00192496  1
  K  K23  1  0.84461842  0.75336204  0.50587296  1
  Na  Na24  1  0.00163403  0.25209707  0.25431395  1
  Na  Na25  1  0.00210842  0.91880413  0.25734274  1
  Na  Na26  1  0.50089774  0.33116073  0.74610937  1
  Li  Li27  1  0.49313849  -0.00211028  0.75372402  1
  Li  Li28  1  0.16943598  0.50061558  0.74794976  1
  Li  Li29  1  0.49181042  0.33453143  0.24950092  1
  Li  Li30  1  0.33876189  0.41069831  0.25145113  1
  Li  Li31  1  0.49601790  0.83595458  0.75205866  1
  Mg  Mg32  1  0.33406432  0.24831125  0.75079188  1
  Mg  Mg33  1  0.83427814  0.49905265  0.25049169  1
  Mg  Mg34  1  -0.00110945  0.24994323  0.75070769  1
  Mg  Mg35  1  0.83400359  0.00101719  0.25415220  1
  Mg  Mg36  1  0.33606218  0.74889476  0.75223242  1
  Mg  Mg37  1  0.16651236  0.00020824  0.74731937  1
  Mg  Mg38  1  0.66431102  0.74995655  0.75002342  1
  Mg  Mg39  1  0.00100094  0.75113444  0.25130228  1
  Mg  Mg40  1  0.49958469  0.00058034  0.25026593  1
  Mg  Mg41  1  0.33594638  0.25276104  0.25073294  1
  Mg  Mg42  1  0.33258968  0.75178699  0.24815967  1
  Mg  Mg43  1  0.16980905  0.49556896  0.25005489  1
  Mg  Mg44  1  0.66649756  0.24968507  0.75194565  1
  Mg  Mg45  1  0.50102323  0.50124950  0.74708037  1
  Mg  Mg46  1  0.16513394  0.00242023  0.25124093  1
  Mg  Mg47  1  0.83036333  -0.00096073  0.75394627  1
  Mg  Mg48  1  0.83538734  0.49991881  0.74620093  1
  Mg  Mg49  1  0.49634512  0.49580966  0.24343877  1
  Mg  Mg50  1  0.66102626  0.25133089  0.25112778  1
  Mg  Mg51  1  0.00231683  0.74788321  0.74563177  1
  Mg  Mg52  1  0.66612001  0.74996316  0.24740796  1
  Mg  Mg53  1  0.66682548  0.91612030  0.24875458  1
  Mg  Mg54  1  0.33448060  0.08536561  0.24917625  1
  Mg  Mg55  1  0.49845092  0.66495577  0.24509935  1
  Mg  Mg56  1  0.49694952  0.83420050  0.24635794  1
  Mg  Mg57  1  0.33261705  0.58349452  0.74946276  1
  Mg  Mg58  1  0.00383007  0.58304037  0.25197813  1
  Mg  Mg59  1  0.83019558  0.16409403  0.75317825  1
  Mg  Mg60  1  0.33385711  0.58088974  0.24667597  1
  Mg  Mg61  1  0.00259447  0.58142926  0.74717101  1
  Mg  Mg62  1  0.83190375  0.83375476  0.75022733  1
  Mg  Mg63  1  0.66529492  0.08578554  0.25270489  1
  Mg  Mg64  1  0.16935659  0.66541452  0.25113001  1
  Mg  Mg65  1  0.16711367  0.33523081  0.74991504  1
  Mg  Mg66  1  0.17245605  0.33531604  0.25056584  1
  Mg  Mg67  1  0.16920245  0.66150693  0.74755341  1
  Mg  Mg68  1  0.50025480  0.16916720  0.24920527  1
  Mg  Mg69  1  0.66448686  0.41573393  0.74457938  1
  Mg  Mg70  1  0.00049929  0.08630883  0.25261673  1
  Mg  Mg71  1  0.00361448  0.41429251  0.25286604  1
  Mg  Mg72  1  0.49791258  0.66764442  0.75039095  1
  Mg  Mg73  1  0.83654339  0.66665523  0.25089554  1
  Mg  Mg74  1  0.83299205  0.33333014  0.25159923  1
  Mg  Mg75  1  0.66251614  0.41516872  0.24864205  1
  Mg  Mg76  1  0.66452644  0.08127602  0.75812956  1
  Mg  Mg77  1  0.66031616  0.91525669  0.75847170  1
  Mg  Mg78  1  0.16927606  0.16951052  0.25099933  1
  Mg  Mg79  1  0.16715755  0.83649857  0.25163807  1
  Mg  Mg80  1  0.83088367  0.33351220  0.74753690  1
  Mg  Mg81  1  0.50001179  0.16293046  0.75460042  1
  Mg  Mg82  1  0.16659166  0.83280095  0.74887862  1
  Mg  Mg83  1  0.66685999  0.58344465  0.24762215  1
  Mg  Mg84  1  0.33292317  0.41742191  0.74952039  1
  Mg  Mg85  1  0.16606456  0.16538848  0.75071627  1
  Mg  Mg86  1  0.33362217  0.08170250  0.75131572  1
  Mg  Mg87  1  0.83169819  0.16755865  0.25189126  1
  Mg  Mg88  1  0.66491736  0.58463625  0.74517849  1
  Mg  Mg89  1  0.00146765  0.41727975  0.74783956  1
  Mg  Mg90  1  -0.00094421  0.91473992  0.74751806  1
  Mg  Mg91  1  0.83385153  0.66514317  0.74514322  1
  Mg  Mg92  1  -0.00228246  0.08424402  0.75091160  1
  Mg  Mg93  1  0.83538056  0.83418296  0.25075211  1
  Mg  Mg94  1  0.33604749  0.91624366  0.75060321  1
  Mg  Mg95  1  0.33168081  0.91445324  0.24745097  1
  Fe  Fe96  1  0.80335109  0.08027232  0.89422104  1
  Fe  Fe97  1  0.30748926  0.66448068  0.89075757  1
  Fe  Fe98  1  0.63951310  0.17036758  0.39171732  1
  Fe  Fe99  1  0.47510283  0.09152763  0.89372616  1
  Fe  Fe100  1  0.97402771  0.83246504  0.39076179  1
  Fe  Fe101  1  0.48089655  0.91887306  0.89037662  1
  Fe  Fe102  1  0.19043237  0.08653659  0.61044206  1
  Fe  Fe103  1  0.35551044  0.67055818  0.60777859  1
  Fe  Fe104  1  0.35812932  0.33431035  0.10881662  1
  Fe  Fe105  1  0.31394821  0.16556910  0.38818929  1
  Fe  Fe106  1  0.68914031  0.32722608  0.60849396  1
  Fe  Fe107  1  0.52706924  0.58914854  0.60739370  1
  Fe  Fe108  1  0.35537967  0.83385074  0.10573982  1
  Fe  Fe109  1  0.85842177  0.58043948  0.60847126  1
  Fe  Fe110  1  0.02596605  0.82837959  0.60915992  1
  Fe  Fe111  1  0.30709845  0.83702269  0.39018008  1
  Fe  Fe112  1  0.14440128  0.40966653  0.39203608  1
  Si  Si113  1  0.47520543  0.07864219  0.38701581  1
  Si  Si114  1  0.36432945  0.16632253  0.61393230  1
  Si  Si115  1  0.53148259  0.91744636  0.11160497  1
  Si  Si116  1  0.13949402  0.09109370  0.38793146  1
  Si  Si117  1  0.96517607  0.33339798  0.38959183  1
  Si  Si118  1  0.02452412  0.66808255  0.11421298  1
  Si  Si119  1  0.69554800  0.33356148  0.11446028  1
  Si  Si120  1  0.80202842  0.91316949  0.38693685  1
  Si  Si121  1  0.02447119  0.33452571  0.11344262  1
  Si  Si122  1  0.97217039  0.16842448  0.88922210  1
  Si  Si123  1  0.19229750  0.91683205  0.61296196  1
  Si  Si124  1  0.80910502  0.58487007  0.38390496  1
  Si  Si125  1  0.47866985  0.57955916  0.88928861  1
  Si  Si126  1  0.30058861  0.17003721  0.88929049  1
  Si  Si127  1  0.97665610  0.33368842  0.88509032  1
  Si  Si128  1  0.96722034  0.16434848  0.38627675  1
  Si  Si129  1  0.53140288  0.41906677  0.10863851  1
  Si  Si130  1  0.14247059  0.92500421  0.39024647  1
  Si  Si131  1  0.97939373  0.66345938  0.38690416  1
  Si  Si132  1  0.64127258  0.33976597  0.38559638  1
  Si  Si133  1  0.80368756  0.42021579  0.38502032  1
  Si  Si134  1  0.14592358  0.58110994  0.38583540  1
  Si  Si135  1  0.81372985  0.42032654  0.88463181  1
  Si  Si136  1  0.97675752  0.83107318  0.88510355  1
  Si  Si137  1  0.35846397  0.16024206  0.11036122  1
  Si  Si138  1  0.80609728  0.07910662  0.38930960  1
  Si  Si139  1  0.52735239  0.07927166  0.62208812  1
  Si  Si140  1  0.47635506  0.58306105  0.38086958  1
  Si  Si141  1  0.52341545  0.91732264  0.62188161  1
  Si  Si142  1  0.85796092  0.91890985  0.11611423  1
  Si  Si143  1  0.19093850  0.41168715  0.61510905  1
  Si  Si144  1  0.64605229  0.65980679  0.88656705  1
  Si  Si145  1  0.64155941  0.17665137  0.89415295  1
  Si  Si146  1  0.86000061  0.58269965  0.11442856  1
  Si  Si147  1  0.64719711  0.82412745  0.89118554  1
  Si  Si148  1  0.30310774  0.83848977  0.88817445  1
  Si  Si149  1  0.02640750  0.16776329  0.11554672  1
  Si  Si150  1  0.81153200  0.90865347  0.89142128  1
  Si  Si151  1  0.47580018  0.42067244  0.38055376  1
  Si  Si152  1  0.64934301  0.33975964  0.88568821  1
  Si  Si153  1  0.63764227  0.83159829  0.38215691  1
  Si  Si154  1  0.18318583  0.91916009  0.10977123  1
  Si  Si155  1  0.14052971  0.41638500  0.88404785  1
  Si  Si156  1  0.47856114  0.91770901  0.38493881  1
  Si  Si157  1  0.86047994  0.41662149  0.11463714  1
  Si  Si158  1  0.85507544  0.91847037  0.61419498  1
  Si  Si159  1  0.64173985  0.66675959  0.38218637  1
  Si  Si160  1  0.13545631  0.08590739  0.88623052  1
  Si  Si161  1  0.02969025  0.65667354  0.60980582  1
  Si  Si162  1  0.69683078  0.83356412  0.11338859  1
  Si  Si163  1  0.81144928  0.58402160  0.88370683  1
  Si  Si164  1  0.68711026  0.83859543  0.61721839  1
  Si  Si165  1  0.02355759  0.33493705  0.61541600  1
  Si  Si166  1  0.52037573  0.42022897  0.60813381  1
  Si  Si167  1  0.97481925  0.66724057  0.88367810  1
  Si  Si168  1  0.18795735  0.58274554  0.11340489  1
  Si  Si169  1  0.35742220  0.66048063  0.11042086  1
  Si  Si170  1  0.68760275  0.15941900  0.61677220  1
  Si  Si171  1  0.19563298  0.57651388  0.61208859  1
  Si  Si172  1  0.52942656  0.08318273  0.11462574  1
  Si  Si173  1  0.35563032  0.33218262  0.61491172  1
  Si  Si174  1  0.85700856  0.08397386  0.61710160  1
  Si  Si175  1  0.85759945  0.41161822  0.61052326  1
  Si  Si176  1  0.13659323  0.92092367  0.88468402  1
  Si  Si177  1  0.69449543  0.66776490  0.11275209  1
  Si  Si178  1  0.52909751  0.58395014  0.11101497  1
  Si  Si179  1  0.18566155  0.41777110  0.10936122  1
  Si  Si180  1  0.30800209  0.33618454  0.88536758  1
  Si  Si181  1  0.18807873  0.08354684  0.11311332  1
  Si  Si182  1  0.31819889  0.33241336  0.38823431  1
  Si  Si183  1  0.47701505  0.41562352  0.88419458  1
  Si  Si184  1  0.13578304  0.58191228  0.88678754  1
  Si  Si185  1  0.69783875  0.67353938  0.61030226  1
  Si  Si186  1  0.35502545  0.83854018  0.61632856  1
  Si  Si187  1  0.69409597  0.16781860  0.11560725  1
  Si  Si188  1  0.31155631  0.66532024  0.38374438  1
  Si  Si189  1  0.02337954  0.83226271  0.11513765  1
  Si  Si190  1  0.85972456  0.08432968  0.11574577  1
  Si  Si191  1  0.01917355  0.17130538  0.61373294  1
  O  O192  1  0.27029060  0.11343838  0.08339921  1
  O  O193  1  0.28617273  0.11836298  0.57709307  1
  O  O194  1  0.27013045  0.61324313  0.08451078  1
  O  O195  1  0.27298686  0.59948169  0.57592560  1
  O  O196  1  0.60313825  0.12987065  0.08636366  1
  O  O197  1  0.61300457  0.09966857  0.59176242  1
  O  O198  1  0.60322017  0.63099222  0.08264708  1
  O  O199  1  0.62665697  0.61753297  0.57609547  1
  O  O200  1  0.93723249  0.12411013  0.08608214  1
  O  O201  1  0.93490727  0.12081540  0.58671875  1
  O  O202  1  0.93715131  0.62231232  0.08466366  1
  O  O203  1  0.96025759  0.59658848  0.57916281  1
  O  O204  1  0.09663681  0.37343491  0.07791847  1
  O  O205  1  0.10865697  0.35947928  0.58700356  1
  O  O206  1  0.09479814  0.87395468  0.08134242  1
  O  O207  1  0.12528276  0.85550314  0.58026063  1
  O  O208  1  0.44535936  0.38227840  0.07235832  1
  O  O209  1  0.43527005  0.36805515  0.58723154  1
  O  O210  1  0.44573512  0.88020030  0.07537725  1
  O  O211  1  0.44243496  0.86678201  0.59100123  1
  O  O212  1  0.77295614  0.37371467  0.08492284  1
  O  O213  1  0.79258222  0.34802469  0.58099275  1
  O  O214  1  0.77187487  0.87468419  0.08267773  1
  O  O215  1  0.76591297  0.87500802  0.58687343  1
  O  O216  1  0.25734537  0.38558238  0.07164155  1
  O  O217  1  0.26913802  0.37726140  0.58253398  1
  O  O218  1  0.25546802  0.88521513  0.07357118  1
  O  O219  1  0.28428735  0.90146394  0.59023615  1
  O  O220  1  0.61088815  0.37770841  0.08127520  1
  O  O221  1  0.59581610  0.38473970  0.57439255  1
  O  O222  1  0.60974677  0.87541961  0.08443811  1
  O  O223  1  0.60356580  0.88707121  0.58753627  1
  O  O224  1  0.93525645  0.37736098  0.08272142  1
  O  O225  1  0.94970086  0.39272208  0.58685097  1
  O  O226  1  0.93474419  0.87648290  0.08861280  1
  O  O227  1  0.92914990  0.88637869  0.57923449  1
  O  O228  1  0.10432355  0.13333781  0.08233688  1
  O  O229  1  0.09626593  0.14691624  0.57853740  1
  O  O230  1  0.10360746  0.63242891  0.08428560  1
  O  O231  1  0.11653169  0.63094197  0.58340685  1
  O  O232  1  0.43645942  0.11610396  0.08349022  1
  O  O233  1  0.45191286  0.13597286  0.59102009  1
  O  O234  1  0.43557942  0.61736807  0.08340198  1
  O  O235  1  0.44682178  0.65230530  0.56706788  1
  O  O236  1  0.77087469  0.12649553  0.08599788  1
  O  O237  1  0.77220368  0.13008208  0.58849422  1
  O  O238  1  0.77079475  0.62450538  0.08425985  1
  O  O239  1  0.78454198  0.65779502  0.58195759  1
  O  O240  1  0.05315321  0.11899514  0.41493290  1
  O  O241  1  0.05745887  0.12087817  0.91752330  1
  O  O242  1  0.05900287  0.60856443  0.41146114  1
  O  O243  1  0.05205877  0.61418144  0.91581946  1
  O  O244  1  0.38798120  0.08806010  0.41554929  1
  O  O245  1  0.37974017  0.12668996  0.92836658  1
  O  O246  1  0.39198066  0.60998477  0.40837138  1
  O  O247  1  0.40962687  0.61683307  0.92673858  1
  O  O248  1  0.73123144  0.10865077  0.42508350  1
  O  O249  1  0.71688559  0.12396888  0.93055559  1
  O  O250  1  0.72664475  0.61891991  0.41086626  1
  O  O251  1  0.73162949  0.61220935  0.91676290  1
  O  O252  1  0.23968968  0.35491035  0.42513671  1
  O  O253  1  0.23298979  0.38028029  0.91452712  1
  O  O254  1  0.21745733  0.87306328  0.42782989  1
  O  O255  1  0.22010848  0.87545830  0.91509591  1
  O  O256  1  0.55785426  0.37133602  0.41265135  1
  O  O257  1  0.56631129  0.37256543  0.91346294  1
  O  O258  1  0.55459422  0.85811709  0.41087341  1
  O  O259  1  0.57370200  0.85674965  0.92614417  1
  O  O260  1  0.88072921  0.36632727  0.41691133  1
  O  O261  1  0.89871680  0.37256504  0.91527785  1
  O  O262  1  0.87335104  0.85832628  0.42115342  1
  O  O263  1  0.89724941  0.85926361  0.91825594  1
  O  O264  1  0.04790991  0.37605476  0.42592280  1
  O  O265  1  0.06500239  0.37544612  0.91606977  1
  O  O266  1  0.05415485  0.90491329  0.41459149  1
  O  O267  1  0.05747273  0.88310055  0.91418788  1
  O  O268  1  0.39439223  0.39334284  0.41160485  1
  O  O269  1  0.39984305  0.37431195  0.91416221  1
  O  O270  1  0.40098942  0.89691086  0.42112223  1
  O  O271  1  0.38368914  0.88538109  0.92180878  1
  O  O272  1  0.71788625  0.39878181  0.41251544  1
  O  O273  1  0.73232615  0.39154730  0.91638647  1
  O  O274  1  0.71331590  0.88766735  0.41150299  1
  O  O275  1  0.73769009  0.86536045  0.92205065  1
  O  O276  1  0.21310120  0.14558803  0.42004568  1
  O  O277  1  0.21629559  0.13648931  0.91557660  1
  O  O278  1  0.22598496  0.63629157  0.41015903  1
  O  O279  1  0.21761394  0.62253951  0.92661139  1
  O  O280  1  0.54406548  0.13671617  0.42265007  1
  O  O281  1  0.55652363  0.16344589  0.92408211  1
  O  O282  1  0.55946099  0.63428036  0.40937675  1
  O  O283  1  0.57125515  0.61891904  0.91722723  1
  O  O284  1  0.89214113  0.12537174  0.41889972  1
  O  O285  1  0.89924699  0.13780984  0.92632206  1
  O  O286  1  0.89343483  0.63179418  0.41241283  1
  O  O287  1  0.89135034  0.63744507  0.91292408  1
  O  O288  1  0.16392247  0.00276486  0.08268230  1
  O  O289  1  0.15797467  -0.00607462  0.58110237  1
  O  O290  1  0.16522046  0.50242201  0.08240182  1
  O  O291  1  0.16811470  0.49278797  0.58586449  1
  O  O292  1  0.53560848  0.00130719  0.08636341  1
  O  O293  1  0.50133684  -0.00114744  0.59117275  1
  O  O294  1  0.53509409  0.50339452  0.07996368  1
  O  O295  1  0.49571490  0.49696416  0.57217133  1
  O  O296  1  0.85340117  0.00152265  0.08581741  1
  O  O297  1  0.83930612  0.00247052  0.58759258  1
  O  O298  1  0.85135584  0.49995559  0.08520007  1
  O  O299  1  0.82208289  0.48772786  0.57833747  1
  O  O300  1  0.01182325  0.25065548  0.08596069  1
  O  O301  1  -0.00725151  0.25436852  0.58814646  1
  O  O302  1  0.00861341  0.74980063  0.08327278  1
  O  O303  1  0.00033623  0.73476013  0.57830069  1
  O  O304  1  0.34752126  0.23758017  0.07392658  1
  O  O305  1  0.34829450  0.24966101  0.58505625  1
  O  O306  1  0.34626276  0.73765340  0.07421670  1
  O  O307  1  0.32403971  0.76491863  0.57751433  1
  O  O308  1  0.69103672  0.25055899  0.08596713  1
  O  O309  1  0.65954687  0.23344487  0.57865750  1
  O  O310  1  0.69444408  0.75045178  0.08442728  1
  O  O311  1  0.66947445  0.75754271  0.58661587  1
  O  O312  1  0.16264963  0.00938170  0.41596138  1
  O  O313  1  0.14667122  0.00322970  0.91552347  1
  O  O314  1  0.16935811  0.50494273  0.42154277  1
  O  O315  1  0.14120758  0.49763252  0.91444770  1
  O  O316  1  0.51614606  -0.00257271  0.40916345  1
  O  O317  1  0.50607726  0.00498251  0.93557128  1
  O  O318  1  0.49917245  0.50276122  0.41097930  1
  O  O319  1  0.49095684  0.49570378  0.91889103  1
  O  O320  1  0.82465338  -0.00482954  0.41457886  1
  O  O321  1  0.82700513  -0.01410435  0.92787742  1
  O  O322  1  0.82693927  0.50283596  0.41187925  1
  O  O323  1  0.83500128  0.50255521  0.91407060  1
  O  O324  1  0.35609103  0.25579597  0.41925452  1
  O  O325  1  0.30742966  0.25498418  0.91646823  1
  O  O326  1  0.33693687  0.74206688  0.41764567  1
  O  O327  1  0.31163290  0.75917549  0.92242636  1
  O  O328  1  0.66859106  0.26434823  0.42238299  1
  O  O329  1  0.67317705  0.26049031  0.91805252  1
  O  O330  1  0.66042560  0.74931450  0.41009004  1
  O  O331  1  0.66382760  0.73981814  0.91945068  1
  O  O332  1  0.97286816  0.24792997  0.41382333  1
  O  O333  1  0.98996350  0.25234867  0.91552607  1
  O  O334  1  1.00399484  0.73895079  0.42299087  1
  O  O335  1  0.99660117  0.74870226  0.91426475  1
  O  O336  1  0.20771646  0.08356245  0.19309547  1
  O  O337  1  0.20897886  0.08546922  0.70232059  1
  O  O338  1  0.20677783  0.58380319  0.19358579  1
  O  O339  1  0.21237147  0.58041014  0.69220186  1
  O  O340  1  0.54455634  0.08216389  0.19487989  1
  O  O341  1  0.54733381  0.08216578  0.70170900  1
  O  O342  1  0.54742288  0.58512526  0.19140011  1
  O  O343  1  0.54504383  0.58577130  0.70018344  1
  O  O344  1  0.87500847  0.08466361  0.19562664  1
  O  O345  1  0.87710760  0.08304857  0.69753793  1
  O  O346  1  0.87716306  0.58339183  0.19466394  1
  O  O347  1  0.88018554  0.58213230  0.70077025  1
  O  O348  1  0.04415382  0.33989779  0.19217981  1
  O  O349  1  0.04255661  0.33258833  0.69609564  1
  O  O350  1  0.04798964  0.82682577  0.19395987  1
  O  O351  1  0.04397633  0.83296326  0.70103256  1
  O  O352  1  0.37531768  0.33213758  0.19676535  1
  O  O353  1  0.36491806  0.33218524  0.69417945  1
  O  O354  1  0.37851369  0.83300000  0.19717093  1
  O  O355  1  0.36917812  0.83193156  0.69610162  1
  O  O356  1  0.71068115  0.33526926  0.19463866  1
  O  O357  1  0.71162268  0.33165098  0.70033199  1
  O  O358  1  0.71207193  0.83217824  0.19390567  1
  O  O359  1  0.70921528  0.83577390  0.69769291  1
  O  O360  1  0.20322940  0.41721906  0.18897497  1
  O  O361  1  0.21101215  0.41148353  0.69471858  1
  O  O362  1  0.20429789  0.91809447  0.19038619  1
  O  O363  1  0.20593045  0.91661701  0.69464976  1
  O  O364  1  0.54883174  0.42211802  0.18843041  1
  O  O365  1  0.54651753  0.42526256  0.68841905  1
  O  O366  1  0.54604174  0.91543157  0.19276393  1
  O  O367  1  0.54786091  0.91628215  0.70039409  1
  O  O368  1  0.87726188  0.41739192  0.19483949  1
  O  O369  1  0.87703983  0.41393432  0.69268860  1
  O  O370  1  0.86583422  0.91935758  0.19492631  1
  O  O371  1  0.87402673  0.91705246  0.69551917  1
  O  O372  1  0.04707922  0.16297931  0.19443300  1
  O  O373  1  0.03906163  0.16789494  0.69507167  1
  O  O374  1  0.04206987  0.66585658  0.19450047  1
  O  O375  1  0.04522076  0.66218558  0.69172186  1
  O  O376  1  0.37863797  0.16265098  0.19071452  1
  O  O377  1  0.37457829  0.16689589  0.69443591  1
  O  O378  1  0.37631864  0.66543195  0.19124084  1
  O  O379  1  0.37879788  0.66558428  0.69980198  1
  O  O380  1  0.71162581  0.16633117  0.19563268  1
  O  O381  1  0.70967140  0.16433202  0.69744350  1
  O  O382  1  0.71191812  0.66611760  0.19312946  1
  O  O383  1  0.71181209  0.66922376  0.69225977  1
  O  O384  1  0.12260322  0.08818202  0.30674257  1
  O  O385  1  0.11730165  0.08503505  0.80599925  1
  O  O386  1  0.12565406  0.58208850  0.30429813  1
  O  O387  1  0.11945225  0.58591440  0.80706297  1
  O  O388  1  0.45898635  0.08211513  0.30499663  1
  O  O389  1  0.45086209  0.08507925  0.80353093  1
  O  O390  1  0.45950440  0.58415443  0.30020767  1
  O  O391  1  0.45927973  0.58082481  0.80915328  1
  O  O392  1  0.78691630  0.08308219  0.30807779  1
  O  O393  1  0.78973180  0.08224763  0.80295261  1
  O  O394  1  0.79023720  0.58452515  0.30287626  1
  O  O395  1  0.79058972  0.58360028  0.80393339  1
  O  O396  1  0.29168706  0.33181988  0.30780296  1
  O  O397  1  0.28930437  0.33423620  0.80552711  1
  O  O398  1  0.28778524  0.83355243  0.29803588  1
  O  O399  1  0.28545225  0.83523823  0.80717290  1
  O  O400  1  0.62799686  0.33598376  0.30533296  1
  O  O401  1  0.63468852  0.33724395  0.80672322  1
  O  O402  1  0.62222678  0.83147569  0.30126807  1
  O  O403  1  0.63395250  0.82774537  0.81164423  1
  O  O404  1  0.94848524  0.34188884  0.30956039  1
  O  O405  1  0.95671569  0.33383205  0.80490434  1
  O  O406  1  0.94862410  0.82322226  0.30041777  1
  O  O407  1  0.95567118  0.83228124  0.80515200  1
  O  O408  1  0.12264589  0.41601863  0.30017466  1
  O  O409  1  0.12039138  0.41141368  0.80503899  1
  O  O410  1  0.13693377  0.92034469  0.30984444  1
  O  O411  1  0.11920575  0.92066628  0.80464817  1
  O  O412  1  0.46060066  0.42169869  0.30151469  1
  O  O413  1  0.45504492  0.42152072  0.80537397  1
  O  O414  1  0.45894209  0.91584086  0.30366073  1
  O  O415  1  0.45360562  0.91571142  0.80235008  1
  O  O416  1  0.78807623  0.41916822  0.30400581  1
  O  O417  1  0.79558659  0.41884217  0.80484549  1
  O  O418  1  0.78663709  0.91452781  0.30557917  1
  O  O419  1  0.79386255  0.91254411  0.81069086  1
  O  O420  1  0.29085970  0.16648004  0.29626875  1
  O  O421  1  0.28613057  0.16901357  0.80878853  1
  O  O422  1  0.29266207  0.66571175  0.30220999  1
  O  O423  1  0.28673901  0.66392914  0.80009658  1
  O  O424  1  0.62182541  0.16730707  0.29990305  1
  O  O425  1  0.62776610  0.16953748  0.81304529  1
  O  O426  1  0.62467041  0.66645201  0.30134784  1
  O  O427  1  0.62928425  0.66367688  0.80684614  1
  O  O428  1  0.94778982  0.16219245  0.30671355  1
  O  O429  1  0.95563377  0.16681386  0.80822978  1
  O  O430  1  0.95812591  0.66390305  0.30520292  1
  O  O431  1  0.95743611  0.66804017  0.80371559  1
  F  F432  1  0.04720938  0.00901073  0.20120829  1
  F  F433  1  0.04134585  0.00193620  0.70203379  1
  F  F434  1  0.04212977  0.50217112  0.20069800  1
  F  F435  1  0.04386337  0.49775040  0.70218429  1
  F  F436  1  0.38000932  -0.00089260  0.20035256  1
  F  F437  1  0.36759397  0.00059483  0.70018198  1
  F  F438  1  0.38219067  0.50917392  0.19234287  1
  F  F439  1  0.37916413  0.49908848  0.70159837  1
  F  F440  1  0.71244434  0.00149346  0.20336430  1
  F  F441  1  0.71082165  -0.00435824  0.70716012  1
  F  F442  1  0.71481718  0.50120290  0.19968153  1
  F  F443  1  0.71444249  0.50046905  0.70133662  1
  F  F444  1  0.21058407  0.25221144  0.19769027  1
  F  F445  1  0.20965155  0.24938518  0.70424802  1
  F  F446  1  0.20990663  0.74718093  0.19950991  1
  F  F447  1  0.21033797  0.74972740  0.70293707  1
  F  F448  1  0.54797121  0.24667056  0.19553212  1
  F  F449  1  0.55090579  0.23763629  0.70271030  1
  F  F450  1  0.54673582  0.74892342  0.19785966  1
  F  F451  1  0.54805698  0.74746691  0.70470492  1
  F  F452  1  0.86556503  0.25126824  0.19892123  1
  F  F453  1  0.87877075  0.24724335  0.70472431  1
  F  F454  1  0.87604263  0.74562588  0.19711161  1
  F  F455  1  0.87906084  0.75200001  0.70154419  1
  F  F456  1  0.28850984  -0.00007876  0.29257019  1
  F  F457  1  0.28344271  -0.00146579  0.80095904  1
  F  F458  1  0.28865019  0.50301797  0.29411605  1
  F  F459  1  0.29146509  0.49850863  0.79913641  1
  F  F460  1  0.62164330  -0.00221135  0.29643112  1
  F  F461  1  0.63567096  -0.00114321  0.81197741  1
  F  F462  1  0.62162494  0.50241298  0.29394992  1
  F  F463  1  0.62551721  0.49861037  0.79766122  1
  F  F464  1  0.94846492  0.01072014  0.30269034  1
  F  F465  1  0.95425165  -0.00148958  0.79889824  1
  F  F466  1  0.95364381  0.50133469  0.29744108  1
  F  F467  1  0.95578978  0.49659070  0.79997104  1
  F  F468  1  0.13384311  0.25257211  0.30030348  1
  F  F469  1  0.11934548  0.25009132  0.79893739  1
  F  F470  1  0.12271710  0.74794487  0.29757150  1
  F  F471  1  0.12072149  0.74680286  0.79812995  1
  F  F472  1  0.45559557  0.24627900  0.29707002  1
  F  F473  1  0.44878166  0.24285953  0.80182878  1
  F  F474  1  0.45821655  0.74704827  0.29471884  1
  F  F475  1  0.45432413  0.74464662  0.80470724  1
  F  F476  1  0.78505240  0.25130187  0.29888846  1
  F  F477  1  0.79198975  0.24968313  0.80104438  1
  F  F478  1  0.78527140  0.74775081  0.29563917  1
  F  F479  1  0.79022728  0.74768237  0.79675706  1
