# generated using pymatgen
data_K24Na3Li5Mg64Fe17Si79(O5F)48
_symmetry_space_group_name_H-M   'P 1'
_cell_length_a   16.10994087
_cell_length_b   18.59182084
_cell_length_c   20.56400614
_cell_angle_alpha   90.02159356
_cell_angle_beta   100.00994583
_cell_angle_gamma   89.94548366
_symmetry_Int_Tables_number   1
_chemical_formula_structural   K24Na3Li5Mg64Fe17Si79(O5F)48
_chemical_formula_sum   'K24 Na3 Li5 Mg64 Fe17 Si79 O240 F48'
_cell_volume   6065.42936941
_cell_formula_units_Z   1
loop_
 _symmetry_equiv_pos_site_id
 _symmetry_equiv_pos_as_xyz
  1  'x, y, z'
loop_
 _atom_site_type_symbol
 _atom_site_label
 _atom_site_symmetry_multiplicity
 _atom_site_fract_x
 _atom_site_fract_y
 _atom_site_fract_z
 _atom_site_occupancy
  K  K0  1  -0.01530141  0.00439970  -0.00526882  1
  K  K1  1  0.00656305  0.00337016  0.50394520  1
  K  K2  1  0.00195536  0.50911919  -0.00993182  1
  K  K3  1  -0.01222053  0.49533916  0.51018123  1
  K  K4  1  0.34046680  0.00126009  -0.00195034  1
  K  K5  1  0.32829374  0.00806730  0.49991563  1
  K  K6  1  0.32511835  0.50152912  0.00339848  1
  K  K7  1  0.34117789  0.50175026  0.50095376  1
  K  K8  1  0.67071032  -0.01108994  -0.01349124  1
  K  K9  1  0.66088614  0.00459103  0.50822072  1
  K  K10  1  0.67695913  0.50001692  -0.00164637  1
  K  K11  1  0.67821284  0.50039370  0.50653994  1
  K  K12  1  0.16597838  0.24990109  -0.00369249  1
  K  K13  1  0.15364327  0.24043907  0.50554833  1
  K  K14  1  0.15925399  0.74392332  -0.00215956  1
  K  K15  1  0.16708556  0.75286288  0.50116838  1
  K  K16  1  0.49636791  0.24702063  0.00441768  1
  K  K17  1  0.51351310  0.24522311  0.50196294  1
  K  K18  1  0.51162005  0.75035582  -0.00626438  1
  K  K19  1  0.50307516  0.74614261  0.50349335  1
  K  K20  1  0.84495967  0.24284337  -0.00588282  1
  K  K21  1  0.83482404  0.26394166  0.50684787  1
  K  K22  1  0.82281069  0.75237034  -0.01016993  1
  K  K23  1  0.83073588  0.75012784  0.49763340  1
  Na  Na24  1  0.66598138  0.25162470  0.25289773  1
  Na  Na25  1  0.16101664  0.16637553  0.75168843  1
  Na  Na26  1  0.66138935  0.91675891  0.74649856  1
  Li  Li27  1  0.33398666  0.74927550  0.24823851  1
  Li  Li28  1  0.83695403  0.50539811  0.74452415  1
  Li  Li29  1  0.50470412  0.83173050  0.74520581  1
  Li  Li30  1  0.83270696  0.66682966  0.25140655  1
  Li  Li31  1  0.00182906  0.08727658  0.75225748  1
  Mg  Mg32  1  0.50108479  0.49839120  0.75147882  1
  Mg  Mg33  1  0.66800926  0.24865312  0.74891260  1
  Mg  Mg34  1  0.83274556  0.50297313  0.25203296  1
  Mg  Mg35  1  0.50215933  -0.00056331  0.75161816  1
  Mg  Mg36  1  0.66965473  0.74796889  0.25339438  1
  Mg  Mg37  1  0.32965329  0.24977373  0.74995138  1
  Mg  Mg38  1  0.16768803  0.00092985  0.75091631  1
  Mg  Mg39  1  0.16636398  0.50239682  0.24498614  1
  Mg  Mg40  1  0.00087121  0.24859923  0.74941673  1
  Mg  Mg41  1  -0.00047827  0.24841210  0.24903826  1
  Mg  Mg42  1  0.33375937  0.25056558  0.24888703  1
  Mg  Mg43  1  0.16353431  0.50121811  0.75106915  1
  Mg  Mg44  1  0.83552782  0.00166690  0.75078442  1
  Mg  Mg45  1  0.00089721  0.75017968  0.75072760  1
  Mg  Mg46  1  0.66593210  0.75031053  0.74598560  1
  Mg  Mg47  1  0.33834806  0.74950756  0.74964890  1
  Mg  Mg48  1  0.49912621  0.50101553  0.25212511  1
  Mg  Mg49  1  0.16606383  -0.00112610  0.25309793  1
  Mg  Mg50  1  0.83541572  0.00058543  0.24586041  1
  Mg  Mg51  1  0.50117966  -0.00035159  0.25050427  1
  Mg  Mg52  1  -0.00319569  0.74954289  0.24728244  1
  Mg  Mg53  1  0.16691190  0.66747669  0.24585291  1
  Mg  Mg54  1  0.16583090  0.33467444  0.24607585  1
  Mg  Mg55  1  0.33374103  0.58325831  0.75259554  1
  Mg  Mg56  1  0.16154001  0.33398588  0.75003360  1
  Mg  Mg57  1  0.49848979  0.33432531  0.25003803  1
  Mg  Mg58  1  0.49977934  0.66852094  0.25245515  1
  Mg  Mg59  1  0.83232827  0.33458790  0.25098665  1
  Mg  Mg60  1  0.33230167  0.08408424  0.74982658  1
  Mg  Mg61  1  0.33400194  0.91314079  0.25120569  1
  Mg  Mg62  1  0.16725934  0.66650919  0.75016458  1
  Mg  Mg63  1  -0.00086212  0.58365784  0.75307727  1
  Mg  Mg64  1  0.34131309  0.91487422  0.74723524  1
  Mg  Mg65  1  0.83316400  0.83259813  0.24735642  1
  Mg  Mg66  1  0.83848187  0.16511600  0.74940719  1
  Mg  Mg67  1  -0.00300681  0.41668165  0.75158659  1
  Mg  Mg68  1  0.50086314  0.16647568  0.25055066  1
  Mg  Mg69  1  -0.00067207  0.41701000  0.24802859  1
  Mg  Mg70  1  0.66479816  0.08259659  0.74831535  1
  Mg  Mg71  1  0.17037293  0.83440486  0.74912232  1
  Mg  Mg72  1  0.16610204  0.16426898  0.25081719  1
  Mg  Mg73  1  0.50434066  0.66586864  0.75212338  1
  Mg  Mg74  1  0.83151730  0.83442534  0.74872163  1
  Mg  Mg75  1  -0.00073116  0.08315878  0.24857512  1
  Mg  Mg76  1  0.67159646  0.41606986  0.75243843  1
  Mg  Mg77  1  0.66816877  0.08528487  0.24878579  1
  Mg  Mg78  1  0.83557144  0.33626317  0.75230604  1
  Mg  Mg79  1  0.33029423  0.41560232  0.75130010  1
  Mg  Mg80  1  0.00181812  0.92016253  0.75004020  1
  Mg  Mg81  1  0.83183735  0.66352768  0.75074772  1
  Mg  Mg82  1  -0.00274368  0.58615356  0.24807961  1
  Mg  Mg83  1  0.33294794  0.08326240  0.25161456  1
  Mg  Mg84  1  0.49831677  0.16500256  0.74822010  1
  Mg  Mg85  1  0.50047455  0.83263906  0.25222582  1
  Mg  Mg86  1  0.66891789  0.91502631  0.24935867  1
  Mg  Mg87  1  -0.00230555  0.91529666  0.24842201  1
  Mg  Mg88  1  0.83283634  0.16632011  0.24734354  1
  Mg  Mg89  1  0.67112525  0.58205809  0.75015243  1
  Mg  Mg90  1  0.66879241  0.58668412  0.25471873  1
  Mg  Mg91  1  0.66548224  0.41717909  0.25320401  1
  Mg  Mg92  1  0.16799236  0.83157827  0.24937775  1
  Mg  Mg93  1  0.33199821  0.41646139  0.24680144  1
  Mg  Mg94  1  0.49999509  0.33269406  0.75209047  1
  Mg  Mg95  1  0.33151500  0.58793138  0.24737368  1
  Fe  Fe96  1  0.63903094  0.33340534  0.39264725  1
  Fe  Fe97  1  0.68660879  0.67264359  0.60908183  1
  Fe  Fe98  1  0.14222047  0.58743915  0.88939376  1
  Fe  Fe99  1  0.19140071  0.58832467  0.10714918  1
  Fe  Fe100  1  0.85061062  0.08908820  0.10644281  1
  Fe  Fe101  1  0.98476239  0.16194434  0.89004810  1
  Fe  Fe102  1  0.86472912  0.59391639  0.60786214  1
  Fe  Fe103  1  0.63929826  0.82939736  0.88779681  1
  Fe  Fe104  1  0.85313359  0.91582418  0.10716827  1
  Fe  Fe105  1  0.80880086  0.57855389  0.89011195  1
  Fe  Fe106  1  0.64242315  0.66855887  0.39318973  1
  Fe  Fe107  1  0.35975551  0.32926853  0.10912697  1
  Fe  Fe108  1  0.02821536  0.32633721  0.60819819  1
  Fe  Fe109  1  0.51506114  0.91725246  0.60673576  1
  Fe  Fe110  1  0.51504329  0.08712964  0.60757939  1
  Fe  Fe111  1  0.85770882  0.41979334  0.61149967  1
  Fe  Fe112  1  0.14096207  0.08311091  0.39099406  1
  Si  Si113  1  0.01913011  0.67140737  0.11170902  1
  Si  Si114  1  0.03633556  0.67362039  0.61145766  1
  Si  Si115  1  0.15109944  0.07389979  0.89027933  1
  Si  Si116  1  0.19432659  0.07908530  0.61537646  1
  Si  Si117  1  0.02381724  0.33126951  0.11366363  1
  Si  Si118  1  0.35460064  0.82361790  0.61085969  1
  Si  Si119  1  0.68868408  0.33148799  0.61483759  1
  Si  Si120  1  0.85870459  0.91529402  0.61338242  1
  Si  Si121  1  0.35472320  0.33827496  0.61755950  1
  Si  Si122  1  0.52980247  0.08286237  0.11455600  1
  Si  Si123  1  0.19294830  0.07838008  0.11608698  1
  Si  Si124  1  0.19333572  0.42020024  0.61420915  1
  Si  Si125  1  0.52917999  0.91690471  0.11490204  1
  Si  Si126  1  0.97487188  0.83112180  0.38512005  1
  Si  Si127  1  0.52604831  0.42090524  0.11256638  1
  Si  Si128  1  0.81312324  0.91794961  0.88482459  1
  Si  Si129  1  0.85855418  0.58264186  0.11573053  1
  Si  Si130  1  0.46959092  0.57816676  0.88691019  1
  Si  Si131  1  0.80975622  0.40822220  0.89118462  1
  Si  Si132  1  0.30336378  0.33726576  0.38350161  1
  Si  Si133  1  0.36008877  0.65930260  0.61599754  1
  Si  Si134  1  0.80807417  0.08353825  0.38390405  1
  Si  Si135  1  0.30517237  0.33093171  0.88637432  1
  Si  Si136  1  0.31084928  0.17207614  0.38709113  1
  Si  Si137  1  0.97989888  0.83962511  0.88507374  1
  Si  Si138  1  0.52479929  0.57688361  0.61498280  1
  Si  Si139  1  0.13856904  0.41810862  0.38275547  1
  Si  Si140  1  0.14279661  0.41730503  0.88774087  1
  Si  Si141  1  0.14989508  0.91228126  0.88591296  1
  Si  Si142  1  0.64087360  0.15739447  0.38791747  1
  Si  Si143  1  0.02643970  0.83615991  0.11344710  1
  Si  Si144  1  0.80664587  0.08516877  0.88612367  1
  Si  Si145  1  0.81230552  0.58152816  0.38725181  1
  Si  Si146  1  0.47215800  0.08197904  0.38537528  1
  Si  Si147  1  0.69142210  0.66081482  0.11793356  1
  Si  Si148  1  0.97452187  0.66664218  0.38435934  1
  Si  Si149  1  0.52196498  0.41153349  0.61751936  1
  Si  Si150  1  0.19709469  0.91552938  0.61390557  1
  Si  Si151  1  0.64046458  0.33083859  0.88793343  1
  Si  Si152  1  0.18635501  0.41641079  0.10844260  1
  Si  Si153  1  0.47133755  0.92159611  0.88845876  1
  Si  Si154  1  0.47242190  0.91613162  0.38566093  1
  Si  Si155  1  0.81232021  0.92015570  0.38405132  1
  Si  Si156  1  0.52599790  0.58411410  0.11612474  1
  Si  Si157  1  0.68845668  0.82452299  0.11342139  1
  Si  Si158  1  0.46840000  0.41898650  0.38793000  1
  Si  Si159  1  0.69216204  0.34268828  0.11625658  1
  Si  Si160  1  0.64541028  0.84183892  0.38802591  1
  Si  Si161  1  0.34925149  0.17595250  0.61230037  1
  Si  Si162  1  0.97034032  0.16873000  0.38635576  1
  Si  Si163  1  0.47387122  0.08591217  0.88656986  1
  Si  Si164  1  0.31333111  0.83270340  0.88413333  1
  Si  Si165  1  0.19301555  0.91360291  0.11606353  1
  Si  Si166  1  0.63957562  0.16605910  0.88507517  1
  Si  Si167  1  0.19562894  0.58358129  0.61585711  1
  Si  Si168  1  0.47234300  0.41280902  0.88744944  1
  Si  Si169  1  0.30239265  0.66471572  0.38357961  1
  Si  Si170  1  0.46809566  0.58491134  0.38744153  1
  Si  Si171  1  0.97491363  0.33407184  0.38308173  1
  Si  Si172  1  0.85778433  0.08042837  0.61435860  1
  Si  Si173  1  0.02853048  0.83903845  0.61461591  1
  Si  Si174  1  0.02959312  0.16503201  0.11268642  1
  Si  Si175  1  0.30862597  0.82888541  0.38422163  1
  Si  Si176  1  0.97235133  0.67401034  0.89011668  1
  Si  Si177  1  0.63643481  0.65820567  0.89178921  1
  Si  Si178  1  0.85943136  0.41664255  0.11427978  1
  Si  Si179  1  0.13763817  0.58387425  0.38398447  1
  Si  Si180  1  0.02212958  0.15810386  0.61075964  1
  Si  Si181  1  0.14352542  0.91097097  0.38797840  1
  Si  Si182  1  0.36276705  0.83850527  0.11539835  1
  Si  Si183  1  0.69374528  0.16456318  0.61335354  1
  Si  Si184  1  0.35784084  0.15723311  0.11306527  1
  Si  Si185  1  0.31118869  0.16589326  0.88654133  1
  Si  Si186  1  0.31174028  0.67021242  0.88667812  1
  Si  Si187  1  0.97908833  0.33129069  0.88929763  1
  Si  Si188  1  0.68796843  0.17656728  0.11203738  1
  Si  Si189  1  0.36652202  0.67183961  0.11281529  1
  Si  Si190  1  0.69157881  0.83855067  0.61007919  1
  Si  Si191  1  0.81222950  0.41854038  0.38722923  1
  O  O192  1  0.27718730  0.10275577  0.08690459  1
  O  O193  1  0.26423905  0.12709573  0.58436227  1
  O  O194  1  0.28640839  0.62622321  0.07610879  1
  O  O195  1  0.28095580  0.60541115  0.58648586  1
  O  O196  1  0.59978773  0.13002893  0.08415323  1
  O  O197  1  0.61393862  0.11853307  0.57733671  1
  O  O198  1  0.61153894  0.60808716  0.08807533  1
  O  O199  1  0.59976329  0.60377203  0.57926461  1
  O  O200  1  0.95270269  0.11639339  0.07759556  1
  O  O201  1  0.93805866  0.10798235  0.58143015  1
  O  O202  1  0.93455739  0.62166099  0.08514387  1
  O  O203  1  0.96140726  0.62613969  0.57223796  1
  O  O204  1  0.10267048  0.36421008  0.08383129  1
  O  O205  1  0.12438167  0.36564380  0.57673266  1
  O  O206  1  0.11621576  0.85823032  0.08806777  1
  O  O207  1  0.10348432  0.88147786  0.58462353  1
  O  O208  1  0.45368542  0.36709297  0.07615809  1
  O  O209  1  0.43954738  0.36099913  0.58817539  1
  O  O210  1  0.43711799  0.88121254  0.08416034  1
  O  O211  1  0.42833354  0.84904293  0.57262974  1
  O  O212  1  0.77411318  0.37046351  0.08382739  1
  O  O213  1  0.75874161  0.36612919  0.57835445  1
  O  O214  1  0.76506010  0.84903440  0.07810323  1
  O  O215  1  0.77996407  0.86376623  0.58186405  1
  O  O216  1  0.26330192  0.38353355  0.07609495  1
  O  O217  1  0.28498630  0.40069222  0.59073847  1
  O  O218  1  0.27574766  0.88428408  0.08654255  1
  O  O219  1  0.26502983  0.86773733  0.58131017  1
  O  O220  1  0.61535366  0.39877320  0.08714802  1
  O  O221  1  0.59905238  0.37512892  0.58750686  1
  O  O222  1  0.60152842  0.87173818  0.08572884  1
  O  O223  1  0.62372476  0.90190796  0.58570559  1
  O  O224  1  0.93778157  0.37779036  0.08562971  1
  O  O225  1  0.93678610  0.37770204  0.56667582  1
  O  O226  1  0.95666481  0.89249252  0.07933938  1
  O  O227  1  0.94160673  0.88299524  0.58443938  1
  O  O228  1  0.11702648  0.13511140  0.08847467  1
  O  O229  1  0.10086358  0.11140524  0.58634873  1
  O  O230  1  0.09585751  0.64506288  0.07684945  1
  O  O231  1  0.12465312  0.64420828  0.58750222  1
  O  O232  1  0.43699751  0.11728846  0.08526012  1
  O  O233  1  0.42638062  0.15473448  0.57598290  1
  O  O234  1  0.45136729  0.64103390  0.08527813  1
  O  O235  1  0.43940713  0.62586116  0.58572269  1
  O  O236  1  0.76343472  0.15617159  0.07326030  1
  O  O237  1  0.77699301  0.13276375  0.58450901  1
  O  O238  1  0.77148531  0.62737799  0.08737166  1
  O  O239  1  0.78053058  0.65641745  0.57198134  1
  O  O240  1  0.04732275  0.12015734  0.42394172  1
  O  O241  1  0.07823361  0.10324918  0.92849979  1
  O  O242  1  0.06037240  0.62026108  0.41545833  1
  O  O243  1  0.05302650  0.62643116  0.92467658  1
  O  O244  1  0.39985740  0.12854562  0.41374271  1
  O  O245  1  0.40130323  0.12783664  0.92012118  1
  O  O246  1  0.38218875  0.61358464  0.41455876  1
  O  O247  1  0.38917658  0.61353260  0.91476834  1
  O  O248  1  0.72427920  0.10566197  0.41436807  1
  O  O249  1  0.72386091  0.11969589  0.91405443  1
  O  O250  1  0.73533088  0.60789101  0.42215188  1
  O  O251  1  0.71267382  0.60591624  0.92492127  1
  O  O252  1  0.22134553  0.36905605  0.41269539  1
  O  O253  1  0.22523532  0.36385223  0.91567300  1
  O  O254  1  0.22871283  0.86183613  0.41526205  1
  O  O255  1  0.22760047  0.85567328  0.91311581  1
  O  O256  1  0.54370309  0.36936734  0.42574107  1
  O  O257  1  0.56030953  0.36913237  0.91648487  1
  O  O258  1  0.56489968  0.88158835  0.41502767  1
  O  O259  1  0.55272558  0.87803649  0.92473210  1
  O  O260  1  0.89611390  0.36769381  0.41249379  1
  O  O261  1  0.89384377  0.35794826  0.91836381  1
  O  O262  1  0.89572635  0.86994166  0.41341103  1
  O  O263  1  0.90610140  0.88111004  0.91601484  1
  O  O264  1  0.05903098  0.38273689  0.41143689  1
  O  O265  1  0.05909348  0.38705306  0.91541044  1
  O  O266  1  0.06359313  0.87199637  0.41586250  1
  O  O267  1  0.06759043  0.88354793  0.91522222  1
  O  O268  1  0.38028905  0.39164859  0.41265979  1
  O  O269  1  0.39381877  0.37422923  0.91613845  1
  O  O270  1  0.39719943  0.87173073  0.41324974  1
  O  O271  1  0.38683755  0.88942823  0.91627774  1
  O  O272  1  0.73642384  0.39021780  0.42208847  1
  O  O273  1  0.72776316  0.37145671  0.92092723  1
  O  O274  1  0.72940886  0.89346785  0.41394800  1
  O  O275  1  0.74288736  0.87760383  0.91859805  1
  O  O276  1  0.23801246  0.13895654  0.42294377  1
  O  O277  1  0.23797198  0.12294079  0.91699602  1
  O  O278  1  0.22172346  0.63153594  0.41430268  1
  O  O279  1  0.23285463  0.65024320  0.92131847  1
  O  O280  1  0.56316319  0.11651776  0.41735436  1
  O  O281  1  0.56190268  0.12862801  0.91537363  1
  O  O282  1  0.54451249  0.63484312  0.42224823  1
  O  O283  1  0.55190293  0.62390465  0.91913689  1
  O  O284  1  0.88355988  0.14066577  0.41162309  1
  O  O285  1  0.88778515  0.12922427  0.92251176  1
  O  O286  1  0.89595449  0.63235399  0.41386301  1
  O  O287  1  0.89159142  0.64832250  0.92133593  1
  O  O288  1  0.17009179  -0.00398233  0.08806093  1
  O  O289  1  0.19715389  -0.00267062  0.58337354  1
  O  O290  1  0.16138579  0.49506474  0.07747187  1
  O  O291  1  0.16901614  0.50322594  0.58650541  1
  O  O292  1  0.52894463  -0.00021451  0.08609353  1
  O  O293  1  0.47950100  0.00315804  0.56418997  1
  O  O294  1  0.50178024  0.50361882  0.08514791  1
  O  O295  1  0.49940509  0.49305098  0.58893999  1
  O  O296  1  0.81396313  0.00214305  0.06947428  1
  O  O297  1  0.83958099  -0.00243581  0.58401385  1
  O  O298  1  0.84735795  0.49950243  0.08548891  1
  O  O299  1  0.83641295  0.50624926  0.56778931  1
  O  O300  1  0.01223872  0.24875962  0.08571753  1
  O  O301  1  0.01516035  0.23260171  0.56918337  1
  O  O302  1  -0.00239593  0.75476786  0.08659690  1
  O  O303  1  0.02593347  0.75786915  0.58289095  1
  O  O304  1  0.34060663  0.23367571  0.07636432  1
  O  O305  1  0.32061572  0.25963512  0.58875138  1
  O  O306  1  0.35565691  0.75660052  0.08574224  1
  O  O307  1  0.33260341  0.73889984  0.58561659  1
  O  O308  1  0.66171506  0.26148102  0.09067343  1
  O  O309  1  0.67512768  0.24813555  0.58716342  1
  O  O310  1  0.66515084  0.74118894  0.08809310  1
  O  O311  1  0.65479829  0.76444473  0.57416905  1
  O  O312  1  0.15856204  -0.01181618  0.42375424  1
  O  O313  1  0.17858429  -0.00924127  0.91884528  1
  O  O314  1  0.15302319  0.50064116  0.41219367  1
  O  O315  1  0.16816341  0.49409238  0.92254235  1
  O  O316  1  0.46945808  -0.00092797  0.41257046  1
  O  O317  1  0.47988935  0.00528373  0.91892768  1
  O  O318  1  0.48037185  0.50210392  0.41601794  1
  O  O319  1  0.48064138  0.49514591  0.91668348  1
  O  O320  1  0.83663377  0.00211097  0.41200560  1
  O  O321  1  0.81735854  0.00163681  0.91302673  1
  O  O322  1  0.84218907  0.49975817  0.41281760  1
  O  O323  1  0.82897717  0.48498529  0.92738923  1
  O  O324  1  0.32666135  0.25631776  0.41259593  1
  O  O325  1  0.31780317  0.24878527  0.91605182  1
  O  O326  1  0.31988370  0.74646845  0.41401257  1
  O  O327  1  0.34358561  0.75223252  0.91180613  1
  O  O328  1  0.65632392  0.23575392  0.42144934  1
  O  O329  1  0.64732955  0.24800063  0.91697867  1
  O  O330  1  0.66378380  0.76462868  0.42238417  1
  O  O331  1  0.64873681  0.73684333  0.92674352  1
  O  O332  1  0.98952336  0.25241243  0.41222749  1
  O  O333  1  1.00631322  0.25559045  0.92591733  1
  O  O334  1  0.98620278  0.74905122  0.41530702  1
  O  O335  1  0.99267071  0.75868329  0.91607278  1
  O  O336  1  0.21223211  0.08015806  0.19663738  1
  O  O337  1  0.21572668  0.07600929  0.69441950  1
  O  O338  1  0.21079428  0.58491426  0.19890661  1
  O  O339  1  0.21413925  0.58339375  0.69609436  1
  O  O340  1  0.54444316  0.08238324  0.19497978  1
  O  O341  1  0.54133106  0.08505577  0.69994210  1
  O  O342  1  0.54146241  0.58334985  0.19640912  1
  O  O343  1  0.54074159  0.57881705  0.69582497  1
  O  O344  1  0.87890930  0.08473514  0.19951745  1
  O  O345  1  0.87336134  0.08127440  0.69364454  1
  O  O346  1  0.87822949  0.57983612  0.19533874  1
  O  O347  1  0.88585521  0.59043971  0.69895697  1
  O  O348  1  0.04217366  0.33322144  0.19445870  1
  O  O349  1  0.04336324  0.33414311  0.70016276  1
  O  O350  1  0.04456237  0.83470324  0.19476586  1
  O  O351  1  0.04645352  0.83568790  0.69479407  1
  O  O352  1  0.37640655  0.33281257  0.20099030  1
  O  O353  1  0.37630992  0.33546557  0.69808135  1
  O  O354  1  0.38154191  0.83934186  0.19498121  1
  O  O355  1  0.37034492  0.82886893  0.69089200  1
  O  O356  1  0.71594033  0.34490396  0.19538194  1
  O  O357  1  0.70677281  0.33252071  0.69578827  1
  O  O358  1  0.70751475  0.83129853  0.19433603  1
  O  O359  1  0.71737509  0.82769834  0.68948435  1
  O  O360  1  0.20643844  0.41608194  0.19057518  1
  O  O361  1  0.20957608  0.41960102  0.69528567  1
  O  O362  1  0.21153091  0.91589469  0.19667170  1
  O  O363  1  0.21471492  0.91453555  0.69409467  1
  O  O364  1  0.54010948  0.42000119  0.19323663  1
  O  O365  1  0.54059272  0.41306119  0.69801934  1
  O  O366  1  0.54429996  0.91703576  0.19537656  1
  O  O367  1  0.52502644  0.91897322  0.69507401  1
  O  O368  1  0.87763729  0.41732761  0.19477504  1
  O  O369  1  0.87802205  0.41663025  0.70285531  1
  O  O370  1  0.87755674  0.91585486  0.20001282  1
  O  O371  1  0.87902112  0.91605596  0.69348893  1
  O  O372  1  0.04473054  0.16708534  0.19373653  1
  O  O373  1  0.03412442  0.16819470  0.68900303  1
  O  O374  1  0.04056327  0.66753411  0.19282484  1
  O  O375  1  0.04808176  0.67323046  0.69191844  1
  O  O376  1  0.37497314  0.16198635  0.19405781  1
  O  O377  1  0.37230846  0.16996004  0.69319712  1
  O  O378  1  0.38108027  0.66691770  0.19302170  1
  O  O379  1  0.37747536  0.66143677  0.69623176  1
  O  O380  1  0.71178969  0.16272184  0.19118417  1
  O  O381  1  0.71021365  0.16607245  0.69429041  1
  O  O382  1  0.70921857  0.66466785  0.19730518  1
  O  O383  1  0.70921567  0.66595283  0.70082446  1
  O  O384  1  0.12194641  0.08299568  0.29932551  1
  O  O385  1  0.12794017  0.07227126  0.81137750  1
  O  O386  1  0.12004625  0.58375222  0.30379124  1
  O  O387  1  0.12335136  0.58632594  0.79783683  1
  O  O388  1  0.45547377  0.08203391  0.30459753  1
  O  O389  1  0.45355459  0.08657926  0.80663594  1
  O  O390  1  0.45284978  0.58500769  0.30632280  1
  O  O391  1  0.45477893  0.57823084  0.80655435  1
  O  O392  1  0.78888934  0.08308916  0.30353818  1
  O  O393  1  0.78972098  0.08648677  0.80567883  1
  O  O394  1  0.79069601  0.58174507  0.30705520  1
  O  O395  1  0.78913123  0.58018463  0.80024482  1
  O  O396  1  0.28464645  0.33503807  0.30308907  1
  O  O397  1  0.29022099  0.33370679  0.80628924  1
  O  O398  1  0.28856695  0.83415841  0.30470253  1
  O  O399  1  0.29407046  0.83346740  0.80376457  1
  O  O400  1  0.61400977  0.34233706  0.30271865  1
  O  O401  1  0.62173456  0.33178427  0.80758185  1
  O  O402  1  0.62483909  0.83817135  0.30694820  1
  O  O403  1  0.61799373  0.82209988  0.80022052  1
  O  O404  1  0.95885166  0.33457357  0.30250810  1
  O  O405  1  0.95752832  0.33194211  0.80905277  1
  O  O406  1  0.95843170  0.83188398  0.30517814  1
  O  O407  1  0.96234435  0.83682130  0.80473199  1
  O  O408  1  0.12263182  0.41791566  0.30215051  1
  O  O409  1  0.12744397  0.41850930  0.80716521  1
  O  O410  1  0.12442544  0.91351864  0.30701717  1
  O  O411  1  0.12957770  0.91372354  0.80558231  1
  O  O412  1  0.45333160  0.41897137  0.30692867  1
  O  O413  1  0.45517516  0.41387536  0.80714201  1
  O  O414  1  0.45676842  0.91652310  0.30508964  1
  O  O415  1  0.45285168  0.92323545  0.80899430  1
  O  O416  1  0.79234554  0.41759515  0.30610182  1
  O  O417  1  0.78506420  0.40688059  0.81169596  1
  O  O418  1  0.79125798  0.91789629  0.30393408  1
  O  O419  1  0.80123068  0.91729263  0.80527720  1
  O  O420  1  0.29045939  0.16764022  0.30583344  1
  O  O421  1  0.29967183  0.16670241  0.80733944  1
  O  O422  1  0.28542404  0.66515649  0.30423378  1
  O  O423  1  0.29217843  0.66715483  0.80570737  1
  O  O424  1  0.61861571  0.15627484  0.30776389  1
  O  O425  1  0.62170319  0.17002607  0.80509256  1
  O  O426  1  0.62086760  0.66824202  0.30134471  1
  O  O427  1  0.61986299  0.65819400  0.81078340  1
  O  O428  1  0.95872687  0.16741519  0.30559067  1
  O  O429  1  0.95685333  0.16812598  0.80028539  1
  O  O430  1  0.96207123  0.66741764  0.30484434  1
  O  O431  1  0.96035126  0.67162193  0.80901184  1
  F  F432  1  0.04702364  -0.00296885  0.20220943  1
  F  F433  1  0.05278825  -0.00767058  0.69853240  1
  F  F434  1  0.04345727  0.50054757  0.20045915  1
  F  F435  1  0.04563955  0.49954181  0.70071258  1
  F  F436  1  0.37906108  -0.00071230  0.20333314  1
  F  F437  1  0.37760359  0.00272752  0.70221389  1
  F  F438  1  0.37800118  0.50155012  0.20238039  1
  F  F439  1  0.37856904  0.49801308  0.70475247  1
  F  F440  1  0.71027367  -0.00080264  0.20168803  1
  F  F441  1  0.71821747  0.00906662  0.70066412  1
  F  F442  1  0.71137257  0.50194768  0.20488292  1
  F  F443  1  0.70046198  0.49566904  0.69959256  1
  F  F444  1  0.21129977  0.24798757  0.20178907  1
  F  F445  1  0.21537983  0.25973692  0.70036890  1
  F  F446  1  0.20794835  0.75132737  0.19942112  1
  F  F447  1  0.21464496  0.74950118  0.70263765  1
  F  F448  1  0.53013467  0.24796466  0.19848944  1
  F  F449  1  0.54403844  0.25097202  0.70295338  1
  F  F450  1  0.54638595  0.75362518  0.20258225  1
  F  F451  1  0.54549160  0.73834356  0.69728748  1
  F  F452  1  0.88043416  0.25212515  0.19976399  1
  F  F453  1  0.87531876  0.25259787  0.70181602  1
  F  F454  1  0.87938934  0.75195821  0.20079691  1
  F  F455  1  0.88331229  0.75240038  0.70397062  1
  F  F456  1  0.28959337  -0.00145539  0.29970056  1
  F  F457  1  0.29045928  -0.00226163  0.79780468  1
  F  F458  1  0.28586523  0.49818412  0.29628938  1
  F  F459  1  0.28851748  0.49940632  0.79978797  1
  F  F460  1  0.62167168  -0.00119417  0.29691066  1
  F  F461  1  0.61816110  0.01114156  0.80579650  1
  F  F462  1  0.61952493  0.50240887  0.29901297  1
  F  F463  1  0.61866234  0.49527790  0.80057921  1
  F  F464  1  0.95799706  -0.00089418  0.30007092  1
  F  F465  1  0.95567378  -0.00267057  0.79818963  1
  F  F466  1  0.95699809  0.49990275  0.29761165  1
  F  F467  1  0.96946513  0.50082427  0.80531910  1
  F  F468  1  0.12156087  0.25134298  0.29646286  1
  F  F469  1  0.11996151  0.25846692  0.80486875  1
  F  F470  1  0.11991475  0.74920720  0.29669147  1
  F  F471  1  0.12430317  0.75236423  0.79723842  1
  F  F472  1  0.45220352  0.24571932  0.30053721  1
  F  F473  1  0.45364007  0.24991450  0.79830357  1
  F  F474  1  0.45748918  0.75215832  0.29971007  1
  F  F475  1  0.45226598  0.74220135  0.79941716  1
  F  F476  1  0.80205510  0.24974550  0.29971519  1
  F  F477  1  0.78652192  0.24852441  0.79741255  1
  F  F478  1  0.78795851  0.75685497  0.30068026  1
  F  F479  1  0.79056000  0.75197265  0.79825509  1
