# generated using pymatgen
data_K24Na3Li5Mg64Fe17Si79(O5F)48
_symmetry_space_group_name_H-M   'P 1'
_cell_length_a   16.09031710
_cell_length_b   18.58001686
_cell_length_c   20.55086685
_cell_angle_alpha   90.00023080
_cell_angle_beta   100.01766291
_cell_angle_gamma   89.99939225
_symmetry_Int_Tables_number   1
_chemical_formula_structural   K24Na3Li5Mg64Fe17Si79(O5F)48
_chemical_formula_sum   'K24 Na3 Li5 Mg64 Fe17 Si79 O240 F48'
_cell_volume   6050.18539657
_cell_formula_units_Z   1
loop_
 _symmetry_equiv_pos_site_id
 _symmetry_equiv_pos_as_xyz
  1  'x, y, z'
loop_
 _atom_site_type_symbol
 _atom_site_label
 _atom_site_symmetry_multiplicity
 _atom_site_fract_x
 _atom_site_fract_y
 _atom_site_fract_z
 _atom_site_occupancy
  K  K0  1  0.00015607  0.00594408  0.00435188  1
  K  K1  1  0.00442084  -0.00288066  0.49442177  1
  K  K2  1  -0.00041372  0.49514149  0.00338776  1
  K  K3  1  -0.00225212  0.50006667  0.49470695  1
  K  K4  1  0.33257692  0.00843185  0.00792393  1
  K  K5  1  0.33981084  0.00178627  0.49227658  1
  K  K6  1  0.33273410  0.50412597  0.00223680  1
  K  K7  1  0.34475022  0.49944968  0.50108114  1
  K  K8  1  0.66643043  -0.00207635  0.00370233  1
  K  K9  1  0.64990007  0.00652143  0.49703809  1
  K  K10  1  0.67821537  0.50366204  0.00090475  1
  K  K11  1  0.65881537  0.50946854  0.49435536  1
  K  K12  1  0.15859157  0.23945048  0.00560758  1
  K  K13  1  0.16342336  0.24140527  0.49926635  1
  K  K14  1  0.16844296  0.75032257  -0.00098358  1
  K  K15  1  0.16561278  0.75064588  0.49950828  1
  K  K16  1  0.50023436  0.24538882  0.00199646  1
  K  K17  1  0.49425079  0.23896250  0.49360805  1
  K  K18  1  0.50097554  0.75295062  0.00016460  1
  K  K19  1  0.50103855  0.75131990  0.49976535  1
  K  K20  1  0.83969238  0.24522955  0.00351400  1
  K  K21  1  0.83250768  0.24603705  0.49852778  1
  K  K22  1  0.82692063  0.74773120  0.00442002  1
  K  K23  1  0.83231569  0.74855573  0.49400761  1
  Na  Na24  1  0.33221102  0.74916024  0.74063155  1
  Na  Na25  1  0.00247402  0.41899835  0.75528903  1
  Na  Na26  1  -0.00022404  0.41765813  0.24243024  1
  Li  Li27  1  0.17506020  0.00546414  0.25708313  1
  Li  Li28  1  0.49831274  0.50181794  0.74700560  1
  Li  Li29  1  0.83661014  0.16568753  0.25328456  1
  Li  Li30  1  0.33182002  0.08304769  0.25261888  1
  Li  Li31  1  0.16556145  0.16541112  0.75722619  1
  Mg  Mg32  1  0.33294311  0.24622045  0.25341844  1
  Mg  Mg33  1  0.66932255  0.24728297  0.25161182  1
  Mg  Mg34  1  0.00062088  0.24780061  0.24990011  1
  Mg  Mg35  1  0.33115140  0.25096149  0.75070953  1
  Mg  Mg36  1  0.50040935  0.49999025  0.25109266  1
  Mg  Mg37  1  0.66564293  0.75071324  0.74540937  1
  Mg  Mg38  1  0.83389635  0.00172693  0.75281995  1
  Mg  Mg39  1  0.00181968  0.24904671  0.75586136  1
  Mg  Mg40  1  0.33371652  0.74947145  0.25065276  1
  Mg  Mg41  1  0.49546356  0.00070650  0.24733895  1
  Mg  Mg42  1  0.66576956  0.25044252  0.75059396  1
  Mg  Mg43  1  0.16641343  0.50018390  0.75035828  1
  Mg  Mg44  1  0.16647397  0.49943345  0.24630406  1
  Mg  Mg45  1  0.50032937  0.00073580  0.74688962  1
  Mg  Mg46  1  -0.00163916  0.75091420  0.25020989  1
  Mg  Mg47  1  0.83492815  0.49944983  0.24584789  1
  Mg  Mg48  1  0.16737864  0.00458099  0.75318088  1
  Mg  Mg49  1  0.83457090  0.50193380  0.75224214  1
  Mg  Mg50  1  0.83302663  0.00212903  0.25239226  1
  Mg  Mg51  1  0.66792180  0.74848210  0.24849326  1
  Mg  Mg52  1  0.00211997  0.75046460  0.75364398  1
  Mg  Mg53  1  0.66775763  0.08431773  0.25204804  1
  Mg  Mg54  1  0.50058296  0.33711497  0.75147232  1
  Mg  Mg55  1  0.50211983  0.83388307  0.25025011  1
  Mg  Mg56  1  0.00210298  0.08259590  0.25330065  1
  Mg  Mg57  1  0.83491600  0.83461304  0.74996869  1
  Mg  Mg58  1  0.83661733  0.66686407  0.75213668  1
  Mg  Mg59  1  0.16837725  0.66572883  0.74945208  1
  Mg  Mg60  1  0.66837481  0.41468722  0.24856964  1
  Mg  Mg61  1  0.83033584  0.83528003  0.25028149  1
  Mg  Mg62  1  0.66400236  0.91707046  0.74475127  1
  Mg  Mg63  1  -0.00355040  0.58304458  0.24500434  1
  Mg  Mg64  1  0.33103459  0.41517530  0.24854019  1
  Mg  Mg65  1  0.66396499  0.58352504  0.74853655  1
  Mg  Mg66  1  0.00193152  0.58546056  0.75462571  1
  Mg  Mg67  1  0.17028962  0.16039694  0.25305367  1
  Mg  Mg68  1  0.33561548  0.58261322  0.74500688  1
  Mg  Mg69  1  0.66668378  0.58544435  0.24775901  1
  Mg  Mg70  1  0.66530250  0.41850892  0.75151278  1
  Mg  Mg71  1  0.16908128  0.83447371  0.75043626  1
  Mg  Mg72  1  0.33177430  0.91941132  0.25151221  1
  Mg  Mg73  1  0.83503235  0.16669490  0.75408614  1
  Mg  Mg74  1  0.49612127  0.16418215  0.25085138  1
  Mg  Mg75  1  0.33110440  0.08753040  0.75159182  1
  Mg  Mg76  1  0.49708254  0.83448272  0.74185533  1
  Mg  Mg77  1  0.83028360  0.66419975  0.24487051  1
  Mg  Mg78  1  0.16593312  0.33324680  0.24807417  1
  Mg  Mg79  1  0.49845156  0.33228874  0.24970200  1
  Mg  Mg80  1  0.33602357  0.58376205  0.25019056  1
  Mg  Mg81  1  0.16521576  0.66574289  0.24832089  1
  Mg  Mg82  1  0.00368118  0.91805968  0.75431146  1
  Mg  Mg83  1  0.66380790  0.08607590  0.75071638  1
  Mg  Mg84  1  0.00196282  0.91835822  0.25350320  1
  Mg  Mg85  1  0.49706411  0.66480832  0.74351576  1
  Mg  Mg86  1  0.50022612  0.16629683  0.74964633  1
  Mg  Mg87  1  0.16626725  0.33135147  0.75185815  1
  Mg  Mg88  1  0.66849415  0.91552191  0.24990568  1
  Mg  Mg89  1  0.50283538  0.66438892  0.24990745  1
  Mg  Mg90  1  0.83587464  0.32985964  0.24796519  1
  Mg  Mg91  1  0.00346492  0.08726846  0.75505360  1
  Mg  Mg92  1  0.33337399  0.91700761  0.74620332  1
  Mg  Mg93  1  0.83611367  0.33528863  0.75290892  1
  Mg  Mg94  1  0.33497062  0.41817941  0.75053412  1
  Mg  Mg95  1  0.16659652  0.83554501  0.25298027  1
  Fe  Fe96  1  0.52171647  0.91350668  0.60367262  1
  Fe  Fe97  1  0.47265467  0.08158092  0.38863511  1
  Fe  Fe98  1  0.35184810  0.16839003  0.11150161  1
  Fe  Fe99  1  0.86421109  0.57713812  0.10349295  1
  Fe  Fe100  1  0.13714696  0.08023875  0.39352395  1
  Fe  Fe101  1  0.63544797  0.16628885  0.89127497  1
  Fe  Fe102  1  0.35438446  0.66150248  0.60252933  1
  Fe  Fe103  1  0.47392145  0.58362633  0.39122376  1
  Fe  Fe104  1  0.64573457  0.67095151  0.39077962  1
  Fe  Fe105  1  0.52231428  0.08981784  0.60790186  1
  Fe  Fe106  1  0.14438943  0.08489147  0.89413650  1
  Fe  Fe107  1  0.68801589  0.83536325  0.10695949  1
  Fe  Fe108  1  0.18795045  0.42354409  0.10724308  1
  Fe  Fe109  1  0.97819068  0.66608420  0.89289429  1
  Fe  Fe110  1  0.68703286  0.66233019  0.10275333  1
  Fe  Fe111  1  0.80954827  0.92383441  0.39206816  1
  Fe  Fe112  1  0.96967037  0.16894833  0.89580982  1
  Si  Si113  1  0.63463064  0.66889856  0.88052390  1
  Si  Si114  1  0.98041684  0.83686624  0.88874486  1
  Si  Si115  1  0.52061345  0.92216153  0.11234933  1
  Si  Si116  1  0.52129029  0.57421187  0.11016805  1
  Si  Si117  1  0.47301697  0.90942626  0.38534328  1
  Si  Si118  1  0.69883326  0.83053654  0.61036876  1
  Si  Si119  1  0.30307173  0.17109922  0.39306191  1
  Si  Si120  1  0.52510568  0.08727015  0.11330806  1
  Si  Si121  1  0.64445739  0.33767960  0.88908051  1
  Si  Si122  1  0.14472478  0.41867263  0.38468262  1
  Si  Si123  1  0.14738606  0.57906793  0.88974203  1
  Si  Si124  1  0.13679819  0.58308207  0.38264383  1
  Si  Si125  1  0.35984949  0.83290545  0.11487747  1
  Si  Si126  1  0.02386640  0.16599097  0.61672984  1
  Si  Si127  1  0.02299101  0.32813017  0.61623250  1
  Si  Si128  1  0.30118238  0.66344986  0.38567277  1
  Si  Si129  1  0.97838668  0.33317495  0.38442963  1
  Si  Si130  1  0.69825110  0.66339136  0.61393303  1
  Si  Si131  1  0.97425221  0.82756718  0.38899867  1
  Si  Si132  1  0.19018874  0.07529381  0.11627236  1
  Si  Si133  1  0.47295855  0.58508212  0.88226491  1
  Si  Si134  1  0.46540905  0.08107770  0.88780463  1
  Si  Si135  1  0.14144890  0.90863692  0.39014895  1
  Si  Si136  1  0.81044539  0.08993417  0.38793606  1
  Si  Si137  1  0.70068833  0.17015448  0.61341059  1
  Si  Si138  1  0.47191544  0.91471014  0.88278613  1
  Si  Si139  1  0.02574100  0.32414141  0.11102072  1
  Si  Si140  1  0.52657404  0.41346480  0.61509824  1
  Si  Si141  1  0.14877123  0.91616892  0.88843471  1
  Si  Si142  1  0.68864152  0.32847649  0.11364742  1
  Si  Si143  1  0.81231728  0.41424506  0.38357728  1
  Si  Si144  1  0.47984079  0.41227801  0.38753299  1
  Si  Si145  1  0.69496597  0.33620108  0.61509555  1
  Si  Si146  1  0.02735322  0.66930832  0.61603288  1
  Si  Si147  1  0.80933436  0.42241456  0.88614854  1
  Si  Si148  1  0.35237793  0.17463463  0.61373392  1
  Si  Si149  1  0.64634480  0.33220259  0.38446950  1
  Si  Si150  1  0.15054814  0.41452451  0.88629477  1
  Si  Si151  1  0.35053769  0.83509748  0.60625564  1
  Si  Si152  1  0.86239975  0.08132526  0.61650624  1
  Si  Si153  1  0.35366687  0.33958975  0.61562577  1
  Si  Si154  1  0.31544875  0.33456320  0.88702994  1
  Si  Si155  1  0.30710518  0.82817130  0.38553354  1
  Si  Si156  1  0.19155041  0.92242200  0.61431696  1
  Si  Si157  1  0.19207231  0.59396602  0.11250547  1
  Si  Si158  1  0.30937919  0.33557466  0.38744295  1
  Si  Si159  1  0.80930739  0.91383275  0.88413173  1
  Si  Si160  1  0.64046972  0.83426362  0.88093398  1
  Si  Si161  1  0.85928629  0.41847690  0.61597692  1
  Si  Si162  1  0.64203914  0.83846416  0.38740937  1
  Si  Si163  1  0.86264157  0.91949383  0.11391883  1
  Si  Si164  1  0.86433796  0.58323995  0.61510693  1
  Si  Si165  1  0.53116942  0.58117626  0.61037985  1
  Si  Si166  1  0.02531433  0.83580218  0.11688297  1
  Si  Si167  1  0.85909003  0.08439556  0.11906980  1
  Si  Si168  1  0.02634462  0.16046873  0.11650924  1
  Si  Si169  1  0.69158321  0.16335471  0.11729229  1
  Si  Si170  1  0.30836370  0.17177071  0.88683408  1
  Si  Si171  1  0.47678051  0.42080933  0.88533245  1
  Si  Si172  1  0.02966029  0.83541042  0.61716728  1
  Si  Si173  1  0.18550968  0.57828434  0.61078904  1
  Si  Si174  1  0.19086590  0.08676843  0.61731502  1
  Si  Si175  1  0.80109083  0.58819729  0.88548474  1
  Si  Si176  1  0.30765609  0.66319194  0.88300145  1
  Si  Si177  1  0.36245721  0.66727999  0.11364651  1
  Si  Si178  1  0.86357589  0.91599745  0.61643584  1
  Si  Si179  1  0.80913124  0.57829473  0.38610529  1
  Si  Si180  1  0.02882564  0.67235340  0.11336397  1
  Si  Si181  1  0.30767687  0.82991831  0.88265294  1
  Si  Si182  1  0.97227429  0.66245364  0.38289399  1
  Si  Si183  1  0.18459930  0.41501001  0.61532914  1
  Si  Si184  1  0.85410719  0.40532373  0.10928235  1
  Si  Si185  1  0.52382500  0.41017561  0.11532354  1
  Si  Si186  1  0.64374432  0.16790918  0.38795646  1
  Si  Si187  1  0.80011998  0.07878172  0.88939092  1
  Si  Si188  1  0.35582926  0.33656742  0.11236768  1
  Si  Si189  1  0.97700343  0.33851471  0.89054099  1
  Si  Si190  1  0.97302290  0.17078614  0.38846277  1
  Si  Si191  1  0.19311675  0.90994197  0.11717017  1
  O  O192  1  0.26075140  0.10767002  0.07677062  1
  O  O193  1  0.26679441  0.12618215  0.58644318  1
  O  O194  1  0.27494677  0.62528240  0.08309871  1
  O  O195  1  0.26005615  0.60022425  0.57181988  1
  O  O196  1  0.61283453  0.11054022  0.08557516  1
  O  O197  1  0.61565379  0.13270336  0.57707243  1
  O  O198  1  0.59557070  0.59771428  0.07193491  1
  O  O199  1  0.61608833  0.61445444  0.58436036  1
  O  O200  1  0.93575529  0.12108078  0.08714370  1
  O  O201  1  0.94215573  0.11492713  0.58585831  1
  O  O202  1  0.96244636  0.61523746  0.07607302  1
  O  O203  1  0.93936021  0.62615345  0.58570644  1
  O  O204  1  0.09261119  0.36636331  0.07394589  1
  O  O205  1  0.10297950  0.36315595  0.58532516  1
  O  O206  1  0.10923497  0.86100156  0.08707386  1
  O  O207  1  0.10705514  0.87262099  0.58656966  1
  O  O208  1  0.44801696  0.35416542  0.08781502  1
  O  O209  1  0.43443837  0.37430893  0.58585925  1
  O  O210  1  0.43399712  0.87440951  0.08412791  1
  O  O211  1  0.42780342  0.85593855  0.56863286  1
  O  O212  1  0.76707325  0.35806707  0.08030473  1
  O  O213  1  0.76705948  0.38268201  0.58396692  1
  O  O214  1  0.78519781  0.87190953  0.07613892  1
  O  O215  1  0.78459820  0.86359303  0.58624054  1
  O  O216  1  0.29165936  0.40075165  0.08169934  1
  O  O217  1  0.26945651  0.38894635  0.58628142  1
  O  O218  1  0.26992879  0.87244739  0.08413503  1
  O  O219  1  0.26970156  0.89194826  0.58163945  1
  O  O220  1  0.60645976  0.38010755  0.08548230  1
  O  O221  1  0.60131595  0.36995046  0.58446948  1
  O  O222  1  0.59482064  0.89617869  0.07430727  1
  O  O223  1  0.61837524  0.87399657  0.57375850  1
  O  O224  1  0.93023846  0.35772021  0.08571855  1
  O  O225  1  0.93587983  0.37498406  0.58807347  1
  O  O226  1  0.94931241  0.89150892  0.08726633  1
  O  O227  1  0.94518211  0.88279104  0.58785231  1
  O  O228  1  0.09860454  0.11543957  0.08696990  1
  O  O229  1  0.10520387  0.13329937  0.58810226  1
  O  O230  1  0.12141939  0.65806692  0.09107543  1
  O  O231  1  0.10167488  0.62999236  0.58374202  1
  O  O232  1  0.45127553  0.14047403  0.07875732  1
  O  O233  1  0.42888230  0.15049071  0.57825512  1
  O  O234  1  0.43670846  0.62503984  0.08335256  1
  O  O235  1  0.45042679  0.62383232  0.57108334  1
  O  O236  1  0.77435939  0.13236818  0.08889851  1
  O  O237  1  0.78100322  0.13123228  0.58604126  1
  O  O238  1  0.77475093  0.63093202  0.06174015  1
  O  O239  1  0.77651615  0.62482778  0.58458729  1
  O  O240  1  0.04322167  0.11732044  0.42862673  1
  O  O241  1  0.05401723  0.10788061  0.93472631  1
  O  O242  1  0.05448394  0.61194509  0.41249410  1
  O  O243  1  0.07067550  0.60541911  0.92509853  1
  O  O244  1  0.38597796  0.12490095  0.42489766  1
  O  O245  1  0.38056423  0.11025306  0.91460009  1
  O  O246  1  0.37114445  0.60720939  0.41940894  1
  O  O247  1  0.39364980  0.61807012  0.91428893  1
  O  O248  1  0.72718546  0.11919886  0.41769451  1
  O  O249  1  0.71428029  0.09347382  0.91859474  1
  O  O250  1  0.73634242  0.60680736  0.42412877  1
  O  O251  1  0.71438100  0.61713250  0.90989960  1
  O  O252  1  0.23216010  0.37610595  0.41785357  1
  O  O253  1  0.23252837  0.36327211  0.91717985  1
  O  O254  1  0.22596047  0.85764754  0.41595210  1
  O  O255  1  0.22534164  0.85646390  0.91447327  1
  O  O256  1  0.56337303  0.36009989  0.41401726  1
  O  O257  1  0.56435508  0.37783721  0.91599211  1
  O  O258  1  0.54948665  0.85180963  0.41111621  1
  O  O259  1  0.56154451  0.87172057  0.91023382  1
  O  O260  1  0.89762307  0.36788019  0.41494313  1
  O  O261  1  0.89946273  0.38434118  0.91691898  1
  O  O262  1  0.89969602  0.85887330  0.42454252  1
  O  O263  1  0.89415295  0.86699067  0.91387096  1
  O  O264  1  0.06290800  0.38334180  0.41284784  1
  O  O265  1  0.06429388  0.38796266  0.91196490  1
  O  O266  1  0.06405313  0.86759669  0.41998816  1
  O  O267  1  0.06082238  0.89138887  0.91455076  1
  O  O268  1  0.39806507  0.37833219  0.41633493  1
  O  O269  1  0.39678373  0.38695734  0.91656383  1
  O  O270  1  0.39029473  0.87619840  0.41376968  1
  O  O271  1  0.39582040  0.87346624  0.91342303  1
  O  O272  1  0.73032351  0.38221171  0.41336918  1
  O  O273  1  0.72985149  0.38686073  0.91528353  1
  O  O274  1  0.70520081  0.90357090  0.41759888  1
  O  O275  1  0.72782957  0.87813837  0.91170744  1
  O  O276  1  0.22504445  0.14356083  0.42756132  1
  O  O277  1  0.22789267  0.15575831  0.92106180  1
  O  O278  1  0.21231398  0.63980911  0.41086676  1
  O  O279  1  0.23149671  0.62947665  0.91791959  1
  O  O280  1  0.56699184  0.14122282  0.42236880  1
  O  O281  1  0.54173956  0.13052882  0.92474967  1
  O  O282  1  0.55688628  0.64453379  0.43224456  1
  O  O283  1  0.55425303  0.63693708  0.91093638  1
  O  O284  1  0.88128935  0.15372418  0.41120234  1
  O  O285  1  0.87153021  0.13409566  0.92443513  1
  O  O286  1  0.89539002  0.62590691  0.41418249  1
  O  O287  1  0.87736733  0.63854289  0.92031248  1
  O  O288  1  0.17512782  -0.00900173  0.08797329  1
  O  O289  1  0.17266166  0.00486476  0.58617089  1
  O  O290  1  0.16328620  0.51917473  0.07592418  1
  O  O291  1  0.15568014  0.49523676  0.58622591  1
  O  O292  1  0.49806335  0.00521348  0.08657361  1
  O  O293  1  0.49909004  0.00295956  0.56621580  1
  O  O294  1  0.49542352  0.49031683  0.08564329  1
  O  O295  1  0.52406359  0.49543714  0.58484531  1
  O  O296  1  0.84644520  0.00326805  0.08650297  1
  O  O297  1  0.84746622  -0.00159141  0.58785753  1
  O  O298  1  0.84788151  0.48118144  0.07037419  1
  O  O299  1  0.86089196  0.50078010  0.58500557  1
  O  O300  1  0.01972037  0.24045624  0.08248704  1
  O  O301  1  0.00596657  0.24720105  0.58313568  1
  O  O302  1  0.00044702  0.75492102  0.08755280  1
  O  O303  1  0.01671026  0.75269206  0.58735063  1
  O  O304  1  0.32196293  0.26136484  0.07817079  1
  O  O305  1  0.32926428  0.25855022  0.58743118  1
  O  O306  1  0.35548143  0.75011435  0.08381253  1
  O  O307  1  0.31512979  0.75592993  0.58086750  1
  O  O308  1  0.66947671  0.24538037  0.08666781  1
  O  O309  1  0.70169657  0.25461390  0.58639123  1
  O  O310  1  0.65510336  0.75030004  0.06385627  1
  O  O311  1  0.69178118  0.74552356  0.58457958  1
  O  O312  1  0.15726472  -0.01480639  0.42723201  1
  O  O313  1  0.18230487  -0.00947602  0.92298014  1
  O  O314  1  0.15578355  0.50192339  0.41440774  1
  O  O315  1  0.17405943  0.49623586  0.91537704  1
  O  O316  1  0.49455942  -0.01350786  0.41979485  1
  O  O317  1  0.47970415  -0.00386344  0.91396236  1
  O  O318  1  0.50134725  0.48866570  0.42331127  1
  O  O319  1  0.49002587  0.50377748  0.91396626  1
  O  O320  1  0.84382961  0.01607023  0.42593606  1
  O  O321  1  0.82804665  -0.00526334  0.91340678  1
  O  O322  1  0.83234560  0.49514524  0.41407251  1
  O  O323  1  0.81562667  0.50529483  0.91359872  1
  O  O324  1  0.32067620  0.25609367  0.42097039  1
  O  O325  1  0.34335710  0.25340088  0.91351120  1
  O  O326  1  0.32358214  0.74560417  0.41415183  1
  O  O327  1  0.32441666  0.74658520  0.90970291  1
  O  O328  1  0.66973699  0.25159299  0.41403707  1
  O  O329  1  0.66042755  0.26056096  0.92513210  1
  O  O330  1  0.68163992  0.76368976  0.42025457  1
  O  O331  1  0.65146943  0.75134730  0.90935253  1
  O  O332  1  0.99678172  0.25375769  0.41861830  1
  O  O333  1  0.98949533  0.26398724  0.93092834  1
  O  O334  1  0.99008417  0.74270156  0.41520494  1
  O  O335  1  1.00566172  0.76047088  0.92386296  1
  O  O336  1  0.21075802  0.08248094  0.19522019  1
  O  O337  1  0.21214182  0.08263191  0.69655820  1
  O  O338  1  0.21322290  0.58701710  0.19345362  1
  O  O339  1  0.20711855  0.58227815  0.69159573  1
  O  O340  1  0.54502803  0.08596318  0.19389102  1
  O  O341  1  0.54335369  0.08438130  0.70017425  1
  O  O342  1  0.54219699  0.57850743  0.19071224  1
  O  O343  1  0.54772126  0.58525071  0.69046472  1
  O  O344  1  0.87838467  0.08170594  0.19849372  1
  O  O345  1  0.87745224  0.08166473  0.69679455  1
  O  O346  1  0.87646597  0.58220654  0.19598426  1
  O  O347  1  0.87838924  0.58347159  0.69506010  1
  O  O348  1  0.04876095  0.32377575  0.19073123  1
  O  O349  1  0.04497130  0.32664090  0.69518205  1
  O  O350  1  0.04325416  0.83420525  0.19739995  1
  O  O351  1  0.04442901  0.83499107  0.69754822  1
  O  O352  1  0.37592016  0.33475232  0.19429600  1
  O  O353  1  0.37581414  0.33735247  0.69573414  1
  O  O354  1  0.37676465  0.83070056  0.19492224  1
  O  O355  1  0.37739047  0.84381978  0.68643544  1
  O  O356  1  0.70779500  0.33108258  0.19392626  1
  O  O357  1  0.71083746  0.33664559  0.69561633  1
  O  O358  1  0.70969263  0.83214539  0.19912463  1
  O  O359  1  0.71319767  0.83283170  0.69166954  1
  O  O360  1  0.21047054  0.41702596  0.19891252  1
  O  O361  1  0.20679673  0.41559747  0.69532385  1
  O  O362  1  0.21346463  0.90788657  0.19637633  1
  O  O363  1  0.20851020  0.91919561  0.69474664  1
  O  O364  1  0.54437348  0.41374632  0.19592314  1
  O  O365  1  0.54645193  0.41273505  0.69475776  1
  O  O366  1  0.54205546  0.91642660  0.19298528  1
  O  O367  1  0.54466366  0.91736655  0.69668037  1
  O  O368  1  0.86325399  0.41316063  0.18883502  1
  O  O369  1  0.86925513  0.41903719  0.69510787  1
  O  O370  1  0.87842451  0.91646965  0.19464111  1
  O  O371  1  0.87983673  0.91659294  0.69703343  1
  O  O372  1  0.04341168  0.16433147  0.19633008  1
  O  O373  1  0.03734289  0.16814486  0.69574362  1
  O  O374  1  0.04246119  0.66985664  0.19449152  1
  O  O375  1  0.04446120  0.66816096  0.69609889  1
  O  O376  1  0.37757744  0.17055161  0.20155625  1
  O  O377  1  0.37427153  0.17068075  0.69465391  1
  O  O378  1  0.37740396  0.66777216  0.19384819  1
  O  O379  1  0.38149656  0.65645022  0.69234460  1
  O  O380  1  0.70620590  0.16604075  0.19673308  1
  O  O381  1  0.71482306  0.16869103  0.69429643  1
  O  O382  1  0.71095660  0.66475062  0.19583904  1
  O  O383  1  0.71438282  0.66570693  0.69445561  1
  O  O384  1  0.12044888  0.08349530  0.30347667  1
  O  O385  1  0.12085962  0.08113817  0.80293953  1
  O  O386  1  0.12139605  0.58279312  0.30239694  1
  O  O387  1  0.12614172  0.58303343  0.80857347  1
  O  O388  1  0.45805858  0.08085837  0.29886971  1
  O  O389  1  0.45365466  0.08342346  0.80692747  1
  O  O390  1  0.45634446  0.58302883  0.29853506  1
  O  O391  1  0.45539759  0.58468935  0.80297601  1
  O  O392  1  0.78758760  0.08171388  0.30815692  1
  O  O393  1  0.78785262  0.08219794  0.80743374  1
  O  O394  1  0.78932115  0.57973695  0.30573938  1
  O  O395  1  0.78745767  0.58656893  0.80437093  1
  O  O396  1  0.29167274  0.33460833  0.30719830  1
  O  O397  1  0.29451693  0.33614511  0.80652887  1
  O  O398  1  0.28959114  0.82963524  0.30517043  1
  O  O399  1  0.28776843  0.83880245  0.80359112  1
  O  O400  1  0.62588292  0.33396982  0.30426705  1
  O  O401  1  0.62515108  0.33590191  0.80784043  1
  O  O402  1  0.62313121  0.83449857  0.30571114  1
  O  O403  1  0.62556996  0.83378281  0.80080836  1
  O  O404  1  0.95549816  0.32877355  0.30553534  1
  O  O405  1  0.95254662  0.32886487  0.81103214  1
  O  O406  1  0.95648804  0.83137998  0.30802375  1
  O  O407  1  0.95965189  0.83489998  0.80724853  1
  O  O408  1  0.13182353  0.41795779  0.30572194  1
  O  O409  1  0.13749268  0.41654818  0.80686065  1
  O  O410  1  0.12043179  0.90938364  0.31012276  1
  O  O411  1  0.12700960  0.91598329  0.80707200  1
  O  O412  1  0.45904851  0.41468626  0.30650693  1
  O  O413  1  0.45619783  0.41606618  0.80576099  1
  O  O414  1  0.45537945  0.91257023  0.30436124  1
  O  O415  1  0.45418955  0.91561370  0.80264858  1
  O  O416  1  0.79216734  0.41455429  0.30345836  1
  O  O417  1  0.79059913  0.41880808  0.80552827  1
  O  O418  1  0.79069072  0.91851652  0.30066508  1
  O  O419  1  0.79033737  0.91474655  0.80329704  1
  O  O420  1  0.28553969  0.17286932  0.31282381  1
  O  O421  1  0.29445754  0.17054290  0.80653387  1
  O  O422  1  0.28773659  0.66542615  0.30455083  1
  O  O423  1  0.28548235  0.65817996  0.80388015  1
  O  O424  1  0.62428443  0.16722526  0.30713645  1
  O  O425  1  0.62155554  0.17016371  0.79960753  1
  O  O426  1  0.62173603  0.66552585  0.29848168  1
  O  O427  1  0.62114541  0.66822977  0.80014209  1
  O  O428  1  0.96372249  0.16804643  0.30879062  1
  O  O429  1  0.95351368  0.16679411  0.80308544  1
  O  O430  1  0.95603651  0.66620232  0.30296989  1
  O  O431  1  0.95668016  0.66903028  0.80067099  1
  F  F432  1  0.03698434  -0.00199163  0.20210357  1
  F  F433  1  0.04396083  -0.00171437  0.70258462  1
  F  F434  1  0.05081230  0.51050335  0.19492806  1
  F  F435  1  0.04851077  0.51061427  0.70133854  1
  F  F436  1  0.38004693  -0.01116795  0.19531701  1
  F  F437  1  0.37725133  0.00419608  0.70213567  1
  F  F438  1  0.37887539  0.49807225  0.20192511  1
  F  F439  1  0.37369237  0.49633301  0.69825327  1
  F  F440  1  0.71170646  0.00253957  0.20095926  1
  F  F441  1  0.71443516  0.00149378  0.70224602  1
  F  F442  1  0.71081387  0.49792867  0.20140378  1
  F  F443  1  0.71359318  0.50083594  0.70162987  1
  F  F444  1  0.21307591  0.24842323  0.20474938  1
  F  F445  1  0.21487109  0.25649979  0.70114215  1
  F  F446  1  0.21197445  0.74976804  0.20324060  1
  F  F447  1  0.19505158  0.75058791  0.69739619  1
  F  F448  1  0.54684654  0.24997339  0.20485183  1
  F  F449  1  0.54463664  0.25503885  0.70086378  1
  F  F450  1  0.54225913  0.75074608  0.20004615  1
  F  F451  1  0.54813199  0.75043756  0.69488682  1
  F  F452  1  0.88099770  0.25045935  0.20050793  1
  F  F453  1  0.87729699  0.25289076  0.70283135  1
  F  F454  1  0.87926904  0.75155922  0.20193673  1
  F  F455  1  0.88028485  0.75253772  0.70136469  1
  F  F456  1  0.29240080  -0.00506676  0.30291938  1
  F  F457  1  0.29017882  -0.00024010  0.79750947  1
  F  F458  1  0.28877138  0.50200413  0.29745748  1
  F  F459  1  0.28885063  0.50110382  0.79615321  1
  F  F460  1  0.61887935  -0.00042020  0.29438830  1
  F  F461  1  0.62316314  -0.00189799  0.79844611  1
  F  F462  1  0.62286168  0.49789018  0.29666026  1
  F  F463  1  0.62563673  0.50145866  0.79824089  1
  F  F464  1  0.95406529  -0.00124630  0.30205644  1
  F  F465  1  0.95412462  -0.00092401  0.79983957  1
  F  F466  1  0.95209713  0.50611432  0.29982659  1
  F  F467  1  0.94928104  0.51100030  0.80429505  1
  F  F468  1  0.12175155  0.25172983  0.29868317  1
  F  F469  1  0.12096723  0.25507594  0.80250575  1
  F  F470  1  0.12054946  0.74809792  0.29810329  1
  F  F471  1  0.12346882  0.75002273  0.80044953  1
  F  F472  1  0.45682070  0.25320055  0.30145979  1
  F  F473  1  0.45515281  0.25236182  0.79642058  1
  F  F474  1  0.45424159  0.74886312  0.29675975  1
  F  F475  1  0.46770216  0.75183153  0.79478448  1
  F  F476  1  0.78597693  0.25575596  0.29983989  1
  F  F477  1  0.78632145  0.25237197  0.79816772  1
  F  F478  1  0.79202141  0.74707380  0.29844805  1
  F  F479  1  0.78724295  0.75152262  0.79610264  1
