# generated using pymatgen
data_K24Na3Li5Mg64Fe17Si79(O5F)48
_symmetry_space_group_name_H-M   'P 1'
_cell_length_a   16.08331156
_cell_length_b   18.57084002
_cell_length_c   20.53987468
_cell_angle_alpha   90.00245574
_cell_angle_beta   100.00800970
_cell_angle_gamma   89.99943866
_symmetry_Int_Tables_number   1
_chemical_formula_structural   K24Na3Li5Mg64Fe17Si79(O5F)48
_chemical_formula_sum   'K24 Na3 Li5 Mg64 Fe17 Si79 O240 F48'
_cell_volume   6041.51088220
_cell_formula_units_Z   1
loop_
 _symmetry_equiv_pos_site_id
 _symmetry_equiv_pos_as_xyz
  1  'x, y, z'
loop_
 _atom_site_type_symbol
 _atom_site_label
 _atom_site_symmetry_multiplicity
 _atom_site_fract_x
 _atom_site_fract_y
 _atom_site_fract_z
 _atom_site_occupancy
  K  K0  1  0.00282621  0.00770399  -0.00898871  1
  K  K1  1  -0.00288525  0.00172515  0.50618203  1
  K  K2  1  0.01099882  0.49241245  -0.00495501  1
  K  K3  1  0.00090511  0.48933908  0.50624934  1
  K  K4  1  0.32842883  0.00094452  -0.00131688  1
  K  K5  1  0.33191016  -0.00224095  0.50017378  1
  K  K6  1  0.32445048  0.50678138  -0.00048734  1
  K  K7  1  0.32734257  0.50043309  0.49825720  1
  K  K8  1  0.66339456  0.00266937  -0.00009728  1
  K  K9  1  0.66975610  -0.00125354  0.50018711  1
  K  K10  1  0.65155854  0.49730523  -0.00323656  1
  K  K11  1  0.66795121  0.50006019  0.49956722  1
  K  K12  1  0.16663562  0.25398316  -0.00187638  1
  K  K13  1  0.16842191  0.25396672  0.50373981  1
  K  K14  1  0.18110763  0.75244324  -0.00269336  1
  K  K15  1  0.16225967  0.74972748  0.50333985  1
  K  K16  1  0.50483194  0.24771033  -0.00007135  1
  K  K17  1  0.49414974  0.24872093  0.49903785  1
  K  K18  1  0.49185015  0.74740304  -0.00092727  1
  K  K19  1  0.49533552  0.75032334  0.49702896  1
  K  K20  1  0.83719341  0.25470305  -0.00451490  1
  K  K21  1  0.83430601  0.25082801  0.50448360  1
  K  K22  1  0.82951204  0.74603045  -0.00454225  1
  K  K23  1  0.83604597  0.75130004  0.50605382  1
  Na  Na24  1  0.50161315  0.49856101  0.75480487  1
  Na  Na25  1  -0.00078139  0.08176507  0.74904071  1
  Na  Na26  1  0.66562996  0.91777484  0.74475187  1
  Li  Li27  1  0.32636492  0.74692309  0.24672971  1
  Li  Li28  1  0.17045296  0.50575382  0.24483088  1
  Li  Li29  1  0.66546176  0.91691015  0.25277019  1
  Li  Li30  1  0.83211474  0.33183117  0.74941213  1
  Li  Li31  1  0.17351369  0.66457664  0.24664085  1
  Mg  Mg32  1  0.16415984  0.49869256  0.75003808  1
  Mg  Mg33  1  0.33305063  0.24945747  0.25066831  1
  Mg  Mg34  1  0.50137150  0.00105515  0.75265886  1
  Mg  Mg35  1  0.83585966  0.49944426  0.25176315  1
  Mg  Mg36  1  0.33264808  0.75018057  0.75178917  1
  Mg  Mg37  1  0.16710120  -0.00030458  0.25232040  1
  Mg  Mg38  1  0.49991369  0.50294130  0.24622100  1
  Mg  Mg39  1  0.83310387  0.49678597  0.74484941  1
  Mg  Mg40  1  0.00120253  0.25046480  0.25162377  1
  Mg  Mg41  1  -0.00454643  0.24989005  0.74811559  1
  Mg  Mg42  1  0.83182314  -0.00110762  0.74789213  1
  Mg  Mg43  1  0.00334388  0.74904808  0.25092549  1
  Mg  Mg44  1  0.33285164  0.25080345  0.75472778  1
  Mg  Mg45  1  0.66667829  0.25184011  0.75359869  1
  Mg  Mg46  1  0.66667825  0.24995486  0.25584880  1
  Mg  Mg47  1  0.50169485  -0.00143551  0.25289722  1
  Mg  Mg48  1  0.66715845  0.74948611  0.74469463  1
  Mg  Mg49  1  0.66667314  0.75098025  0.24778664  1
  Mg  Mg50  1  0.82883439  -0.00057520  0.25426942  1
  Mg  Mg51  1  0.00156957  0.74897986  0.74402041  1
  Mg  Mg52  1  0.16647093  -0.00012854  0.75143196  1
  Mg  Mg53  1  0.33345948  0.41677590  0.75318233  1
  Mg  Mg54  1  0.83166822  0.66509276  0.74152035  1
  Mg  Mg55  1  0.16925139  0.16625278  0.25200638  1
  Mg  Mg56  1  0.16802809  0.66550510  0.74951386  1
  Mg  Mg57  1  0.33427238  0.58412586  0.75246688  1
  Mg  Mg58  1  0.66904534  0.41708397  0.25132033  1
  Mg  Mg59  1  0.33375168  0.08487681  0.75451577  1
  Mg  Mg60  1  0.32750417  0.58753238  0.24591058  1
  Mg  Mg61  1  0.66677338  0.58209838  0.74566280  1
  Mg  Mg62  1  0.66684037  0.08506937  0.75265362  1
  Mg  Mg63  1  -0.00040148  0.91501825  0.74621693  1
  Mg  Mg64  1  0.49836473  0.16429087  0.25396546  1
  Mg  Mg65  1  0.16812127  0.83417643  0.75015122  1
  Mg  Mg66  1  0.50017672  0.83267648  0.25134951  1
  Mg  Mg67  1  0.66624686  0.58466058  0.24714260  1
  Mg  Mg68  1  0.32978010  0.42040123  0.24793891  1
  Mg  Mg69  1  0.49640453  0.66741416  0.24581792  1
  Mg  Mg70  1  0.16881886  0.82882863  0.25134289  1
  Mg  Mg71  1  0.00469931  0.41804409  0.24907100  1
  Mg  Mg72  1  0.16845854  0.33827733  0.24954896  1
  Mg  Mg73  1  0.83133236  0.83466248  0.25185113  1
  Mg  Mg74  1  0.66696342  0.08130934  0.25471435  1
  Mg  Mg75  1  -0.00226324  0.58221330  0.74494773  1
  Mg  Mg76  1  0.16585209  0.16670666  0.75053215  1
  Mg  Mg77  1  0.50284425  0.16685689  0.75504575  1
  Mg  Mg78  1  0.66864750  0.41454159  0.75222193  1
  Mg  Mg79  1  -0.00023740  0.91544148  0.25157585  1
  Mg  Mg80  1  0.50073628  0.66518211  0.75044621  1
  Mg  Mg81  1  0.83184894  0.83293771  0.74338371  1
  Mg  Mg82  1  -0.00011682  0.08349198  0.25407099  1
  Mg  Mg83  1  0.83114123  0.16808953  0.75048962  1
  Mg  Mg84  1  0.00779543  0.58365181  0.24812858  1
  Mg  Mg85  1  0.33587960  0.08535775  0.25282335  1
  Mg  Mg86  1  -0.00366436  0.41189084  0.74700120  1
  Mg  Mg87  1  0.50254652  0.83437382  0.74935052  1
  Mg  Mg88  1  0.83574055  0.33495850  0.25395670  1
  Mg  Mg89  1  0.83576359  0.66549362  0.24876140  1
  Mg  Mg90  1  0.16330515  0.33374802  0.75021218  1
  Mg  Mg91  1  0.83290924  0.16508812  0.25507062  1
  Mg  Mg92  1  0.50304090  0.33421895  0.75391498  1
  Mg  Mg93  1  0.33531495  0.91470358  0.75122070  1
  Mg  Mg94  1  0.33446359  0.91388317  0.25365612  1
  Mg  Mg95  1  0.49812011  0.33525663  0.24838496  1
  Fe  Fe96  1  0.31250291  0.16429200  0.89203192  1
  Fe  Fe97  1  0.13922243  0.41260266  0.88872099  1
  Fe  Fe98  1  0.30276495  0.16865475  0.39454446  1
  Fe  Fe99  1  0.35719257  0.16438728  0.10994768  1
  Fe  Fe100  1  0.30911291  0.66775645  0.89122884  1
  Fe  Fe101  1  0.02484421  0.33000789  0.60655481  1
  Fe  Fe102  1  0.19254675  0.42384112  0.10991461  1
  Fe  Fe103  1  0.81353505  0.41560876  0.39212922  1
  Fe  Fe104  1  0.85400798  0.58039802  0.60505062  1
  Fe  Fe105  1  0.31156950  0.84204374  0.89230976  1
  Fe  Fe106  1  0.64458900  0.33800209  0.89558701  1
  Fe  Fe107  1  0.02755673  0.83516182  0.60805162  1
  Fe  Fe108  1  0.47295079  0.07818418  0.39460160  1
  Fe  Fe109  1  0.52260866  0.58352957  0.10651087  1
  Fe  Fe110  1  0.64855781  0.16623458  0.89427686  1
  Fe  Fe111  1  0.68575903  0.83386643  0.60485959  1
  Fe  Fe112  1  0.80614229  0.08452839  0.39471599  1
  Si  Si113  1  0.85678721  0.92018903  0.60704794  1
  Si  Si114  1  0.69876509  0.66684370  0.11043378  1
  Si  Si115  1  0.97216601  0.66803415  0.88024282  1
  Si  Si116  1  0.69351601  0.83248659  0.11527393  1
  Si  Si117  1  0.86100529  0.41557681  0.11536645  1
  Si  Si118  1  0.68291860  0.66625388  0.60551644  1
  Si  Si119  1  0.13785063  0.08813279  0.88808257  1
  Si  Si120  1  0.86422534  0.58168430  0.11407616  1
  Si  Si121  1  0.18860774  0.59298719  0.11057710  1
  Si  Si122  1  0.97833520  0.66850865  0.38434395  1
  Si  Si123  1  0.68651197  0.16556878  0.61505641  1
  Si  Si124  1  0.64315364  0.66446484  0.88380135  1
  Si  Si125  1  0.47039035  0.41588117  0.88870896  1
  Si  Si126  1  0.69570537  0.33181655  0.11723262  1
  Si  Si127  1  0.63556915  0.17212690  0.39163866  1
  Si  Si128  1  0.35702014  0.17070543  0.61721254  1
  Si  Si129  1  0.35746963  0.83984413  0.11711941  1
  Si  Si130  1  0.13537489  0.58544180  0.88566503  1
  Si  Si131  1  0.47824698  0.08033090  0.88925296  1
  Si  Si132  1  0.81408406  0.58667051  0.38578766  1
  Si  Si133  1  0.02066172  0.83325232  0.11485295  1
  Si  Si134  1  0.85009779  0.41156902  0.60921314  1
  Si  Si135  1  0.14233318  0.91551811  0.38642543  1
  Si  Si136  1  0.48547206  0.91826995  0.88785111  1
  Si  Si137  1  0.80761814  0.42566733  0.88532005  1
  Si  Si138  1  0.35529672  0.67348511  0.11153154  1
  Si  Si139  1  0.63707248  0.33867420  0.38756890  1
  Si  Si140  1  0.20004556  0.91677189  0.61152472  1
  Si  Si141  1  0.51910699  0.92318810  0.61200249  1
  Si  Si142  1  0.18667091  0.07820649  0.11446647  1
  Si  Si143  1  0.85150508  0.08546780  0.61562544  1
  Si  Si144  1  0.52746546  0.41336745  0.61496833  1
  Si  Si145  1  0.18644414  0.91430771  0.11694635  1
  Si  Si146  1  0.85675932  0.91865991  0.11567834  1
  Si  Si147  1  0.96579894  0.33257035  0.88670380  1
  Si  Si148  1  0.19415440  0.08179730  0.61496767  1
  Si  Si149  1  0.47861382  0.90822749  0.39007043  1
  Si  Si150  1  0.69658338  0.16669575  0.11855605  1
  Si  Si151  1  0.51908202  0.08614293  0.61565330  1
  Si  Si152  1  0.35964572  0.33512345  0.11296313  1
  Si  Si153  1  0.30864315  0.33973869  0.38813375  1
  Si  Si154  1  0.64405194  0.82847046  0.88384692  1
  Si  Si155  1  0.47483606  0.58668534  0.38324674  1
  Si  Si156  1  0.36204133  0.33504836  0.61677208  1
  Si  Si157  1  0.98312405  0.32870135  0.38724582  1
  Si  Si158  1  0.53265675  0.08130961  0.11447916  1
  Si  Si159  1  0.47159629  0.42163354  0.38285325  1
  Si  Si160  1  0.86044875  0.08309743  0.11765109  1
  Si  Si161  1  0.81046442  0.07408751  0.88906458  1
  Si  Si162  1  0.97626179  0.83256478  0.38547219  1
  Si  Si163  1  0.13542116  0.92117388  0.88835171  1
  Si  Si164  1  0.52590401  0.57957164  0.61332439  1
  Si  Si165  1  0.30668788  0.83057797  0.38648849  1
  Si  Si166  1  0.02443716  0.16475849  0.11674871  1
  Si  Si167  1  0.96678780  0.16842444  0.88509355  1
  Si  Si168  1  0.36413531  0.66614111  0.61387479  1
  Si  Si169  1  0.52720497  0.41099008  0.11307101  1
  Si  Si170  1  0.97408887  0.83040039  0.88200372  1
  Si  Si171  1  0.14133529  0.58404894  0.38300545  1
  Si  Si172  1  0.81226717  0.90983110  0.88269932  1
  Si  Si173  1  0.36452187  0.83165608  0.61366800  1
  Si  Si174  1  0.52653196  0.91510346  0.11699363  1
  Si  Si175  1  0.30712606  0.66515729  0.38347396  1
  Si  Si176  1  0.14011408  0.41950988  0.38495465  1
  Si  Si177  1  0.02855557  0.66161194  0.60737044  1
  Si  Si178  1  0.02483282  0.16192891  0.61111015  1
  Si  Si179  1  0.81030796  0.91198835  0.38894067  1
  Si  Si180  1  0.80949285  0.58731221  0.88080683  1
  Si  Si181  1  0.64324731  0.82720085  0.38396208  1
  Si  Si182  1  0.02480853  0.33064794  0.11302907  1
  Si  Si183  1  0.19785834  0.41871000  0.61243237  1
  Si  Si184  1  0.19835858  0.58427886  0.61427155  1
  Si  Si185  1  0.02325487  0.67006127  0.11399333  1
  Si  Si186  1  0.68730911  0.32909221  0.61489563  1
  Si  Si187  1  0.64437323  0.66431945  0.38329063  1
  Si  Si188  1  0.13439610  0.08130016  0.38885482  1
  Si  Si189  1  0.31186027  0.33396531  0.88954437  1
  Si  Si190  1  0.47656792  0.58324878  0.88730854  1
  Si  Si191  1  0.97519768  0.16671384  0.38746142  1
  O  O192  1  0.26427424  0.10241542  0.08025368  1
  O  O193  1  0.26899351  0.12772735  0.58704238  1
  O  O194  1  0.26625045  0.63256568  0.08031799  1
  O  O195  1  0.27774310  0.62127350  0.58446825  1
  O  O196  1  0.61628154  0.11619334  0.08797032  1
  O  O197  1  0.60205705  0.11602170  0.58629717  1
  O  O198  1  0.61718081  0.62335499  0.07449794  1
  O  O199  1  0.60535768  0.60670065  0.57952788  1
  O  O200  1  0.94054806  0.11583650  0.08737214  1
  O  O201  1  0.93554724  0.11570378  0.58797236  1
  O  O202  1  0.94314352  0.61661475  0.08319678  1
  O  O203  1  0.95457088  0.60624636  0.57529444  1
  O  O204  1  0.09975643  0.36084697  0.07854373  1
  O  O205  1  0.11666894  0.37540152  0.57491333  1
  O  O206  1  0.10359090  0.86381642  0.08641843  1
  O  O207  1  0.11851024  0.87483283  0.57280570  1
  O  O208  1  0.45261394  0.35153476  0.09036463  1
  O  O209  1  0.44266614  0.36530694  0.58495977  1
  O  O210  1  0.43516539  0.87721321  0.08528828  1
  O  O211  1  0.44026423  0.86799487  0.58069859  1
  O  O212  1  0.77454542  0.36942620  0.08804390  1
  O  O213  1  0.76946681  0.35521511  0.58457621  1
  O  O214  1  0.76867014  0.87637322  0.08501375  1
  O  O215  1  0.78002531  0.86905257  0.57151247  1
  O  O216  1  0.29402844  0.39755304  0.08201166  1
  O  O217  1  0.28193594  0.38605824  0.58510002  1
  O  O218  1  0.26968760  0.88569630  0.08807566  1
  O  O219  1  0.28061132  0.87865820  0.58388036  1
  O  O220  1  0.61164793  0.37778298  0.08697088  1
  O  O221  1  0.60545826  0.38022696  0.58134538  1
  O  O222  1  0.60181292  0.87063905  0.08733531  1
  O  O223  1  0.59905604  0.90222295  0.57861915  1
  O  O224  1  0.93658183  0.37613828  0.08454100  1
  O  O225  1  0.92668008  0.38207762  0.57366867  1
  O  O226  1  0.93660529  0.88301146  0.08590342  1
  O  O227  1  0.93980724  0.89888095  0.57591179  1
  O  O228  1  0.10223625  0.12850094  0.08632481  1
  O  O229  1  0.10076508  0.11428542  0.58381048  1
  O  O230  1  0.10570642  0.64631698  0.08350913  1
  O  O231  1  0.11623148  0.63193324  0.58212774  1
  O  O232  1  0.45162547  0.12551122  0.07825317  1
  O  O233  1  0.43751849  0.13814326  0.58686329  1
  O  O234  1  0.42955217  0.64226468  0.07517050  1
  O  O235  1  0.44050226  0.62737570  0.58224620  1
  O  O236  1  0.77789233  0.13271947  0.08973763  1
  O  O237  1  0.76761884  0.13469442  0.58404954  1
  O  O238  1  0.78217541  0.63173343  0.08408025  1
  O  O239  1  0.76401182  0.64373201  0.57259088  1
  O  O240  1  0.04394812  0.10195872  0.41195035  1
  O  O241  1  0.05491222  0.12533180  0.91310638  1
  O  O242  1  0.06296399  0.62163347  0.41487814  1
  O  O243  1  0.04580053  0.61121551  0.91042296  1
  O  O244  1  0.38156065  0.10303536  0.43353220  1
  O  O245  1  0.39172743  0.09057130  0.91883853  1
  O  O246  1  0.39753081  0.62354057  0.41565582  1
  O  O247  1  0.40218196  0.60782164  0.92582312  1
  O  O248  1  0.71274775  0.12106942  0.42663810  1
  O  O249  1  0.73475573  0.09769766  0.92657211  1
  O  O250  1  0.72839464  0.61609371  0.41219909  1
  O  O251  1  0.72832136  0.61697399  0.91300555  1
  O  O252  1  0.22883503  0.37861479  0.41616379  1
  O  O253  1  0.22885223  0.35095264  0.92183972  1
  O  O254  1  0.22803995  0.86925029  0.41721663  1
  O  O255  1  0.21843997  0.88104715  0.92697348  1
  O  O256  1  0.55038211  0.36833024  0.41310268  1
  O  O257  1  0.54466540  0.36507334  0.92740146  1
  O  O258  1  0.56019838  0.85381373  0.41440425  1
  O  O259  1  0.56723592  0.86464939  0.91598203  1
  O  O260  1  0.90299343  0.35031706  0.42074218  1
  O  O261  1  0.88507846  0.36980577  0.91463324  1
  O  O262  1  0.89409869  0.85952564  0.41588385  1
  O  O263  1  0.89177224  0.85647090  0.91442643  1
  O  O264  1  0.06367084  0.38159706  0.41685601  1
  O  O265  1  0.04832997  0.37488818  0.92437857  1
  O  O266  1  0.06043519  0.88133275  0.41423384  1
  O  O267  1  0.05191947  0.88380823  0.91309738  1
  O  O268  1  0.38925915  0.39503634  0.41342861  1
  O  O269  1  0.38116988  0.39917663  0.91552559  1
  O  O270  1  0.39631893  0.87073351  0.41749013  1
  O  O271  1  0.40831981  0.89855716  0.92503923  1
  O  O272  1  0.71269151  0.39093484  0.42148668  1
  O  O273  1  0.72930848  0.40859890  0.92291644  1
  O  O274  1  0.72769570  0.87450071  0.41403749  1
  O  O275  1  0.73045007  0.87567238  0.91154583  1
  O  O276  1  0.20316204  0.13718414  0.42505604  1
  O  O277  1  0.21782482  0.13241906  0.92715354  1
  O  O278  1  0.23073528  0.62545232  0.41548713  1
  O  O279  1  0.20639702  0.64315087  0.91757863  1
  O  O280  1  0.55190400  0.15184062  0.42165167  1
  O  O281  1  0.54835622  0.13772491  0.92333426  1
  O  O282  1  0.56282148  0.63090656  0.41240777  1
  O  O283  1  0.56477179  0.63007744  0.91465973  1
  O  O284  1  0.89453336  0.15128356  0.42205200  1
  O  O285  1  0.89563236  0.12268848  0.91758962  1
  O  O286  1  0.89287658  0.64340249  0.41185423  1
  O  O287  1  0.88614719  0.64463026  0.90876995  1
  O  O288  1  0.15948855  -0.00485378  0.08826031  1
  O  O289  1  0.19885599  0.00073011  0.58386901  1
  O  O290  1  0.16579285  0.51641334  0.07391971  1
  O  O291  1  0.19032822  0.50257702  0.58343265  1
  O  O292  1  0.52792881  -0.00303539  0.08665666  1
  O  O293  1  0.49117523  0.00604239  0.58591396  1
  O  O294  1  0.50599144  0.48732570  0.07617228  1
  O  O295  1  0.50653012  0.49613999  0.58646150  1
  O  O296  1  0.84464813  0.00132065  0.08678293  1
  O  O297  1  0.83214823  0.00482332  0.58398260  1
  O  O298  1  0.84909965  0.49853252  0.08604108  1
  O  O299  1  0.81787456  0.48850284  0.57539405  1
  O  O300  1  0.00456117  0.24607651  0.08753426  1
  O  O301  1  0.01528203  0.23622670  0.56919781  1
  O  O302  1  -0.00252480  0.75233079  0.08475253  1
  O  O303  1  0.00994020  0.74083768  0.57380933  1
  O  O304  1  0.32744435  0.25785074  0.08074748  1
  O  O305  1  0.34275509  0.25299801  0.58752117  1
  O  O306  1  0.34099030  0.75876470  0.08706635  1
  O  O307  1  0.35266327  0.74868352  0.58347016  1
  O  O308  1  0.68397663  0.24893097  0.08891260  1
  O  O309  1  0.66454429  0.24700150  0.58494202  1
  O  O310  1  0.69349655  0.75131089  0.08292599  1
  O  O311  1  0.64552539  0.74233870  0.57386801  1
  O  O312  1  0.15635290  -0.00238062  0.41574004  1
  O  O313  1  0.13634582  0.00443590  0.91689585  1
  O  O314  1  0.15039223  0.50210435  0.41501339  1
  O  O315  1  0.15853274  0.50745759  0.91919405  1
  O  O316  1  0.50223485  -0.01640594  0.42707717  1
  O  O317  1  0.51917611  -0.00053428  0.91071781  1
  O  O318  1  0.49092033  0.50399530  0.41269956  1
  O  O319  1  0.50085757  0.49946061  0.90902193  1
  O  O320  1  0.82943922  -0.01111118  0.42529340  1
  O  O321  1  0.83497120  -0.01003716  0.91515845  1
  O  O322  1  0.84253670  0.51058773  0.42003089  1
  O  O323  1  0.84017370  0.50851221  0.91144888  1
  O  O324  1  0.32845652  0.26429531  0.42647437  1
  O  O325  1  0.35245824  0.25719068  0.91785736  1
  O  O326  1  0.31434600  0.74758325  0.41588041  1
  O  O327  1  0.33685203  0.75475779  0.93303322  1
  O  O328  1  0.65809206  0.25682589  0.41534654  1
  O  O329  1  0.68305106  0.25222288  0.93571475  1
  O  O330  1  0.66270223  0.74523302  0.41420574  1
  O  O331  1  0.66114312  0.74635448  0.91543889  1
  O  O332  1  1.01623886  0.24636935  0.40984593  1
  O  O333  1  0.97049500  0.24921555  0.91827060  1
  O  O334  1  0.99907426  0.75067974  0.41276210  1
  O  O335  1  0.99708855  0.74875383  0.91144544  1
  O  O336  1  0.20496834  0.08049065  0.19538640  1
  O  O337  1  0.21058311  0.08168035  0.69510109  1
  O  O338  1  0.21088022  0.58746649  0.18980611  1
  O  O339  1  0.21107899  0.58299158  0.69424859  1
  O  O340  1  0.54719794  0.08256836  0.19531266  1
  O  O341  1  0.53900471  0.08476107  0.69566494  1
  O  O342  1  0.54609072  0.58491701  0.19840415  1
  O  O343  1  0.54566364  0.58857944  0.69229938  1
  O  O344  1  0.87922552  0.08219240  0.19775787  1
  O  O345  1  0.86501204  0.08452658  0.69482618  1
  O  O346  1  0.87939241  0.58305050  0.19456502  1
  O  O347  1  0.87665836  0.58229483  0.69690700  1
  O  O348  1  0.04159098  0.33206561  0.19398100  1
  O  O349  1  0.04269123  0.33057588  0.69764026  1
  O  O350  1  0.03965093  0.83475966  0.19514853  1
  O  O351  1  0.04767044  0.83271683  0.69970712  1
  O  O352  1  0.37625735  0.33469223  0.19509259  1
  O  O353  1  0.37777785  0.33428688  0.69676931  1
  O  O354  1  0.37846396  0.83944073  0.19661111  1
  O  O355  1  0.37995795  0.83163068  0.69381111  1
  O  O356  1  0.71214492  0.33167612  0.19764894  1
  O  O357  1  0.70355110  0.33158607  0.69423935  1
  O  O358  1  0.71412030  0.83034387  0.19475674  1
  O  O359  1  0.71477360  0.82493505  0.69442634  1
  O  O360  1  0.21141710  0.41749304  0.20040248  1
  O  O361  1  0.21191884  0.41687823  0.69287965  1
  O  O362  1  0.20593115  0.91514455  0.19725721  1
  O  O363  1  0.21313870  0.91657918  0.69216500  1
  O  O364  1  0.54632112  0.41668913  0.19443440  1
  O  O365  1  0.54703940  0.41037510  0.69388170  1
  O  O366  1  0.54045974  0.91525023  0.19661428  1
  O  O367  1  0.52974663  0.91903004  0.69176260  1
  O  O368  1  0.87982337  0.41598387  0.19571117  1
  O  O369  1  0.87505735  0.41635681  0.68964142  1
  O  O370  1  0.87596399  0.91682691  0.19592680  1
  O  O371  1  0.87479786  0.91604866  0.68857456  1
  O  O372  1  0.04264002  0.16464726  0.19738234  1
  O  O373  1  0.04833472  0.17155756  0.69034641  1
  O  O374  1  0.03621429  0.66949615  0.19338964  1
  O  O375  1  0.04504448  0.66441629  0.68916850  1
  O  O376  1  0.37887633  0.16689697  0.20134534  1
  O  O377  1  0.37689960  0.16773983  0.69710364  1
  O  O378  1  0.37717019  0.66638409  0.19137298  1
  O  O379  1  0.38026485  0.66690386  0.69366143  1
  O  O380  1  0.71158986  0.16817058  0.19881224  1
  O  O381  1  0.70687756  0.16704569  0.69498449  1
  O  O382  1  0.71370478  0.66666657  0.19161996  1
  O  O383  1  0.70546267  0.66451890  0.68734658  1
  O  O384  1  0.12193944  0.08161253  0.30747483  1
  O  O385  1  0.13276680  0.08410402  0.80863445  1
  O  O386  1  0.12207647  0.58519282  0.30426141  1
  O  O387  1  0.11969514  0.58429371  0.80372274  1
  O  O388  1  0.45659194  0.07958561  0.30215366  1
  O  O389  1  0.45740604  0.08376149  0.80738828  1
  O  O390  1  0.45637951  0.58603716  0.30345140  1
  O  O391  1  0.45337004  0.59266815  0.80777856  1
  O  O392  1  0.78907698  0.08328452  0.30270026  1
  O  O393  1  0.79069856  0.07974204  0.80867945  1
  O  O394  1  0.79330926  0.58524105  0.30435173  1
  O  O395  1  0.78880428  0.58661836  0.80076644  1
  O  O396  1  0.29123988  0.33469515  0.30755028  1
  O  O397  1  0.28905262  0.33436714  0.80735924  1
  O  O398  1  0.28711754  0.83587571  0.30725916  1
  O  O399  1  0.28938969  0.83440651  0.79951054  1
  O  O400  1  0.62209822  0.33711229  0.30621764  1
  O  O401  1  0.62277628  0.33432083  0.80340664  1
  O  O402  1  0.62374847  0.82819418  0.30424615  1
  O  O403  1  0.62088888  0.82463527  0.80478830  1
  O  O404  1  0.96067060  0.33333065  0.30595545  1
  O  O405  1  0.95607423  0.33242478  0.80690297  1
  O  O406  1  0.95651775  0.83393758  0.30488722  1
  O  O407  1  0.95528783  0.82998981  0.80190326  1
  O  O408  1  0.12010976  0.41440384  0.30572600  1
  O  O409  1  0.11990316  0.41688208  0.79726864  1
  O  O410  1  0.12320752  0.91583649  0.30591384  1
  O  O411  1  0.12449387  0.91792707  0.80774021  1
  O  O412  1  0.45665357  0.42027828  0.30251426  1
  O  O413  1  0.45162665  0.40766465  0.80881615  1
  O  O414  1  0.45767661  0.91302915  0.30930053  1
  O  O415  1  0.46082592  0.91451080  0.80676879  1
  O  O416  1  0.79074960  0.41759402  0.29993893  1
  O  O417  1  0.78917810  0.42279136  0.80520225  1
  O  O418  1  0.79602030  0.91454476  0.30853845  1
  O  O419  1  0.79910101  0.91274940  0.80369872  1
  O  O420  1  0.28669211  0.16647496  0.30205388  1
  O  O421  1  0.28774306  0.16689842  0.80012903  1
  O  O422  1  0.29208581  0.66557359  0.30498042  1
  O  O423  1  0.28851993  0.66746346  0.79851475  1
  O  O424  1  0.62304128  0.16803575  0.30968390  1
  O  O425  1  0.62367470  0.16748332  0.80194991  1
  O  O426  1  0.62669957  0.66652449  0.30296334  1
  O  O427  1  0.62525924  0.66563471  0.80340560  1
  O  O428  1  0.95634491  0.16617131  0.30590229  1
  O  O429  1  0.94902727  0.17248771  0.80603059  1
  O  O430  1  0.95873715  0.66660988  0.30387039  1
  O  O431  1  0.95638939  0.66856677  0.79996177  1
  F  F432  1  0.04369967  -0.00058948  0.20402436  1
  F  F433  1  0.05267769  -0.00894798  0.69806464  1
  F  F434  1  0.03767840  0.49989160  0.19707160  1
  F  F435  1  0.04504671  0.50085846  0.69749862  1
  F  F436  1  0.37685230  -0.00305482  0.20406899  1
  F  F437  1  0.37822878  0.00095026  0.70530749  1
  F  F438  1  0.38006962  0.50266400  0.20000257  1
  F  F439  1  0.36795986  0.50059460  0.70115346  1
  F  F440  1  0.71342474  0.00121427  0.20111946  1
  F  F441  1  0.71381725  0.01084623  0.69892566  1
  F  F442  1  0.71413824  0.50172425  0.20049724  1
  F  F443  1  0.71044574  0.49855232  0.69776834  1
  F  F444  1  0.20937321  0.25111349  0.20224068  1
  F  F445  1  0.21281283  0.25258601  0.70155493  1
  F  F446  1  0.20652788  0.75405298  0.19933191  1
  F  F447  1  0.21135537  0.75011242  0.69776606  1
  F  F448  1  0.54780725  0.24955293  0.20572917  1
  F  F449  1  0.54105184  0.24950313  0.70176125  1
  F  F450  1  0.54676132  0.75068700  0.19847153  1
  F  F451  1  0.54297961  0.74909755  0.70030825  1
  F  F452  1  0.87850971  0.24925808  0.20464401  1
  F  F453  1  0.87736497  0.24500213  0.69810543  1
  F  F454  1  0.87957120  0.75161761  0.20273881  1
  F  F455  1  0.88025370  0.74901174  0.69640240  1
  F  F456  1  0.28659824  -0.00166695  0.29915961  1
  F  F457  1  0.28816998  -0.00232715  0.79796174  1
  F  F458  1  0.29771795  0.50425577  0.30010893  1
  F  F459  1  0.28510200  0.50084466  0.79900510  1
  F  F460  1  0.62080614  0.00071002  0.30096106  1
  F  F461  1  0.61805775  0.00698583  0.80040945  1
  F  F462  1  0.62303452  0.50099862  0.29762022  1
  F  F463  1  0.63496849  0.50251554  0.79980518  1
  F  F464  1  0.95463398  -0.00204802  0.29930296  1
  F  F465  1  0.95029999  -0.01129853  0.79791548  1
  F  F466  1  0.95716780  0.50120378  0.29781073  1
  F  F467  1  0.95483885  0.49802504  0.79443456  1
  F  F468  1  0.12163740  0.25077003  0.29691375  1
  F  F469  1  0.11984302  0.24797631  0.79855513  1
  F  F470  1  0.11666882  0.75735122  0.30356823  1
  F  F471  1  0.12164822  0.74781808  0.79639828  1
  F  F472  1  0.45554076  0.25432150  0.29940091  1
  F  F473  1  0.45453719  0.24959263  0.79893222  1
  F  F474  1  0.46206769  0.74865699  0.29819659  1
  F  F475  1  0.45595845  0.75080543  0.79706206  1
  F  F476  1  0.78940443  0.25116838  0.30099339  1
  F  F477  1  0.78563417  0.24657060  0.79951268  1
  F  F478  1  0.78908988  0.74795462  0.29719183  1
  F  F479  1  0.78984207  0.74546758  0.79447651  1
