# generated using pymatgen
data_K24Na3Li5Mg64Fe17Si79(O5F)48
_symmetry_space_group_name_H-M   'P 1'
_cell_length_a   16.10243451
_cell_length_b   18.60064779
_cell_length_c   20.56429325
_cell_angle_alpha   89.99759778
_cell_angle_beta   100.00412854
_cell_angle_gamma   90.00229310
_symmetry_Int_Tables_number   1
_chemical_formula_structural   K24Na3Li5Mg64Fe17Si79(O5F)48
_chemical_formula_sum   'K24 Na3 Li5 Mg64 Fe17 Si79 O240 F48'
_cell_volume   6065.67781419
_cell_formula_units_Z   1
loop_
 _symmetry_equiv_pos_site_id
 _symmetry_equiv_pos_as_xyz
  1  'x, y, z'
loop_
 _atom_site_type_symbol
 _atom_site_label
 _atom_site_symmetry_multiplicity
 _atom_site_fract_x
 _atom_site_fract_y
 _atom_site_fract_z
 _atom_site_occupancy
  K  K0  1  0.01277366  -0.00225067  0.01853784  1
  K  K1  1  0.00813852  0.00079862  0.48822895  1
  K  K2  1  0.00418357  0.49985788  0.00525640  1
  K  K3  1  -0.01004433  0.48806023  0.48805146  1
  K  K4  1  0.32744162  -0.00128376  0.00969488  1
  K  K5  1  0.32896091  -0.00032821  0.48615413  1
  K  K6  1  0.35121300  0.49497290  0.01114472  1
  K  K7  1  0.33314278  0.49738326  0.49667228  1
  K  K8  1  0.66515600  0.00417700  0.00778339  1
  K  K9  1  0.64984489  0.00181848  0.48649169  1
  K  K10  1  0.66234130  0.50235816  0.00333818  1
  K  K11  1  0.67187970  0.48598880  0.49495438  1
  K  K12  1  0.16851517  0.25934034  0.01772865  1
  K  K13  1  0.16772222  0.24951633  0.47909306  1
  K  K14  1  0.17191748  0.75001848  0.00897609  1
  K  K15  1  0.17180795  0.74786202  0.49834716  1
  K  K16  1  0.50865374  0.25924194  0.01272023  1
  K  K17  1  0.49560767  0.25911104  0.48740791  1
  K  K18  1  0.50873296  0.74341413  0.00495637  1
  K  K19  1  0.48150200  0.75209272  0.49095055  1
  K  K20  1  0.83161856  0.24284676  0.00889039  1
  K  K21  1  0.82156431  0.25907409  0.48260441  1
  K  K22  1  0.83169844  0.74291346  0.00657414  1
  K  K23  1  0.83077666  0.74938239  0.49200213  1
  Na  Na24  1  0.33191871  0.74790987  0.25039168  1
  Na  Na25  1  0.33175110  0.41958429  0.75086027  1
  Na  Na26  1  0.16708311  0.66909265  0.74822968  1
  Li  Li27  1  0.67155309  0.25245276  0.25182515  1
  Li  Li28  1  0.17020647  0.00011252  0.74687977  1
  Li  Li29  1  0.00304031  0.08808995  0.24855302  1
  Li  Li30  1  0.82529351  0.32965813  0.25312847  1
  Li  Li31  1  0.33380700  0.58438399  0.25005743  1
  Mg  Mg32  1  0.16455750  0.00009961  0.24703779  1
  Mg  Mg33  1  0.83630375  0.00370596  0.24940939  1
  Mg  Mg34  1  0.49777920  -0.00136878  0.25164602  1
  Mg  Mg35  1  0.83620412  -0.00202179  0.74765542  1
  Mg  Mg36  1  0.33293673  0.25078256  0.74977192  1
  Mg  Mg37  1  0.66670930  0.75300407  0.25150162  1
  Mg  Mg38  1  0.16521457  0.50058058  0.74948313  1
  Mg  Mg39  1  -0.00107056  0.24866790  0.74749532  1
  Mg  Mg40  1  0.00344019  0.75042664  0.74991001  1
  Mg  Mg41  1  0.49897285  0.49938069  0.75194952  1
  Mg  Mg42  1  0.00083420  0.75021301  0.24805569  1
  Mg  Mg43  1  0.16973630  0.50104277  0.25332162  1
  Mg  Mg44  1  0.83122518  0.50010115  0.75189767  1
  Mg  Mg45  1  0.33376744  0.25418811  0.25225968  1
  Mg  Mg46  1  0.66713987  0.25094391  0.75031189  1
  Mg  Mg47  1  -0.00295171  0.24841118  0.25147896  1
  Mg  Mg48  1  0.66664575  0.74779913  0.75395562  1
  Mg  Mg49  1  0.83210082  0.49686665  0.24779234  1
  Mg  Mg50  1  0.33306005  0.75138543  0.74615516  1
  Mg  Mg51  1  0.49900500  0.50174787  0.25003567  1
  Mg  Mg52  1  0.49998008  -0.00143492  0.74841714  1
  Mg  Mg53  1  0.16711361  0.16470462  0.74868020  1
  Mg  Mg54  1  0.83428729  0.66529042  0.75287522  1
  Mg  Mg55  1  0.83134019  0.33366119  0.74893633  1
  Mg  Mg56  1  0.49736879  0.66757576  0.25133318  1
  Mg  Mg57  1  0.50095247  0.66510758  0.75224247  1
  Mg  Mg58  1  0.00629963  0.91692723  0.74755487  1
  Mg  Mg59  1  -0.00300862  0.58246045  0.24978564  1
  Mg  Mg60  1  0.49877481  0.83360678  0.74893083  1
  Mg  Mg61  1  0.66614481  0.58492692  0.25043505  1
  Mg  Mg62  1  0.33462519  0.41883332  0.25166611  1
  Mg  Mg63  1  0.33108794  0.08266146  0.74848379  1
  Mg  Mg64  1  0.66701762  0.41253962  0.75142761  1
  Mg  Mg65  1  0.83151993  0.16985223  0.24902219  1
  Mg  Mg66  1  0.16529202  0.83382764  0.25081808  1
  Mg  Mg67  1  0.33148662  0.58414804  0.75005719  1
  Mg  Mg68  1  0.66479402  0.08665928  0.24902357  1
  Mg  Mg69  1  0.66840726  0.58385172  0.75398743  1
  Mg  Mg70  1  0.16647826  0.33502122  0.25003270  1
  Mg  Mg71  1  -0.00167761  0.41624477  0.74773887  1
  Mg  Mg72  1  0.00137486  0.91858664  0.25002958  1
  Mg  Mg73  1  0.66797397  0.91415991  0.74988132  1
  Mg  Mg74  1  0.83362611  0.16390243  0.74598435  1
  Mg  Mg75  1  0.16707963  0.66554186  0.24985844  1
  Mg  Mg76  1  -0.00392389  0.41403872  0.25163346  1
  Mg  Mg77  1  0.33122626  0.91656756  0.74627672  1
  Mg  Mg78  1  0.16920919  0.83723170  0.74625163  1
  Mg  Mg79  1  0.66487930  0.91866494  0.25188706  1
  Mg  Mg80  1  0.50107210  0.33434706  0.75149712  1
  Mg  Mg81  1  0.00451729  0.08121816  0.74728549  1
  Mg  Mg82  1  0.50011390  0.16897613  0.24982009  1
  Mg  Mg83  1  0.66780296  0.08292686  0.74807708  1
  Mg  Mg84  1  0.33124765  0.08555874  0.25163022  1
  Mg  Mg85  1  0.16368629  0.16587548  0.25052039  1
  Mg  Mg86  1  0.50077027  0.16543057  0.75032661  1
  Mg  Mg87  1  0.16527968  0.33344452  0.74860370  1
  Mg  Mg88  1  0.83365008  0.83644956  0.24941780  1
  Mg  Mg89  1  0.83636509  0.83306645  0.75007958  1
  Mg  Mg90  1  0.66680095  0.41409125  0.25083898  1
  Mg  Mg91  1  0.33117982  0.91404853  0.24966900  1
  Mg  Mg92  1  -0.00070600  0.58524360  0.74907500  1
  Mg  Mg93  1  0.50265688  0.33541183  0.25075789  1
  Mg  Mg94  1  0.83260311  0.66575876  0.25068933  1
  Mg  Mg95  1  0.49724932  0.83547359  0.25025692  1
  Fe  Fe96  1  0.52346130  0.91537150  0.11122125  1
  Fe  Fe97  1  0.85489067  0.57867408  0.11194104  1
  Fe  Fe98  1  0.53428581  0.41953890  0.11015941  1
  Fe  Fe99  1  0.64256637  0.33290201  0.89253440  1
  Fe  Fe100  1  0.46878304  0.91222008  0.39217361  1
  Fe  Fe101  1  0.69102344  0.33099459  0.60793985  1
  Fe  Fe102  1  0.35972215  0.33707996  0.11152815  1
  Fe  Fe103  1  0.80857866  0.41712197  0.38930801  1
  Fe  Fe104  1  0.19627783  0.91379327  0.10891642  1
  Fe  Fe105  1  0.35566460  0.83314487  0.60757653  1
  Fe  Fe106  1  0.64027914  0.66596334  0.89405486  1
  Fe  Fe107  1  0.02267997  0.16961984  0.11023633  1
  Fe  Fe108  1  0.14217802  0.07910707  0.38919580  1
  Fe  Fe109  1  0.81649073  0.58108594  0.89253726  1
  Fe  Fe110  1  0.31035506  0.34348897  0.39080701  1
  Fe  Fe111  1  0.02474221  0.83014492  0.11026153  1
  Fe  Fe112  1  0.70185223  0.32697847  0.11321988  1
  Si  Si113  1  0.64520724  0.83465113  0.38993625  1
  Si  Si114  1  0.19193914  0.58550333  0.11720995  1
  Si  Si115  1  0.85900424  0.91711044  0.11423060  1
  Si  Si116  1  0.69069357  0.66749333  0.61456721  1
  Si  Si117  1  0.46973458  0.41541864  0.88689945  1
  Si  Si118  1  0.30387826  0.66632156  0.88291740  1
  Si  Si119  1  0.30085899  0.33180450  0.88397681  1
  Si  Si120  1  0.14020767  0.91017537  0.38989320  1
  Si  Si121  1  0.13739066  0.58111255  0.88359043  1
  Si  Si122  1  0.36339689  0.82810418  0.10985675  1
  Si  Si123  1  0.81411424  0.91640111  0.88382449  1
  Si  Si124  1  0.97089244  0.16489112  0.38764921  1
  Si  Si125  1  0.86161162  0.42126274  0.61228898  1
  Si  Si126  1  0.69608165  0.83312401  0.61522049  1
  Si  Si127  1  0.80427501  0.08641213  0.38528405  1
  Si  Si128  1  0.97326390  0.67188681  0.38673397  1
  Si  Si129  1  0.19054883  0.08822757  0.61358063  1
  Si  Si130  1  0.63755870  0.16664360  0.38387869  1
  Si  Si131  1  0.53057533  0.91479132  0.61311733  1
  Si  Si132  1  0.46639627  0.58273997  0.88849688  1
  Si  Si133  1  0.85264168  0.08060857  0.11308809  1
  Si  Si134  1  0.97987698  0.67250911  0.88709741  1
  Si  Si135  1  0.35786652  0.33110183  0.61550193  1
  Si  Si136  1  0.98107493  0.83641558  0.88298672  1
  Si  Si137  1  0.02560440  0.34010588  0.11405787  1
  Si  Si138  1  0.13711304  0.41628727  0.88465069  1
  Si  Si139  1  0.97809391  0.16327278  0.88213593  1
  Si  Si140  1  0.35415924  0.66174511  0.61159855  1
  Si  Si141  1  0.18992510  0.92289211  0.61024161  1
  Si  Si142  1  0.80818728  0.58686152  0.38970201  1
  Si  Si143  1  0.31088673  0.17034418  0.38997364  1
  Si  Si144  1  0.69052465  0.67403155  0.11623137  1
  Si  Si145  1  0.19010379  0.57572268  0.61261860  1
  Si  Si146  1  0.97698961  0.32969508  0.38815080  1
  Si  Si147  1  0.97519568  0.32795392  0.88267239  1
  Si  Si148  1  0.30758878  0.83180006  0.88398737  1
  Si  Si149  1  0.86365931  0.91174966  0.61292852  1
  Si  Si150  1  0.29979173  0.82511657  0.38913125  1
  Si  Si151  1  0.97033609  0.83587898  0.38623994  1
  Si  Si152  1  0.02362597  0.33266908  0.61270806  1
  Si  Si153  1  0.13609290  0.58535862  0.38745231  1
  Si  Si154  1  0.68763392  0.16019613  0.11310124  1
  Si  Si155  1  0.52448591  0.08086503  0.61424909  1
  Si  Si156  1  0.63795638  0.33292477  0.38813690  1
  Si  Si157  1  0.47466053  0.08447548  0.38789648  1
  Si  Si158  1  0.52014490  0.41794905  0.61232427  1
  Si  Si159  1  0.81306998  0.08041485  0.88238147  1
  Si  Si160  1  0.19593764  0.08593360  0.11147103  1
  Si  Si161  1  0.48009575  0.58745499  0.38710579  1
  Si  Si162  1  0.35816060  0.66389691  0.11743476  1
  Si  Si163  1  0.18743097  0.41215155  0.61337163  1
  Si  Si164  1  0.69337592  0.15900481  0.61019769  1
  Si  Si165  1  0.80757189  0.92074092  0.38631986  1
  Si  Si166  1  0.02500047  0.66094290  0.11324975  1
  Si  Si167  1  0.64530204  0.15913779  0.88586974  1
  Si  Si168  1  0.51988992  0.08329311  0.11483880  1
  Si  Si169  1  0.69530787  0.83842135  0.11593687  1
  Si  Si170  1  0.86151568  0.07734823  0.61197024  1
  Si  Si171  1  0.85942313  0.58809543  0.61322382  1
  Si  Si172  1  0.52422329  0.59036273  0.11385136  1
  Si  Si173  1  0.02560630  0.66639685  0.61249147  1
  Si  Si174  1  0.64329817  0.67029989  0.38722043  1
  Si  Si175  1  0.35933257  0.16807311  0.11624176  1
  Si  Si176  1  0.52433810  0.58380179  0.61547064  1
  Si  Si177  1  0.30526753  0.65780081  0.38587669  1
  Si  Si178  1  0.64441808  0.83992063  0.88791970  1
  Si  Si179  1  0.02276307  0.16767854  0.61218367  1
  Si  Si180  1  0.47280604  0.91755559  0.88431425  1
  Si  Si181  1  0.13703042  0.42016449  0.38952336  1
  Si  Si182  1  0.02954742  0.83216613  0.61156302  1
  Si  Si183  1  0.81741794  0.41402437  0.88829766  1
  Si  Si184  1  0.48003082  0.42446061  0.39110318  1
  Si  Si185  1  0.14444921  0.91872176  0.88123459  1
  Si  Si186  1  0.14364847  0.08285114  0.88253803  1
  Si  Si187  1  0.86231094  0.41434576  0.11348224  1
  Si  Si188  1  0.47287536  0.08273311  0.88415608  1
  Si  Si189  1  0.30834679  0.16815097  0.88508378  1
  Si  Si190  1  0.35910376  0.16616199  0.61355436  1
  Si  Si191  1  0.19042113  0.42324254  0.11368676  1
  O  O192  1  0.28667174  0.10811794  0.08798296  1
  O  O193  1  0.27108278  0.12297963  0.58404795  1
  O  O194  1  0.27637074  0.61179728  0.08780249  1
  O  O195  1  0.27040024  0.61028484  0.58356460  1
  O  O196  1  0.60592321  0.10629625  0.08657203  1
  O  O197  1  0.60485960  0.11378218  0.58494676  1
  O  O198  1  0.60340471  0.63036243  0.08698152  1
  O  O199  1  0.60296099  0.62368189  0.58647044  1
  O  O200  1  0.92885868  0.10858713  0.07700462  1
  O  O201  1  0.93841996  0.11894065  0.58363540  1
  O  O202  1  0.95798097  0.59856194  0.08420309  1
  O  O203  1  0.93320551  0.63048422  0.58071724  1
  O  O204  1  0.10904555  0.37128707  0.08552439  1
  O  O205  1  0.10384634  0.36392553  0.58185070  1
  O  O206  1  0.10865009  0.85791315  0.06513127  1
  O  O207  1  0.10117541  0.87749662  0.58188404  1
  O  O208  1  0.44278483  0.36729920  0.06670762  1
  O  O209  1  0.42828920  0.37796145  0.58513840  1
  O  O210  1  0.44823798  0.84175561  0.07757755  1
  O  O211  1  0.45547975  0.86384971  0.57889770  1
  O  O212  1  0.80440824  0.34607368  0.08531647  1
  O  O213  1  0.77867988  0.38024938  0.57627041  1
  O  O214  1  0.78312665  0.85830553  0.08903137  1
  O  O215  1  0.77697949  0.86651812  0.58555816  1
  O  O216  1  0.26646789  0.39717267  0.07766243  1
  O  O217  1  0.26761014  0.37230835  0.58891834  1
  O  O218  1  0.28995280  0.88140845  0.07284435  1
  O  O219  1  0.26362101  0.89314818  0.57333884  1
  O  O220  1  0.62474442  0.39266196  0.07212097  1
  O  O221  1  0.58917452  0.37906432  0.57611168  1
  O  O222  1  0.62522813  0.89464785  0.08090728  1
  O  O223  1  0.61766616  0.88690968  0.58763250  1
  O  O224  1  0.95414307  0.40165282  0.08810552  1
  O  O225  1  0.94413105  0.38551819  0.58560811  1
  O  O226  1  0.93631565  0.89540967  0.07811336  1
  O  O227  1  0.93752049  0.86948503  0.58223106  1
  O  O228  1  0.12225913  0.14180262  0.07859382  1
  O  O229  1  0.10533485  0.13634688  0.58455201  1
  O  O230  1  0.11535790  0.64116534  0.08720667  1
  O  O231  1  0.10235014  0.62233233  0.58564641  1
  O  O232  1  0.44648700  0.14394561  0.08927343  1
  O  O233  1  0.43794270  0.12627394  0.58601847  1
  O  O234  1  0.43943721  0.63885965  0.08356473  1
  O  O235  1  0.43679947  0.62640883  0.58485303  1
  O  O236  1  0.76639554  0.12559051  0.08083082  1
  O  O237  1  0.76933481  0.11238017  0.58354336  1
  O  O238  1  0.76837450  0.64640457  0.08321681  1
  O  O239  1  0.76918672  0.62943128  0.58459487  1
  O  O240  1  0.04928204  0.11644702  0.42378992  1
  O  O241  1  0.06156849  0.11493402  0.91171892  1
  O  O242  1  0.06407277  0.63330001  0.41767731  1
  O  O243  1  0.06137510  0.61979095  0.91478791  1
  O  O244  1  0.40006739  0.12660640  0.41739909  1
  O  O245  1  0.39751915  0.12596321  0.91279766  1
  O  O246  1  0.39675016  0.61802136  0.41665814  1
  O  O247  1  0.38242064  0.61503742  0.91571560  1
  O  O248  1  0.72499355  0.12212446  0.41528834  1
  O  O249  1  0.72887520  0.10626990  0.91036914  1
  O  O250  1  0.72913608  0.62569556  0.41921761  1
  O  O251  1  0.72482379  0.60438025  0.93055436  1
  O  O252  1  0.22597729  0.39005812  0.42864707  1
  O  O253  1  0.22026252  0.36708354  0.91301406  1
  O  O254  1  0.21444240  0.85101584  0.41777450  1
  O  O255  1  0.22953152  0.87216702  0.91200126  1
  O  O256  1  0.56098511  0.37181965  0.41969658  1
  O  O257  1  0.54646486  0.36678677  0.92394060  1
  O  O258  1  0.57272265  0.86625706  0.42697884  1
  O  O259  1  0.56557451  0.88312434  0.91345901  1
  O  O260  1  0.90628581  0.36556361  0.42534896  1
  O  O261  1  0.89152411  0.35091359  0.91126316  1
  O  O262  1  0.89453980  0.87653639  0.41732336  1
  O  O263  1  0.89678206  0.86587467  0.91098183  1
  O  O264  1  0.06485888  0.37374258  0.41925562  1
  O  O265  1  0.05646034  0.37956740  0.91210759  1
  O  O266  1  0.05655956  0.87773499  0.41833915  1
  O  O267  1  0.06135841  0.88906602  0.91018877  1
  O  O268  1  0.40493255  0.39853568  0.42859653  1
  O  O269  1  0.38159116  0.38344770  0.90846934  1
  O  O270  1  0.38069043  0.86887329  0.42828737  1
  O  O271  1  0.39763138  0.87318883  0.91212693  1
  O  O272  1  0.72292533  0.37142395  0.42591929  1
  O  O273  1  0.73603442  0.39262115  0.92035775  1
  O  O274  1  0.73305634  0.88083273  0.41856331  1
  O  O275  1  0.73031969  0.89018885  0.91214704  1
  O  O276  1  0.23881340  0.13252466  0.42497707  1
  O  O277  1  0.22955631  0.12870071  0.91263063  1
  O  O278  1  0.22990490  0.61791820  0.42024156  1
  O  O279  1  0.22114909  0.63095841  0.90838263  1
  O  O280  1  0.56319786  0.12814895  0.41735318  1
  O  O281  1  0.56524217  0.11841735  0.91240407  1
  O  O282  1  0.56180734  0.63970857  0.41793189  1
  O  O283  1  0.54329041  0.63158956  0.92437855  1
  O  O284  1  0.88735344  0.13319611  0.41755880  1
  O  O285  1  0.89515772  0.13165473  0.90998821  1
  O  O286  1  0.89498184  0.63542671  0.41695564  1
  O  O287  1  0.90124069  0.65128548  0.92101752  1
  O  O288  1  0.17305793  0.00806110  0.07706281  1
  O  O289  1  0.16937108  0.00705247  0.58496799  1
  O  O290  1  0.16496168  0.50566019  0.08576899  1
  O  O291  1  0.17549403  0.49373013  0.58091176  1
  O  O292  1  0.48742398  0.00783706  0.07962501  1
  O  O293  1  0.51331758  -0.00163419  0.58641154  1
  O  O294  1  0.50951661  0.51400100  0.07742326  1
  O  O295  1  0.51178377  0.50224479  0.58524241  1
  O  O296  1  0.82613300  -0.00266983  0.08714046  1
  O  O297  1  0.85809619  -0.00583607  0.58365087  1
  O  O298  1  0.82082286  0.48800771  0.07848083  1
  O  O299  1  0.85650077  0.50558805  0.58530870  1
  O  O300  1  0.00030388  0.26455458  0.07638003  1
  O  O301  1  0.00405032  0.25017470  0.58468606  1
  O  O302  1  -0.00874278  0.73694857  0.08007585  1
  O  O303  1  0.02657420  0.74917402  0.58251606  1
  O  O304  1  0.32809040  0.24309293  0.08096216  1
  O  O305  1  0.35109195  0.24864889  0.58400437  1
  O  O306  1  0.33105356  0.74450515  0.08843514  1
  O  O307  1  0.33421269  0.73834010  0.57530719  1
  O  O308  1  0.66498680  0.23636508  0.07730898  1
  O  O309  1  0.68681931  0.23581975  0.57447943  1
  O  O310  1  0.66853541  0.75692557  0.08975348  1
  O  O311  1  0.68091065  0.75092160  0.58530941  1
  O  O312  1  0.16213275  -0.01430243  0.42752446  1
  O  O313  1  0.16074395  0.00081658  0.91066965  1
  O  O314  1  0.12815209  0.50411086  0.41668305  1
  O  O315  1  0.15033057  0.49847264  0.91459759  1
  O  O316  1  0.48507190  0.00697384  0.42471346  1
  O  O317  1  0.47310366  0.00028980  0.91287134  1
  O  O318  1  0.50502219  0.50751708  0.41914740  1
  O  O319  1  0.47551372  0.49896408  0.91479759  1
  O  O320  1  0.81690472  0.00329818  0.41620937  1
  O  O321  1  0.83684911  -0.00119960  0.91030324  1
  O  O322  1  0.82367023  0.51088833  0.42730093  1
  O  O323  1  0.86101429  0.48903035  0.91555774  1
  O  O324  1  0.32678398  0.24975180  0.42363863  1
  O  O325  1  0.31654414  0.24996986  0.91536260  1
  O  O326  1  0.31319656  0.74030037  0.41578657  1
  O  O327  1  0.31442640  0.74925343  0.91351891  1
  O  O328  1  0.64428686  0.24814162  0.41488608  1
  O  O329  1  0.66470239  0.23564452  0.92042381  1
  O  O330  1  0.66467664  0.75151966  0.41753783  1
  O  O331  1  0.65907510  0.76362874  0.92400825  1
  O  O332  1  0.98936882  0.24699421  0.41839219  1
  O  O333  1  0.99858566  0.24541596  0.90894615  1
  O  O334  1  0.97811558  0.75396501  0.41780801  1
  O  O335  1  1.00767670  0.75592483  0.91053113  1
  O  O336  1  0.21175652  0.08520714  0.19275580  1
  O  O337  1  0.21165347  0.08912045  0.69337697  1
  O  O338  1  0.20522393  0.58295316  0.19661036  1
  O  O339  1  0.21095939  0.57455942  0.69173516  1
  O  O340  1  0.54010566  0.08216077  0.19582733  1
  O  O341  1  0.54359658  0.08215357  0.69506857  1
  O  O342  1  0.54390234  0.58772110  0.19476247  1
  O  O343  1  0.54368151  0.58392775  0.69572999  1
  O  O344  1  0.87062404  0.08367082  0.19317059  1
  O  O345  1  0.87902604  0.07989189  0.69260482  1
  O  O346  1  0.87626098  0.58397853  0.20404321  1
  O  O347  1  0.87773585  0.58725792  0.69338762  1
  O  O348  1  0.04434901  0.33554442  0.19508390  1
  O  O349  1  0.04163678  0.33159942  0.69340431  1
  O  O350  1  0.04250199  0.83343495  0.20252681  1
  O  O351  1  0.04387942  0.83360400  0.69164481  1
  O  O352  1  0.38079097  0.33609005  0.20312435  1
  O  O353  1  0.38038119  0.32544234  0.69474866  1
  O  O354  1  0.38057988  0.83831767  0.18979587  1
  O  O355  1  0.37936354  0.83525331  0.69947071  1
  O  O356  1  0.70689278  0.33316055  0.20036776  1
  O  O357  1  0.71332396  0.33087469  0.69968637  1
  O  O358  1  0.71111397  0.83720235  0.19727039  1
  O  O359  1  0.71354557  0.83265942  0.69582877  1
  O  O360  1  0.20804164  0.42069992  0.19429484  1
  O  O361  1  0.19635929  0.41534639  0.69255194  1
  O  O362  1  0.21089330  0.91499151  0.20126909  1
  O  O363  1  0.21103717  0.91783199  0.69036205  1
  O  O364  1  0.54482064  0.41970799  0.20203697  1
  O  O365  1  0.54032639  0.41680251  0.69302038  1
  O  O366  1  0.54688018  0.91729929  0.20277737  1
  O  O367  1  0.54686597  0.91611108  0.69447880  1
  O  O368  1  0.88150458  0.42155818  0.19372984  1
  O  O369  1  0.87718811  0.41771342  0.69327891  1
  O  O370  1  0.87652360  0.91711769  0.19538090  1
  O  O371  1  0.87999251  0.91442785  0.69332930  1
  O  O372  1  0.04481635  0.17145531  0.20003003  1
  O  O373  1  0.04136124  0.16623774  0.69271972  1
  O  O374  1  0.04137961  0.66392415  0.19501722  1
  O  O375  1  0.03409622  0.66777864  0.69160140  1
  O  O376  1  0.37621601  0.16826810  0.19741238  1
  O  O377  1  0.37651354  0.16515841  0.69423566  1
  O  O378  1  0.38283914  0.66034727  0.19576207  1
  O  O379  1  0.37459005  0.66587400  0.69242829  1
  O  O380  1  0.70986223  0.16076933  0.19290893  1
  O  O381  1  0.71181804  0.16137774  0.69158204  1
  O  O382  1  0.70941715  0.67067351  0.19742985  1
  O  O383  1  0.71133689  0.66913841  0.69448096  1
  O  O384  1  0.12689315  0.08096410  0.29950015  1
  O  O385  1  0.12298006  0.08645998  0.80270027  1
  O  O386  1  0.11938100  0.58535500  0.30767586  1
  O  O387  1  0.11507492  0.57621228  0.80430419  1
  O  O388  1  0.45665108  0.08372702  0.30726192  1
  O  O389  1  0.45602638  0.08285497  0.80339298  1
  O  O390  1  0.46516022  0.58600617  0.30810480  1
  O  O391  1  0.45457153  0.58409412  0.80723392  1
  O  O392  1  0.78825340  0.08292685  0.30569553  1
  O  O393  1  0.79361497  0.08080635  0.80147469  1
  O  O394  1  0.78831359  0.58769066  0.30953326  1
  O  O395  1  0.79043338  0.58380930  0.79902574  1
  O  O396  1  0.28607123  0.33694934  0.30031094  1
  O  O397  1  0.28047133  0.32486632  0.80456280  1
  O  O398  1  0.28476447  0.83569282  0.31026540  1
  O  O399  1  0.28981959  0.83432213  0.80379528  1
  O  O400  1  0.61985251  0.33710029  0.30910553  1
  O  O401  1  0.62103444  0.33041740  0.80002352  1
  O  O402  1  0.62840743  0.83515586  0.30965170  1
  O  O403  1  0.62548522  0.83614858  0.80638510  1
  O  O404  1  0.96258753  0.33210358  0.30858124  1
  O  O405  1  0.95795673  0.33078321  0.80164369  1
  O  O406  1  0.95247104  0.83365444  0.30668980  1
  O  O407  1  0.95889824  0.83649040  0.80214768  1
  O  O408  1  0.12317436  0.41800754  0.30910762  1
  O  O409  1  0.11973681  0.41550595  0.80397146  1
  O  O410  1  0.12125345  0.91501730  0.30991392  1
  O  O411  1  0.12476421  0.91712014  0.80143296  1
  O  O412  1  0.45850147  0.42218753  0.31120877  1
  O  O413  1  0.46451748  0.41605413  0.80714181  1
  O  O414  1  0.45183690  0.91556115  0.30153439  1
  O  O415  1  0.45758778  0.91842970  0.80382326  1
  O  O416  1  0.78640284  0.42166204  0.30004448  1
  O  O417  1  0.79497602  0.41433452  0.80605891  1
  O  O418  1  0.78995403  0.91832241  0.30645336  1
  O  O419  1  0.79375320  0.91624904  0.80280003  1
  O  O420  1  0.29106232  0.16873330  0.30866042  1
  O  O421  1  0.29045877  0.16642072  0.80439249  1
  O  O422  1  0.28222645  0.65646884  0.30786482  1
  O  O423  1  0.29795666  0.66989325  0.80388147  1
  O  O424  1  0.61920780  0.16287333  0.30484566  1
  O  O425  1  0.62564523  0.16150037  0.80438015  1
  O  O426  1  0.62615705  0.66883642  0.30718450  1
  O  O427  1  0.62198535  0.66674478  0.80077827  1
  O  O428  1  0.95242164  0.16686896  0.30821165  1
  O  O429  1  0.95792721  0.16284337  0.80129488  1
  O  O430  1  0.95681607  0.67004291  0.30702011  1
  O  O431  1  0.96000369  0.66926524  0.80557125  1
  F  F432  1  0.04563717  -0.00580842  0.19904437  1
  F  F433  1  0.03927199  0.00001047  0.69643310  1
  F  F434  1  0.04731486  0.49918299  0.20811702  1
  F  F435  1  0.04230178  0.49980391  0.69890846  1
  F  F436  1  0.37674893  0.00306058  0.20370188  1
  F  F437  1  0.38053553  0.00174040  0.69929819  1
  F  F438  1  0.38004598  0.49867475  0.20409617  1
  F  F439  1  0.38336581  0.50919425  0.69973105  1
  F  F440  1  0.71208674  0.00028825  0.20526734  1
  F  F441  1  0.71421985  -0.00229560  0.70075715  1
  F  F442  1  0.70979896  0.50608547  0.20172643  1
  F  F443  1  0.71067801  0.49802840  0.70151298  1
  F  F444  1  0.21153032  0.24998029  0.20343416  1
  F  F445  1  0.20989584  0.24861663  0.69952655  1
  F  F446  1  0.19730255  0.74958657  0.20043296  1
  F  F447  1  0.21540954  0.76036878  0.69483469  1
  F  F448  1  0.53831396  0.25063172  0.20225956  1
  F  F449  1  0.54500794  0.24487753  0.70109900  1
  F  F450  1  0.54810102  0.75147173  0.20471088  1
  F  F451  1  0.54685821  0.75189307  0.70180700  1
  F  F452  1  0.87988727  0.24727761  0.20268403  1
  F  F453  1  0.87914500  0.24761513  0.69939295  1
  F  F454  1  0.87718229  0.75080538  0.20433111  1
  F  F455  1  0.87949685  0.75051519  0.70206493  1
  F  F456  1  0.28818822  0.00200918  0.29918030  1
  F  F457  1  0.29358551  0.00021272  0.79654119  1
  F  F458  1  0.28550237  0.49561267  0.30341593  1
  F  F459  1  0.28007683  0.50975024  0.80212960  1
  F  F460  1  0.62286632  0.00273360  0.30218010  1
  F  F461  1  0.62312830  -0.00066344  0.79610622  1
  F  F462  1  0.62237627  0.50533217  0.30028596  1
  F  F463  1  0.62130999  0.49843877  0.79633883  1
  F  F464  1  0.95082193  -0.00658949  0.30201082  1
  F  F465  1  0.95635459  -0.00083429  0.79622815  1
  F  F466  1  0.95546737  0.49931035  0.30266924  1
  F  F467  1  0.95450114  0.49967441  0.79436322  1
  F  F468  1  0.12259015  0.25310812  0.30098924  1
  F  F469  1  0.11903933  0.24812988  0.79543771  1
  F  F470  1  0.11875810  0.74611584  0.30215415  1
  F  F471  1  0.11908092  0.76192554  0.79825707  1
  F  F472  1  0.45587613  0.24926676  0.30274884  1
  F  F473  1  0.45401493  0.24637457  0.79844123  1
  F  F474  1  0.46864653  0.75181816  0.30435118  1
  F  F475  1  0.45597639  0.75003880  0.79743463  1
  F  F476  1  0.78806191  0.24245259  0.30463627  1
  F  F477  1  0.79181396  0.24340680  0.79638189  1
  F  F478  1  0.78895000  0.75269288  0.29996942  1
  F  F479  1  0.79029905  0.75222839  0.79827622  1
