# generated using pymatgen
data_K24Na3Li5Mg64Fe17Si79(O5F)48
_symmetry_space_group_name_H-M   'P 1'
_cell_length_a   16.11134972
_cell_length_b   18.60842411
_cell_length_c   20.58010331
_cell_angle_alpha   89.98147720
_cell_angle_beta   100.00575580
_cell_angle_gamma   90.05267571
_symmetry_Int_Tables_number   1
_chemical_formula_structural   K24Na3Li5Mg64Fe17Si79(O5F)48
_chemical_formula_sum   'K24 Na3 Li5 Mg64 Fe17 Si79 O240 F48'
_cell_volume   6076.20818135
_cell_formula_units_Z   1
loop_
 _symmetry_equiv_pos_site_id
 _symmetry_equiv_pos_as_xyz
  1  'x, y, z'
loop_
 _atom_site_type_symbol
 _atom_site_label
 _atom_site_symmetry_multiplicity
 _atom_site_fract_x
 _atom_site_fract_y
 _atom_site_fract_z
 _atom_site_occupancy
  K  K0  1  0.00293668  -0.00111089  0.00559075  1
  K  K1  1  0.00855115  0.00412712  0.49607700  1
  K  K2  1  -0.01225921  0.50153124  0.00984768  1
  K  K3  1  -0.02351611  0.49863008  0.49079875  1
  K  K4  1  0.32910224  0.00403944  -0.00662009  1
  K  K5  1  0.33221066  0.01537966  0.50140593  1
  K  K6  1  0.34709481  0.49397103  0.01298303  1
  K  K7  1  0.34122734  0.49666207  0.49202366  1
  K  K8  1  0.66102519  0.00221149  -0.00504587  1
  K  K9  1  0.66093968  0.00551403  0.49527982  1
  K  K10  1  0.66501217  0.50028924  0.02300415  1
  K  K11  1  0.66873201  0.49268810  0.48302760  1
  K  K12  1  0.17333833  0.24508317  0.00620283  1
  K  K13  1  0.16504674  0.24095777  0.49797185  1
  K  K14  1  0.16701643  0.76099101  0.00568507  1
  K  K15  1  0.16143972  0.75149261  0.49466348  1
  K  K16  1  0.50702164  0.24552957  0.00511252  1
  K  K17  1  0.50504980  0.24801156  0.48869602  1
  K  K18  1  0.50862290  0.74826591  0.00226866  1
  K  K19  1  0.50287479  0.75826398  0.49136494  1
  K  K20  1  0.82389786  0.24046460  0.00616846  1
  K  K21  1  0.82868497  0.24888407  0.49897896  1
  K  K22  1  0.82336775  0.75592123  0.01254761  1
  K  K23  1  0.82176245  0.74260009  0.48058850  1
  Na  Na24  1  0.34143969  0.25369454  0.25558117  1
  Na  Na25  1  0.66379272  0.58469213  0.24908649  1
  Na  Na26  1  0.49938408  0.16384112  0.75558078  1
  Li  Li27  1  0.65946738  0.75444520  0.24627862  1
  Li  Li28  1  0.48682506  0.00661764  0.75504600  1
  Li  Li29  1  0.34218085  0.08213223  0.75017088  1
  Li  Li30  1  0.65947533  0.91164937  0.24522565  1
  Li  Li31  1  0.49936019  0.33411186  0.25099230  1
  Mg  Mg32  1  0.33610705  0.24868282  0.75123990  1
  Mg  Mg33  1  0.00093603  0.24937748  0.25360239  1
  Mg  Mg34  1  0.50319010  0.50090331  0.74914048  1
  Mg  Mg35  1  0.33467141  0.75237873  0.75317545  1
  Mg  Mg36  1  0.16798868  0.49847204  0.74544592  1
  Mg  Mg37  1  0.83243161  -0.00326705  0.24853879  1
  Mg  Mg38  1  0.16618544  0.49869140  0.25287018  1
  Mg  Mg39  1  0.00100894  0.75096629  0.74786915  1
  Mg  Mg40  1  0.50211705  0.49646788  0.25224013  1
  Mg  Mg41  1  0.83104511  -0.00024594  0.74830069  1
  Mg  Mg42  1  0.50342063  0.00006117  0.24977017  1
  Mg  Mg43  1  0.16994764  0.00084742  0.25216998  1
  Mg  Mg44  1  0.16797676  0.00084467  0.75308165  1
  Mg  Mg45  1  -0.00025010  0.74970232  0.25276201  1
  Mg  Mg46  1  0.66546683  0.75269128  0.74838172  1
  Mg  Mg47  1  0.66716174  0.24757750  0.74726970  1
  Mg  Mg48  1  0.82919445  0.49766482  0.24995041  1
  Mg  Mg49  1  0.33403735  0.75127106  0.24770391  1
  Mg  Mg50  1  0.66455638  0.24658076  0.24708501  1
  Mg  Mg51  1  0.83553852  0.50134438  0.74243581  1
  Mg  Mg52  1  0.00068692  0.24978941  0.74398569  1
  Mg  Mg53  1  0.00170921  0.91488184  0.25168535  1
  Mg  Mg54  1  0.16560892  0.33347886  0.74513292  1
  Mg  Mg55  1  0.50395996  0.33336920  0.75146917  1
  Mg  Mg56  1  0.83218224  0.16350607  0.25039828  1
  Mg  Mg57  1  0.33580663  0.41527142  0.74717596  1
  Mg  Mg58  1  0.33517861  0.58367315  0.25283258  1
  Mg  Mg59  1  0.50173218  0.66750765  0.25080366  1
  Mg  Mg60  1  0.50178349  0.66753228  0.74963047  1
  Mg  Mg61  1  0.49869297  0.83864378  0.75279283  1
  Mg  Mg62  1  0.66267569  0.41235350  0.25107029  1
  Mg  Mg63  1  0.16561307  0.66525634  0.25169838  1
  Mg  Mg64  1  0.16923835  0.83551202  0.25123302  1
  Mg  Mg65  1  0.16869882  0.33319824  0.25426124  1
  Mg  Mg66  1  0.66084760  0.08447256  0.74953342  1
  Mg  Mg67  1  0.82809464  0.83254427  0.25133329  1
  Mg  Mg68  1  0.66080560  0.91955079  0.75055886  1
  Mg  Mg69  1  0.83388954  0.66636656  0.74436280  1
  Mg  Mg70  1  0.33601087  0.92258442  0.75547223  1
  Mg  Mg71  1  0.83212642  0.83429285  0.74912136  1
  Mg  Mg72  1  0.00089779  0.91636143  0.74983153  1
  Mg  Mg73  1  0.66896838  0.58588086  0.74641448  1
  Mg  Mg74  1  0.82573516  0.66853852  0.25026143  1
  Mg  Mg75  1  0.33572017  0.58403310  0.74890516  1
  Mg  Mg76  1  0.83308896  0.33383504  0.74295838  1
  Mg  Mg77  1  0.16807438  0.66583561  0.74779183  1
  Mg  Mg78  1  0.82976789  0.33276843  0.24784130  1
  Mg  Mg79  1  0.50128846  0.83398456  0.24753131  1
  Mg  Mg80  1  0.33718142  0.41537526  0.25260520  1
  Mg  Mg81  1  -0.00260488  0.41551507  0.25147417  1
  Mg  Mg82  1  0.66391095  0.07875246  0.24746943  1
  Mg  Mg83  1  0.00312563  0.08285113  0.25350748  1
  Mg  Mg84  1  0.00008911  0.08409227  0.74815513  1
  Mg  Mg85  1  -0.00078646  0.41458906  0.74172434  1
  Mg  Mg86  1  0.33460869  0.91632980  0.24980405  1
  Mg  Mg87  1  0.33475675  0.08622532  0.25100942  1
  Mg  Mg88  1  0.16870307  0.83625917  0.75427176  1
  Mg  Mg89  1  -0.00563928  0.58305977  0.25134372  1
  Mg  Mg90  1  0.66920862  0.41597194  0.74826976  1
  Mg  Mg91  1  0.82991108  0.16419487  0.74752959  1
  Mg  Mg92  1  -0.00064031  0.58432889  0.74371239  1
  Mg  Mg93  1  0.17055199  0.16547564  0.74917869  1
  Mg  Mg94  1  0.16995893  0.16625364  0.25498139  1
  Mg  Mg95  1  0.50045792  0.16802397  0.24887892  1
  Fe  Fe96  1  0.47155481  0.91905882  0.89304843  1
  Fe  Fe97  1  0.19621744  0.92296379  0.11178883  1
  Fe  Fe98  1  0.51231054  0.08389082  0.10850216  1
  Fe  Fe99  1  0.68627640  0.16226694  0.60606258  1
  Fe  Fe100  1  0.48074763  0.41723632  0.39330943  1
  Fe  Fe101  1  0.85580772  0.58848154  0.60494570  1
  Fe  Fe102  1  0.64549565  0.16826460  0.89172478  1
  Fe  Fe103  1  0.13750313  0.91911859  0.89029609  1
  Fe  Fe104  1  0.85879614  0.41507591  0.11171795  1
  Fe  Fe105  1  0.52245777  0.41424179  0.11108581  1
  Fe  Fe106  1  0.69259783  0.83936128  0.11140965  1
  Fe  Fe107  1  0.02576859  0.33091817  0.60391599  1
  Fe  Fe108  1  0.14544595  0.08217838  0.39338239  1
  Fe  Fe109  1  0.52037244  0.91671361  0.10899829  1
  Fe  Fe110  1  0.69182802  0.15622444  0.11109015  1
  Fe  Fe111  1  0.35882073  0.82923414  0.10801076  1
  Fe  Fe112  1  0.80176151  0.58329615  0.38873997  1
  Si  Si113  1  0.87077701  0.08220037  0.11565171  1
  Si  Si114  1  0.64766759  0.33981096  0.88642589  1
  Si  Si115  1  0.31022333  0.66164098  0.88440216  1
  Si  Si116  1  0.96857403  0.83228580  0.88552168  1
  Si  Si117  1  0.14016364  0.41651894  0.88164449  1
  Si  Si118  1  0.85747570  0.91066850  0.61356135  1
  Si  Si119  1  0.69087085  0.32755201  0.11008726  1
  Si  Si120  1  0.19140058  0.41481302  0.11781510  1
  Si  Si121  1  0.02603143  0.15834289  0.61104805  1
  Si  Si122  1  0.52058860  0.91579211  0.61443808  1
  Si  Si123  1  0.63343486  0.67755846  0.38802564  1
  Si  Si124  1  0.68550400  0.83739448  0.61387384  1
  Si  Si125  1  0.64271375  0.15893332  0.38474400  1
  Si  Si126  1  0.52630516  0.58514281  0.61357759  1
  Si  Si127  1  0.19546603  0.91720735  0.61641949  1
  Si  Si128  1  0.35366835  0.33627219  0.11353855  1
  Si  Si129  1  0.34910206  0.66155714  0.11373813  1
  Si  Si130  1  0.47359961  0.08379689  0.38644629  1
  Si  Si131  1  0.35407200  0.17237731  0.11428317  1
  Si  Si132  1  0.03393117  0.66808120  0.60999367  1
  Si  Si133  1  0.18650330  0.57820393  0.11720226  1
  Si  Si134  1  0.47286200  0.91896011  0.38775108  1
  Si  Si135  1  0.13874247  0.41663873  0.38821006  1
  Si  Si136  1  0.14101627  0.58318845  0.38718078  1
  Si  Si137  1  0.03022691  0.17095176  0.11986573  1
  Si  Si138  1  0.81125720  0.42147642  0.88070734  1
  Si  Si139  1  0.36624016  0.33366797  0.61382770  1
  Si  Si140  1  0.30235098  0.82709951  0.88922520  1
  Si  Si141  1  0.19109462  0.08993060  0.11551619  1
  Si  Si142  1  0.19606787  0.08247660  0.61735993  1
  Si  Si143  1  0.86051052  0.07687131  0.61096358  1
  Si  Si144  1  0.81188248  0.91617080  0.38677356  1
  Si  Si145  1  0.81244506  0.07733785  0.88630709  1
  Si  Si146  1  0.47772385  0.41859734  0.88339374  1
  Si  Si147  1  0.80544004  0.91276600  0.88283272  1
  Si  Si148  1  0.30992259  0.83016423  0.38801326  1
  Si  Si149  1  0.64639400  0.32283251  0.38755599  1
  Si  Si150  1  0.30551424  0.33791190  0.39137321  1
  Si  Si151  1  0.31133012  0.16881043  0.39102583  1
  Si  Si152  1  0.51816083  0.58592224  0.11413273  1
  Si  Si153  1  0.86841044  0.91587921  0.11451446  1
  Si  Si154  1  0.52916024  0.41997341  0.61513038  1
  Si  Si155  1  0.80632607  0.40996872  0.38778674  1
  Si  Si156  1  0.47601774  0.58865115  0.38986593  1
  Si  Si157  1  0.64095547  0.83116198  0.88612823  1
  Si  Si158  1  0.97583195  0.66584036  0.38835969  1
  Si  Si159  1  0.68892623  0.33412811  0.61146834  1
  Si  Si160  1  0.97269867  0.33383993  0.88040455  1
  Si  Si161  1  0.63931536  0.84065479  0.38560093  1
  Si  Si162  1  0.03183621  0.82997457  0.11684597  1
  Si  Si163  1  0.14166843  0.09127552  0.88658184  1
  Si  Si164  1  0.97428476  0.33256809  0.38652487  1
  Si  Si165  1  0.46732777  0.08756682  0.89083935  1
  Si  Si166  1  0.02801201  0.83424054  0.61361225  1
  Si  Si167  1  0.68709179  0.67364987  0.61064770  1
  Si  Si168  1  0.80942429  0.07983322  0.38657081  1
  Si  Si169  1  0.30707497  0.66540404  0.38665742  1
  Si  Si170  1  0.64648442  0.66580089  0.88333022  1
  Si  Si171  1  0.14105665  0.58172839  0.88198694  1
  Si  Si172  1  0.14392775  0.91153817  0.39141958  1
  Si  Si173  1  0.30908818  0.33851561  0.88317845  1
  Si  Si174  1  0.97208945  0.16800029  0.88214278  1
  Si  Si175  1  0.97769491  0.66801951  0.88218277  1
  Si  Si176  1  0.85357091  0.58530194  0.11182034  1
  Si  Si177  1  0.36175935  0.66745037  0.61457922  1
  Si  Si178  1  0.35773567  0.83132575  0.61532909  1
  Si  Si179  1  0.30489275  0.17432111  0.88550412  1
  Si  Si180  1  0.68833643  0.67196501  0.11294009  1
  Si  Si181  1  0.35750770  0.16882139  0.61632831  1
  Si  Si182  1  0.51899018  0.07789969  0.61258880  1
  Si  Si183  1  0.97529490  0.83190813  0.38741214  1
  Si  Si184  1  0.02897125  0.33369404  0.11650860  1
  Si  Si185  1  0.02293470  0.66519409  0.11671868  1
  Si  Si186  1  0.81178670  0.58519815  0.88142933  1
  Si  Si187  1  0.19851091  0.58290343  0.61279979  1
  Si  Si188  1  0.47901485  0.58370780  0.88398843  1
  Si  Si189  1  0.85279372  0.41718045  0.60696764  1
  Si  Si190  1  0.97189817  0.16664255  0.38986499  1
  Si  Si191  1  0.20025511  0.41661710  0.60938627  1
  O  O192  1  0.27167107  0.12039652  0.08468123  1
  O  O193  1  0.26889850  0.12567267  0.58566876  1
  O  O194  1  0.27055397  0.60222870  0.08800216  1
  O  O195  1  0.27983187  0.61753233  0.58504505  1
  O  O196  1  0.60832008  0.09602072  0.07149960  1
  O  O197  1  0.59087596  0.10621069  0.57179629  1
  O  O198  1  0.60135517  0.62280070  0.08904307  1
  O  O199  1  0.60474037  0.62097459  0.58431324  1
  O  O200  1  0.95611913  0.11416640  0.08958605  1
  O  O201  1  0.94805993  0.10172980  0.58582905  1
  O  O202  1  0.93664895  0.62210347  0.08463717  1
  O  O203  1  0.95403614  0.62230650  0.57553589  1
  O  O204  1  0.11678223  0.35686090  0.08978553  1
  O  O205  1  0.12262516  0.36838335  0.57425774  1
  O  O206  1  0.11012404  0.85430095  0.08361421  1
  O  O207  1  0.10315088  0.87922072  0.58577301  1
  O  O208  1  0.42607537  0.35954684  0.07187743  1
  O  O209  1  0.44826120  0.36842523  0.58661503  1
  O  O210  1  0.45974390  0.83741197  0.07773512  1
  O  O211  1  0.43817555  0.86355101  0.58492753  1
  O  O212  1  0.77632571  0.34826512  0.07997827  1
  O  O213  1  0.77353362  0.36092610  0.58372867  1
  O  O214  1  0.78976338  0.87083422  0.07698470  1
  O  O215  1  0.76991790  0.86563458  0.58545583  1
  O  O216  1  0.27154857  0.39104572  0.08413590  1
  O  O217  1  0.28694397  0.38735210  0.58476606  1
  O  O218  1  0.28132197  0.89699874  0.06827895  1
  O  O219  1  0.26937440  0.87386477  0.58525753  1
  O  O220  1  0.61792944  0.38439865  0.07780335  1
  O  O221  1  0.61280198  0.39407771  0.58703781  1
  O  O222  1  0.61464287  0.90625545  0.07244871  1
  O  O223  1  0.60399144  0.88763344  0.58275087  1
  O  O224  1  0.95799015  0.38769388  0.07980847  1
  O  O225  1  0.93255222  0.39051822  0.57464004  1
  O  O226  1  0.95190248  0.88198392  0.08823491  1
  O  O227  1  0.93606927  0.87176478  0.58477737  1
  O  O228  1  0.11588319  0.15054425  0.09166634  1
  O  O229  1  0.10693034  0.12132472  0.58402788  1
  O  O230  1  0.10295051  0.62815116  0.08751462  1
  O  O231  1  0.11859341  0.63484469  0.58436775  1
  O  O232  1  0.43008052  0.15483424  0.07525597  1
  O  O233  1  0.43200195  0.12634969  0.58647760  1
  O  O234  1  0.43203430  0.63374821  0.08360233  1
  O  O235  1  0.44200137  0.63348129  0.58552032  1
  O  O236  1  0.79322176  0.13006353  0.08060675  1
  O  O237  1  0.78230538  0.12407084  0.57437898  1
  O  O238  1  0.76809727  0.63180219  0.08302613  1
  O  O239  1  0.76656495  0.65316671  0.57722712  1
  O  O240  1  0.05350104  0.12303513  0.42667143  1
  O  O241  1  0.06131946  0.12994400  0.91348038  1
  O  O242  1  0.06734518  0.62495311  0.41793063  1
  O  O243  1  0.06402135  0.62202623  0.91083365  1
  O  O244  1  0.40452209  0.13073476  0.41906931  1
  O  O245  1  0.38349336  0.12470369  0.91811056  1
  O  O246  1  0.39087323  0.61992699  0.41784746  1
  O  O247  1  0.39742739  0.61637029  0.91198467  1
  O  O248  1  0.72755846  0.11128104  0.41521104  1
  O  O249  1  0.73923036  0.10659551  0.92299190  1
  O  O250  1  0.71517935  0.63160255  0.42277628  1
  O  O251  1  0.73076171  0.61707605  0.91115241  1
  O  O252  1  0.22189327  0.37040857  0.42091020  1
  O  O253  1  0.23037725  0.37794932  0.91200239  1
  O  O254  1  0.22974599  0.86258724  0.41871378  1
  O  O255  1  0.21440692  0.84450659  0.91427947  1
  O  O256  1  0.57642448  0.36033663  0.42455375  1
  O  O257  1  0.56408443  0.37545395  0.91232325  1
  O  O258  1  0.56491739  0.88292666  0.41978284  1
  O  O259  1  0.56383953  0.85438658  0.92036479  1
  O  O260  1  0.89810299  0.37045800  0.41632791  1
  O  O261  1  0.89691909  0.37519313  0.90998675  1
  O  O262  1  0.89808485  0.86941533  0.41904059  1
  O  O263  1  0.87891707  0.85312266  0.90939537  1
  O  O264  1  0.05910957  0.38016287  0.41637468  1
  O  O265  1  0.06311072  0.37473554  0.90945430  1
  O  O266  1  0.06443558  0.87208137  0.41978655  1
  O  O267  1  0.03907508  0.88694634  0.92092239  1
  O  O268  1  0.38622757  0.38197060  0.42910385  1
  O  O269  1  0.39516749  0.38559089  0.91056930  1
  O  O270  1  0.39819924  0.87341335  0.41818184  1
  O  O271  1  0.37816311  0.87733279  0.92345102  1
  O  O272  1  0.73833945  0.36049490  0.41909659  1
  O  O273  1  0.72855522  0.39560071  0.91015766  1
  O  O274  1  0.73077924  0.88159324  0.41560282  1
  O  O275  1  0.72330049  0.88354120  0.91187780  1
  O  O276  1  0.24415247  0.13176091  0.43152658  1
  O  O277  1  0.22043954  0.14634211  0.91355199  1
  O  O278  1  0.22859648  0.62741948  0.41660358  1
  O  O279  1  0.23143504  0.62083037  0.91141484  1
  O  O280  1  0.56639642  0.11916029  0.41585117  1
  O  O281  1  0.54424428  0.14342890  0.91796758  1
  O  O282  1  0.54985350  0.64773975  0.41836409  1
  O  O283  1  0.56497521  0.63063001  0.91159561  1
  O  O284  1  0.88940219  0.13224637  0.41756279  1
  O  O285  1  0.89917495  0.12547434  0.91307378  1
  O  O286  1  0.90591188  0.62948031  0.42466185  1
  O  O287  1  0.89749793  0.63156984  0.91030923  1
  O  O288  1  0.15653405  0.01529632  0.08141518  1
  O  O289  1  0.19199232  -0.00059126  0.58718586  1
  O  O290  1  0.16152550  0.49620445  0.08940858  1
  O  O291  1  0.18737050  0.50138734  0.58334468  1
  O  O292  1  0.46103527  -0.00286488  0.08107519  1
  O  O293  1  0.49409894  -0.00520048  0.58328470  1
  O  O294  1  0.50414726  0.50939045  0.07585587  1
  O  O295  1  0.50722344  0.50259779  0.58692117  1
  O  O296  1  0.86405293  -0.00058922  0.08729798  1
  O  O297  1  0.84608487  -0.00777534  0.58431385  1
  O  O298  1  0.84005899  0.50831254  0.07476011  1
  O  O299  1  0.82120441  0.49564989  0.57824984  1
  O  O300  1  0.00436960  0.25133247  0.08968063  1
  O  O301  1  0.00532542  0.23490356  0.57469187  1
  O  O302  1  0.00818036  0.74710422  0.08875482  1
  O  O303  1  0.02886526  0.75256456  0.58330776  1
  O  O304  1  0.31871961  0.25445279  0.09185093  1
  O  O305  1  0.34947916  0.25200807  0.58383434  1
  O  O306  1  0.31479818  0.73601743  0.08016598  1
  O  O307  1  0.34377377  0.74862643  0.58468496  1
  O  O308  1  0.66088703  0.24868833  0.08068263  1
  O  O309  1  0.66031932  0.25817694  0.57757412  1
  O  O310  1  0.67301236  0.74610643  0.07134168  1
  O  O311  1  0.65843693  0.75623825  0.58621217  1
  O  O312  1  0.15814299  -0.01214448  0.42873928  1
  O  O313  1  0.15999209  0.01392060  0.92114653  1
  O  O314  1  0.15083461  0.50038901  0.41651634  1
  O  O315  1  0.14471661  0.49922019  0.91093890  1
  O  O316  1  0.47345023  0.00137164  0.41819237  1
  O  O317  1  0.48733927  0.01100855  0.92971256  1
  O  O318  1  0.49815626  0.51306431  0.42758591  1
  O  O319  1  0.49182354  0.50154885  0.91212952  1
  O  O320  1  0.82739738  -0.00171956  0.41866300  1
  O  O321  1  0.83496954  -0.00724303  0.91149013  1
  O  O322  1  0.81070761  0.48810490  0.42265549  1
  O  O323  1  0.83230171  0.50359864  0.90920606  1
  O  O324  1  0.31856768  0.25342721  0.41590648  1
  O  O325  1  0.32004271  0.25808924  0.91488597  1
  O  O326  1  0.32031215  0.74724604  0.41796514  1
  O  O327  1  0.32449261  0.74178420  0.91372648  1
  O  O328  1  0.65695807  0.23911187  0.41763165  1
  O  O329  1  0.67198931  0.26456167  0.92188752  1
  O  O330  1  0.64701087  0.76047771  0.42092094  1
  O  O331  1  0.66777672  0.74697174  0.91089346  1
  O  O332  1  0.98412547  0.25077906  0.41675572  1
  O  O333  1  0.97778758  0.25177320  0.90972391  1
  O  O334  1  0.98868501  0.74967628  0.41657138  1
  O  O335  1  0.99106297  0.74894891  0.91251363  1
  O  O336  1  0.21136367  0.08599324  0.19635865  1
  O  O337  1  0.20604101  0.08221824  0.69647820  1
  O  O338  1  0.20497499  0.58201078  0.19749225  1
  O  O339  1  0.21386399  0.58303452  0.69355955  1
  O  O340  1  0.54263304  0.08370542  0.20047084  1
  O  O341  1  0.54673093  0.07576016  0.69090255  1
  O  O342  1  0.52817219  0.58278776  0.19367453  1
  O  O343  1  0.54414156  0.58561632  0.69429079  1
  O  O344  1  0.88367609  0.08211391  0.19671278  1
  O  O345  1  0.87626870  0.07995263  0.69206857  1
  O  O346  1  0.87686433  0.58372377  0.19220977  1
  O  O347  1  0.87943563  0.58585186  0.69747577  1
  O  O348  1  0.04445257  0.33463003  0.19750697  1
  O  O349  1  0.04579411  0.33332904  0.69627952  1
  O  O350  1  0.04658206  0.83039884  0.19803881  1
  O  O351  1  0.04317336  0.83221050  0.69378647  1
  O  O352  1  0.37451601  0.34391549  0.19198512  1
  O  O353  1  0.38026740  0.33584947  0.69414633  1
  O  O354  1  0.37490946  0.83349495  0.20099856  1
  O  O355  1  0.37528313  0.82930153  0.69503577  1
  O  O356  1  0.71024384  0.32920472  0.19216756  1
  O  O357  1  0.71004956  0.33545656  0.69280466  1
  O  O358  1  0.71360549  0.83469256  0.20064047  1
  O  O359  1  0.70793820  0.83522665  0.69422915  1
  O  O360  1  0.20835909  0.41736552  0.19811025  1
  O  O361  1  0.21355422  0.41771570  0.69077880  1
  O  O362  1  0.21208124  0.91767226  0.20446427  1
  O  O363  1  0.21120469  0.91386112  0.69601232  1
  O  O364  1  0.54509723  0.41708996  0.20074287  1
  O  O365  1  0.54561510  0.42086704  0.69566100  1
  O  O366  1  0.53880257  0.91757447  0.19905225  1
  O  O367  1  0.54516175  0.90859666  0.69301636  1
  O  O368  1  0.87976508  0.41585780  0.20333190  1
  O  O369  1  0.87584390  0.41710629  0.68921107  1
  O  O370  1  0.88191018  0.91463505  0.19551794  1
  O  O371  1  0.87675508  0.91279006  0.69405059  1
  O  O372  1  0.04421088  0.16917027  0.20012345  1
  O  O373  1  0.04378182  0.16449235  0.69211690  1
  O  O374  1  0.04244235  0.66416889  0.19720835  1
  O  O375  1  0.04755344  0.66725028  0.69122169  1
  O  O376  1  0.37813460  0.16174789  0.19352988  1
  O  O377  1  0.36927385  0.17286425  0.69436934  1
  O  O378  1  0.36902275  0.66382788  0.19476490  1
  O  O379  1  0.37843211  0.66636418  0.69501758  1
  O  O380  1  0.71440459  0.16212443  0.20286173  1
  O  O381  1  0.71336249  0.16449794  0.69716907  1
  O  O382  1  0.71376654  0.67618019  0.19149990  1
  O  O383  1  0.70728387  0.66961612  0.69190093  1
  O  O384  1  0.12321407  0.08232221  0.30222251  1
  O  O385  1  0.12139714  0.08716064  0.80546265  1
  O  O386  1  0.12270341  0.58308140  0.30701697  1
  O  O387  1  0.12423197  0.58258631  0.80132787  1
  O  O388  1  0.45455498  0.08274760  0.30717679  1
  O  O389  1  0.44658331  0.07812934  0.81240639  1
  O  O390  1  0.45529120  0.58598118  0.30932871  1
  O  O391  1  0.45970648  0.58431296  0.80326399  1
  O  O392  1  0.79606466  0.07904798  0.30710637  1
  O  O393  1  0.79558593  0.07989296  0.80550023  1
  O  O394  1  0.79976225  0.58221435  0.30009926  1
  O  O395  1  0.79087867  0.58606409  0.80116272  1
  O  O396  1  0.28434408  0.34444190  0.31191221  1
  O  O397  1  0.28843333  0.33870906  0.80267577  1
  O  O398  1  0.29002859  0.83019296  0.30854149  1
  O  O399  1  0.28884690  0.82880614  0.80718200  1
  O  O400  1  0.63302594  0.32632205  0.30821580  1
  O  O401  1  0.62723971  0.33905215  0.80532869  1
  O  O402  1  0.61640579  0.83780617  0.30772067  1
  O  O403  1  0.62405889  0.83114908  0.80488532  1
  O  O404  1  0.95907946  0.33164066  0.30664951  1
  O  O405  1  0.95570488  0.33490066  0.80019586  1
  O  O406  1  0.96045686  0.83359458  0.30750162  1
  O  O407  1  0.95520321  0.83158586  0.80412082  1
  O  O408  1  0.12148034  0.41762084  0.30785338  1
  O  O409  1  0.12451489  0.41823619  0.80130767  1
  O  O410  1  0.12415189  0.91363145  0.31103384  1
  O  O411  1  0.11810934  0.91701304  0.79820289  1
  O  O412  1  0.45192885  0.42108018  0.30446222  1
  O  O413  1  0.45835924  0.42097570  0.80281489  1
  O  O414  1  0.45414559  0.91770775  0.30859153  1
  O  O415  1  0.45338041  0.91331389  0.80186891  1
  O  O416  1  0.78926908  0.41178319  0.30753019  1
  O  O417  1  0.79371386  0.41979262  0.80010460  1
  O  O418  1  0.80200061  0.91691137  0.30830069  1
  O  O419  1  0.78867900  0.91424986  0.80214420  1
  O  O420  1  0.28712982  0.16014761  0.31196701  1
  O  O421  1  0.28532575  0.17639541  0.80606229  1
  O  O422  1  0.28740884  0.66596753  0.30663670  1
  O  O423  1  0.29120980  0.66244058  0.80347690  1
  O  O424  1  0.62636258  0.16236941  0.30576446  1
  O  O425  1  0.63502537  0.16934185  0.80211918  1
  O  O426  1  0.61518243  0.67550019  0.30940949  1
  O  O427  1  0.62548165  0.66545262  0.80267306  1
  O  O428  1  0.95747914  0.16523186  0.30924243  1
  O  O429  1  0.95557711  0.16728312  0.80141912  1
  O  O430  1  0.96145707  0.66574035  0.30790766  1
  O  O431  1  0.95992905  0.66740072  0.80178665  1
  F  F432  1  0.04676554  -0.00287547  0.20492906  1
  F  F433  1  0.04388240  0.00090171  0.69996812  1
  F  F434  1  0.04526902  0.50067469  0.20464426  1
  F  F435  1  0.04848493  0.50126439  0.69776951  1
  F  F436  1  0.37710809  0.00097230  0.20659023  1
  F  F437  1  0.36743698  -0.00311141  0.69726658  1
  F  F438  1  0.37249071  0.50300557  0.20394804  1
  F  F439  1  0.38107490  0.50221062  0.70046704  1
  F  F440  1  0.71733873  0.00171581  0.20204968  1
  F  F441  1  0.71330538  -0.00299182  0.69987009  1
  F  F442  1  0.71478991  0.48733846  0.19881128  1
  F  F443  1  0.71138878  0.50218233  0.69998134  1
  F  F444  1  0.20173166  0.25080869  0.20641521  1
  F  F445  1  0.21228295  0.25220096  0.70016613  1
  F  F446  1  0.20918481  0.74783707  0.20503143  1
  F  F447  1  0.21368547  0.74901972  0.70233165  1
  F  F448  1  0.54731803  0.24574658  0.20018943  1
  F  F449  1  0.54969805  0.26267416  0.69865990  1
  F  F450  1  0.53575920  0.74885828  0.20095640  1
  F  F451  1  0.54400666  0.74930846  0.70184196  1
  F  F452  1  0.88236559  0.24766804  0.20482193  1
  F  F453  1  0.87950293  0.24877056  0.69835319  1
  F  F454  1  0.88291354  0.74966097  0.20446701  1
  F  F455  1  0.87939942  0.75169356  0.69967388  1
  F  F456  1  0.29007331  0.00111885  0.30283972  1
  F  F457  1  0.27997802  -0.00646080  0.80445796  1
  F  F458  1  0.28444077  0.50384423  0.30141236  1
  F  F459  1  0.28946965  0.50008427  0.79560188  1
  F  F460  1  0.62136470  0.00388460  0.30392406  1
  F  F461  1  0.63176203  -0.00032293  0.80116415  1
  F  F462  1  0.61991189  0.49123584  0.30566832  1
  F  F463  1  0.62444124  0.50348922  0.79654365  1
  F  F464  1  0.95707363  -0.00169455  0.29985710  1
  F  F465  1  0.95334152  -0.00024578  0.79482603  1
  F  F466  1  0.95822811  0.50033087  0.30166608  1
  F  F467  1  0.95837738  0.49846302  0.79373184  1
  F  F468  1  0.12024657  0.25189184  0.30497295  1
  F  F469  1  0.12051964  0.25054471  0.79587513  1
  F  F470  1  0.12215598  0.74827717  0.30096450  1
  F  F471  1  0.12083109  0.74642085  0.79597368  1
  F  F472  1  0.47048769  0.24299795  0.30812509  1
  F  F473  1  0.44970386  0.26606152  0.80371316  1
  F  F474  1  0.44982307  0.74755276  0.30050359  1
  F  F475  1  0.45585786  0.74624893  0.79858315  1
  F  F476  1  0.79247664  0.24922589  0.29916987  1
  F  F477  1  0.79341108  0.25415266  0.79487148  1
  F  F478  1  0.80534142  0.75017064  0.30822147  1
  F  F479  1  0.78815623  0.74822111  0.79431103  1
