# generated using pymatgen
data_K24Na3Li5Mg64Fe17Si79(O5F)48
_symmetry_space_group_name_H-M   'P 1'
_cell_length_a   16.11227778
_cell_length_b   18.60817948
_cell_length_c   20.57503034
_cell_angle_alpha   89.97853427
_cell_angle_beta   99.99737393
_cell_angle_gamma   90.04585372
_symmetry_Int_Tables_number   1
_chemical_formula_structural   K24Na3Li5Mg64Fe17Si79(O5F)48
_chemical_formula_sum   'K24 Na3 Li5 Mg64 Fe17 Si79 O240 F48'
_cell_volume   6075.13772617
_cell_formula_units_Z   1
loop_
 _symmetry_equiv_pos_site_id
 _symmetry_equiv_pos_as_xyz
  1  'x, y, z'
loop_
 _atom_site_type_symbol
 _atom_site_label
 _atom_site_symmetry_multiplicity
 _atom_site_fract_x
 _atom_site_fract_y
 _atom_site_fract_z
 _atom_site_occupancy
  K  K0  1  -0.00376098  0.00056743  -0.01012955  1
  K  K1  1  0.00362660  0.01113855  0.51165572  1
  K  K2  1  0.00343899  0.49419383  -0.00269989  1
  K  K3  1  -0.00531530  0.49608473  0.50031912  1
  K  K4  1  0.33113318  -0.00111607  -0.00409769  1
  K  K5  1  0.33063935  0.00596265  0.50659397  1
  K  K6  1  0.32724871  0.49609926  0.00324905  1
  K  K7  1  0.33504300  0.50347744  0.50214705  1
  K  K8  1  0.67170281  0.01086578  -0.01045078  1
  K  K9  1  0.67638075  0.00463964  0.50986138  1
  K  K10  1  0.67328309  0.49948137  -0.00117767  1
  K  K11  1  0.66808777  0.50064936  0.50304041  1
  K  K12  1  0.15632958  0.25360888  -0.00024565  1
  K  K13  1  0.14968054  0.25210155  0.49681878  1
  K  K14  1  0.16660393  0.73179918  -0.00234076  1
  K  K15  1  0.15344344  0.74240053  0.51252661  1
  K  K16  1  0.51701328  0.25718056  0.00178054  1
  K  K17  1  0.50340697  0.25379652  0.50280149  1
  K  K18  1  0.49523781  0.74357159  -0.01178112  1
  K  K19  1  0.50539761  0.74063197  0.51179098  1
  K  K20  1  0.83019518  0.24713827  -0.00001151  1
  K  K21  1  0.85472302  0.25423044  0.50152301  1
  K  K22  1  0.83035989  0.74563800  -0.00870321  1
  K  K23  1  0.84587781  0.74606665  0.51544014  1
  Na  Na24  1  0.50496835  0.00203443  0.75510154  1
  Na  Na25  1  0.83446363  0.66774194  0.74790747  1
  Na  Na26  1  0.50266543  0.66818688  0.74647861  1
  Li  Li27  1  0.00518908  0.25206573  0.25788638  1
  Li  Li28  1  0.84358703  0.00222688  0.74996529  1
  Li  Li29  1  -0.00618491  0.08236491  0.74679111  1
  Li  Li30  1  0.00385520  0.40925830  0.25500745  1
  Li  Li31  1  0.15581632  0.33260264  0.25438044  1
  Mg  Mg32  1  -0.00097335  0.74993639  0.24924457  1
  Mg  Mg33  1  0.33010612  0.25135422  0.24951987  1
  Mg  Mg34  1  0.66789871  0.75085154  0.74797961  1
  Mg  Mg35  1  0.16591363  0.49986805  0.74960470  1
  Mg  Mg36  1  0.83290318  0.00269643  0.25143454  1
  Mg  Mg37  1  0.33450855  0.24778860  0.75144006  1
  Mg  Mg38  1  0.16384703  0.00298616  0.24937357  1
  Mg  Mg39  1  0.33509542  0.75071697  0.74761395  1
  Mg  Mg40  1  0.00206156  0.75062181  0.74672404  1
  Mg  Mg41  1  0.16539683  0.00029731  0.74476106  1
  Mg  Mg42  1  0.33118470  0.74769667  0.24549660  1
  Mg  Mg43  1  0.66368116  0.74978877  0.25172955  1
  Mg  Mg44  1  -0.00009560  0.24571661  0.75245026  1
  Mg  Mg45  1  0.67047455  0.25365278  0.25091098  1
  Mg  Mg46  1  0.49853165  0.00195496  0.24999927  1
  Mg  Mg47  1  0.83642583  0.49914127  0.25625929  1
  Mg  Mg48  1  0.50003087  0.49852687  0.24765527  1
  Mg  Mg49  1  0.16394554  0.49447504  0.24342890  1
  Mg  Mg50  1  0.83508712  0.50003096  0.75262231  1
  Mg  Mg51  1  0.50060238  0.50093967  0.74739055  1
  Mg  Mg52  1  0.66759770  0.24705653  0.75420848  1
  Mg  Mg53  1  0.33517457  0.08286383  0.75082811  1
  Mg  Mg54  1  0.67099059  0.91936157  0.75032128  1
  Mg  Mg55  1  0.83876279  0.16984100  0.24871302  1
  Mg  Mg56  1  0.16122389  0.17219664  0.25072126  1
  Mg  Mg57  1  0.50204800  0.83517878  0.74989835  1
  Mg  Mg58  1  0.49558694  0.83489287  0.24728378  1
  Mg  Mg59  1  0.00007364  0.58194300  0.25099014  1
  Mg  Mg60  1  -0.00000975  0.41394032  0.75253884  1
  Mg  Mg61  1  0.33548813  0.91787525  0.74689813  1
  Mg  Mg62  1  0.67125388  0.08170029  0.75430167  1
  Mg  Mg63  1  0.16547778  0.83471120  0.74521374  1
  Mg  Mg64  1  0.32963118  0.08535460  0.24921909  1
  Mg  Mg65  1  0.33357285  0.41558034  0.74942889  1
  Mg  Mg66  1  0.50000072  0.16732885  0.25098832  1
  Mg  Mg67  1  -0.00322047  0.08820938  0.24925263  1
  Mg  Mg68  1  0.33362385  0.58505834  0.74508008  1
  Mg  Mg69  1  -0.00134003  0.91975356  0.74402574  1
  Mg  Mg70  1  0.66551262  0.58420102  0.25237036  1
  Mg  Mg71  1  0.50427671  0.16489438  0.75433534  1
  Mg  Mg72  1  0.66875378  0.08650686  0.25127747  1
  Mg  Mg73  1  0.83323365  0.66637506  0.25384197  1
  Mg  Mg74  1  0.16430287  0.66537875  0.74633871  1
  Mg  Mg75  1  0.16432745  0.83377077  0.24834732  1
  Mg  Mg76  1  0.16488307  0.66238895  0.24562046  1
  Mg  Mg77  1  0.83596648  0.83678252  0.74647437  1
  Mg  Mg78  1  0.83090641  0.83460587  0.25062668  1
  Mg  Mg79  1  0.00116953  0.58588198  0.75108819  1
  Mg  Mg80  1  0.32979303  0.58230891  0.24421111  1
  Mg  Mg81  1  0.50050736  0.33474631  0.24992907  1
  Mg  Mg82  1  0.84189331  0.33796282  0.25394123  1
  Mg  Mg83  1  0.83625322  0.33126097  0.75504437  1
  Mg  Mg84  1  0.16597276  0.33247973  0.75081378  1
  Mg  Mg85  1  0.32969146  0.91607019  0.24718792  1
  Mg  Mg86  1  0.32876437  0.41362107  0.24654093  1
  Mg  Mg87  1  -0.00330985  0.91721111  0.24889269  1
  Mg  Mg88  1  0.66485572  0.91696824  0.25106494  1
  Mg  Mg89  1  0.83764847  0.16099151  0.75263112  1
  Mg  Mg90  1  0.66747528  0.58568875  0.74760226  1
  Mg  Mg91  1  0.66855508  0.41708604  0.25292287  1
  Mg  Mg92  1  0.66921201  0.41630024  0.75332872  1
  Mg  Mg93  1  0.16377553  0.16398833  0.74950208  1
  Mg  Mg94  1  0.49517032  0.66513285  0.24577242  1
  Mg  Mg95  1  0.50180688  0.33391324  0.75150987  1
  Fe  Fe96  1  0.80839146  0.41970067  0.39550368  1
  Fe  Fe97  1  0.64446622  0.16756857  0.89425573  1
  Fe  Fe98  1  0.18908120  0.57552474  0.10625364  1
  Fe  Fe99  1  0.36123644  0.67061285  0.10560038  1
  Fe  Fe100  1  0.02345232  0.83745172  0.60573838  1
  Fe  Fe101  1  0.97494707  0.32639982  0.89201874  1
  Fe  Fe102  1  0.52405418  0.41661349  0.11086037  1
  Fe  Fe103  1  0.85517045  0.07569352  0.10862869  1
  Fe  Fe104  1  0.52667151  0.58106184  0.60679378  1
  Fe  Fe105  1  0.02503118  0.16760896  0.61195099  1
  Fe  Fe106  1  0.02180965  0.65961560  0.60448453  1
  Fe  Fe107  1  0.14243657  0.58284456  0.88808316  1
  Fe  Fe108  1  0.80789741  0.58533586  0.89085281  1
  Fe  Fe109  1  0.01850178  0.33051281  0.11754371  1
  Fe  Fe110  1  0.02290071  0.16239647  0.10773662  1
  Fe  Fe111  1  0.97733087  0.16577791  0.39175509  1
  Fe  Fe112  1  0.85264024  0.57710107  0.60909979  1
  Si  Si113  1  0.35874762  0.32531300  0.11239081  1
  Si  Si114  1  0.30777397  0.82972021  0.38338647  1
  Si  Si115  1  0.86065375  0.42434588  0.11805374  1
  Si  Si116  1  0.80285088  0.08025186  0.38961383  1
  Si  Si117  1  0.97491273  0.83655833  0.38465080  1
  Si  Si118  1  0.69225687  0.66516727  0.11848966  1
  Si  Si119  1  0.14646825  0.07936491  0.88322504  1
  Si  Si120  1  0.35948460  0.16091340  0.11631562  1
  Si  Si121  1  0.47026237  0.41891842  0.88438853  1
  Si  Si122  1  0.80736934  0.41535790  0.89038251  1
  Si  Si123  1  0.19877394  0.08509693  0.61260619  1
  Si  Si124  1  0.19734951  0.41473810  0.61478911  1
  Si  Si125  1  0.14726020  0.41358241  0.88849844  1
  Si  Si126  1  0.52879571  0.58684903  0.11241572  1
  Si  Si127  1  0.98029832  0.33866051  0.39307528  1
  Si  Si128  1  0.97566715  0.67062500  0.38556302  1
  Si  Si129  1  0.85370920  0.08479701  0.61359203  1
  Si  Si130  1  0.63444536  0.67008072  0.38529542  1
  Si  Si131  1  0.14069384  0.58599638  0.38584351  1
  Si  Si132  1  0.30946641  0.32940582  0.88488370  1
  Si  Si133  1  0.47016706  0.08440900  0.89040619  1
  Si  Si134  1  0.52600799  0.92058447  0.11465984  1
  Si  Si135  1  0.97972434  0.15717128  0.88738734  1
  Si  Si136  1  0.63940754  0.66803700  0.88766951  1
  Si  Si137  1  0.47408603  0.91690863  0.88497670  1
  Si  Si138  1  0.46988772  0.08385167  0.38581026  1
  Si  Si139  1  0.30722643  0.16901965  0.38609745  1
  Si  Si140  1  0.19790765  0.57953976  0.60906658  1
  Si  Si141  1  0.46986364  0.91838536  0.38435626  1
  Si  Si142  1  0.36559116  0.16419621  0.61638144  1
  Si  Si143  1  0.63882616  0.33954314  0.88849127  1
  Si  Si144  1  0.35419476  0.84172323  0.10986739  1
  Si  Si145  1  0.97886679  0.67335421  0.88917618  1
  Si  Si146  1  0.18578331  0.91970154  0.11419628  1
  Si  Si147  1  0.02005935  0.83468761  0.11433742  1
  Si  Si148  1  0.36260904  0.83631147  0.61246630  1
  Si  Si149  1  0.19171061  0.40587686  0.11154859  1
  Si  Si150  1  0.69148127  0.32624860  0.61875378  1
  Si  Si151  1  0.80549315  0.59322623  0.38982363  1
  Si  Si152  1  0.30957555  0.67018422  0.88245392  1
  Si  Si153  1  0.63693773  0.16367757  0.38685272  1
  Si  Si154  1  0.52821670  0.91747483  0.61551301  1
  Si  Si155  1  0.14395541  0.91443329  0.38445300  1
  Si  Si156  1  0.69077738  0.16377374  0.61636479  1
  Si  Si157  1  0.47243843  0.58055685  0.38305254  1
  Si  Si158  1  0.80437636  0.91380489  0.38609977  1
  Si  Si159  1  0.84854822  0.90941473  0.11316099  1
  Si  Si160  1  0.02164865  0.66865879  0.11331806  1
  Si  Si161  1  0.19869763  0.91907775  0.60989788  1
  Si  Si162  1  0.02595477  0.33943393  0.61432690  1
  Si  Si163  1  0.30744963  0.66554397  0.38383589  1
  Si  Si164  1  0.69798522  0.33866744  0.11577599  1
  Si  Si165  1  0.14451034  0.42161420  0.38486195  1
  Si  Si166  1  0.81215263  0.07785200  0.88762380  1
  Si  Si167  1  0.14666443  0.91696151  0.88287242  1
  Si  Si168  1  0.52907998  0.08670569  0.11624445  1
  Si  Si169  1  0.19397503  0.08414480  0.11364220  1
  Si  Si170  1  0.64082040  0.83454198  0.88561112  1
  Si  Si171  1  0.52890800  0.08275177  0.61672005  1
  Si  Si172  1  0.85645807  0.58759385  0.11850259  1
  Si  Si173  1  0.36040498  0.32784710  0.61555951  1
  Si  Si174  1  0.46992500  0.58260103  0.88187278  1
  Si  Si175  1  0.85212024  0.41055473  0.61669023  1
  Si  Si176  1  0.98002146  0.83720680  0.88362558  1
  Si  Si177  1  0.85452482  0.92083458  0.61026480  1
  Si  Si178  1  0.69030697  0.83845063  0.61237170  1
  Si  Si179  1  0.30678418  0.16491656  0.88628088  1
  Si  Si180  1  0.35566218  0.67114456  0.60956872  1
  Si  Si181  1  0.47081623  0.41467198  0.38525634  1
  Si  Si182  1  0.68772820  0.67345334  0.60773279  1
  Si  Si183  1  0.69330618  0.17224642  0.11546941  1
  Si  Si184  1  0.80968079  0.91216153  0.88306880  1
  Si  Si185  1  0.14736524  0.07899662  0.38848138  1
  Si  Si186  1  0.63512309  0.83494899  0.38538962  1
  Si  Si187  1  0.63752235  0.32994948  0.39034141  1
  Si  Si188  1  0.52565830  0.41158751  0.61255962  1
  Si  Si189  1  0.30628280  0.33479126  0.38497277  1
  Si  Si190  1  0.31082492  0.83476962  0.88204750  1
  Si  Si191  1  0.68579590  0.82762717  0.11655109  1
  O  O192  1  0.28597560  0.10171968  0.08981665  1
  O  O193  1  0.28385962  0.11594670  0.58563168  1
  O  O194  1  0.27913869  0.60782976  0.06835392  1
  O  O195  1  0.27150427  0.62379016  0.57827945  1
  O  O196  1  0.60426625  0.12725962  0.08786352  1
  O  O197  1  0.60745949  0.11472156  0.58363420  1
  O  O198  1  0.62183649  0.60529053  0.09009305  1
  O  O199  1  0.60929850  0.62671200  0.56706066  1
  O  O200  1  0.95129200  0.08726805  0.07386551  1
  O  O201  1  0.92826058  0.11425075  0.57679906  1
  O  O202  1  0.93559439  0.62094479  0.08771547  1
  O  O203  1  0.93525776  0.60280570  0.56205889  1
  O  O204  1  0.12052240  0.34612804  0.08647400  1
  O  O205  1  0.10388452  0.38222048  0.58553814  1
  O  O206  1  0.10164741  0.87022210  0.08662028  1
  O  O207  1  0.11927346  0.87463513  0.57256610  1
  O  O208  1  0.43847256  0.34885622  0.07891143  1
  O  O209  1  0.44068189  0.36053052  0.58581116  1
  O  O210  1  0.43456514  0.88435312  0.08490631  1
  O  O211  1  0.44468167  0.86878818  0.58341585  1
  O  O212  1  0.78232685  0.36828994  0.08908315  1
  O  O213  1  0.77706903  0.34944970  0.59136862  1
  O  O214  1  0.77243978  0.84874380  0.08956150  1
  O  O215  1  0.76826176  0.87273525  0.58074106  1
  O  O216  1  0.27830415  0.37652608  0.08402921  1
  O  O217  1  0.27079415  0.36780223  0.58596249  1
  O  O218  1  0.26956545  0.89231481  0.08566155  1
  O  O219  1  0.28425880  0.88952149  0.58263919  1
  O  O220  1  0.62083400  0.38782656  0.07853215  1
  O  O221  1  0.60745913  0.37355765  0.58664824  1
  O  O222  1  0.60382063  0.87905847  0.08741222  1
  O  O223  1  0.60687529  0.88826661  0.58123089  1
  O  O224  1  0.94106408  0.40580481  0.08471916  1
  O  O225  1  0.93863848  0.38548311  0.58930865  1
  O  O226  1  0.93453929  0.88095238  0.08642265  1
  O  O227  1  0.92811908  0.89491646  0.57100185  1
  O  O228  1  0.12693933  0.14001995  0.07705238  1
  O  O229  1  0.11935050  0.13120074  0.57778330  1
  O  O230  1  0.09745646  0.64015979  0.07968887  1
  O  O231  1  0.11063688  0.61149665  0.57145536  1
  O  O232  1  0.44204060  0.13007336  0.08724961  1
  O  O233  1  0.44479608  0.13081245  0.58507446  1
  O  O234  1  0.46815761  0.65265653  0.08288512  1
  O  O235  1  0.43111590  0.63951156  0.57571316  1
  O  O236  1  0.76468896  0.13944794  0.07894544  1
  O  O237  1  0.76789651  0.13315102  0.58259336  1
  O  O238  1  0.77865727  0.64419351  0.09145800  1
  O  O239  1  0.77236403  0.64965441  0.58121433  1
  O  O240  1  0.07388336  0.10802479  0.42469176  1
  O  O241  1  0.06304567  0.10450678  0.91146204  1
  O  O242  1  0.06254022  0.62600910  0.41494786  1
  O  O243  1  0.05416880  0.62124666  0.92596404  1
  O  O244  1  0.39801991  0.12836129  0.41656386  1
  O  O245  1  0.38533495  0.11281955  0.91908850  1
  O  O246  1  0.39381498  0.61919277  0.41208092  1
  O  O247  1  0.39391533  0.62192257  0.91238110  1
  O  O248  1  0.72106664  0.11748505  0.41677943  1
  O  O249  1  0.74216099  0.11453702  0.92545004  1
  O  O250  1  0.72850145  0.64041966  0.41484274  1
  O  O251  1  0.71823097  0.62576524  0.93005536  1
  O  O252  1  0.23295255  0.37749393  0.41591664  1
  O  O253  1  0.22775458  0.35687358  0.91393826  1
  O  O254  1  0.22701397  0.86347616  0.41192434  1
  O  O255  1  0.23038912  0.86742456  0.91296823  1
  O  O256  1  0.55504408  0.36796525  0.41580656  1
  O  O257  1  0.55512484  0.37395745  0.91451616  1
  O  O258  1  0.56178203  0.88180464  0.41357114  1
  O  O259  1  0.56458598  0.87719363  0.91567636  1
  O  O260  1  0.91174371  0.37836043  0.43164252  1
  O  O261  1  0.87489191  0.35404934  0.92062289  1
  O  O262  1  0.89461439  0.87295413  0.41253273  1
  O  O263  1  0.89873599  0.86977154  0.91407907  1
  O  O264  1  0.07081106  0.38376401  0.41830600  1
  O  O265  1  0.06897892  0.38581064  0.92166579  1
  O  O266  1  0.06143384  0.88228906  0.41233941  1
  O  O267  1  0.06415785  0.88756037  0.91245821  1
  O  O268  1  0.39476290  0.37730557  0.41770635  1
  O  O269  1  0.39169056  0.38030825  0.91317147  1
  O  O270  1  0.39401775  0.87594271  0.41272910  1
  O  O271  1  0.39531866  0.88107530  0.91626083  1
  O  O272  1  0.72054327  0.36941447  0.42814552  1
  O  O273  1  0.71547882  0.39583960  0.91377278  1
  O  O274  1  0.72828680  0.86927707  0.41373200  1
  O  O275  1  0.73255493  0.87260425  0.91543564  1
  O  O276  1  0.23628195  0.12364187  0.41710292  1
  O  O277  1  0.22537461  0.13339521  0.91583154  1
  O  O278  1  0.22870754  0.63125216  0.41484027  1
  O  O279  1  0.23282963  0.64582444  0.91720355  1
  O  O280  1  0.56029743  0.12124120  0.41556319  1
  O  O281  1  0.55149702  0.12742526  0.92822631  1
  O  O282  1  0.56009830  0.62437716  0.41289260  1
  O  O283  1  0.55349529  0.63148063  0.90939067  1
  O  O284  1  0.88654445  0.11979673  0.42489041  1
  O  O285  1  0.90413937  0.11457647  0.91656722  1
  O  O286  1  0.89358114  0.63992976  0.41354411  1
  O  O287  1  0.89309706  0.65403541  0.91699534  1
  O  O288  1  0.16793153  0.00118546  0.08609868  1
  O  O289  1  0.19044533  0.00274986  0.58293850  1
  O  O290  1  0.16486945  0.48208152  0.07461965  1
  O  O291  1  0.20661417  0.49493617  0.58447288  1
  O  O292  1  0.52209313  0.00364471  0.08707881  1
  O  O293  1  0.50892419  0.00062512  0.58724145  1
  O  O294  1  0.49565965  0.51051357  0.08016204  1
  O  O295  1  0.50657631  0.48597008  0.57268226  1
  O  O296  1  0.81356604  -0.01743190  0.07836807  1
  O  O297  1  0.82723696  0.00324902  0.58466089  1
  O  O298  1  0.82914359  0.50742051  0.09067664  1
  O  O299  1  0.81606504  0.48333263  0.58025003  1
  O  O300  1  -0.02395760  0.24834779  0.07451435  1
  O  O301  1  0.01498148  0.26256002  0.57792155  1
  O  O302  1  0.00155772  0.75295004  0.08670676  1
  O  O303  1  0.00937280  0.74945035  0.56358233  1
  O  O304  1  0.33467388  0.24100895  0.08717329  1
  O  O305  1  0.35048286  0.24565593  0.58614030  1
  O  O306  1  0.33803537  0.76651017  0.07282920  1
  O  O307  1  0.34060453  0.75571897  0.58178901  1
  O  O308  1  0.67582107  0.25536469  0.08956207  1
  O  O309  1  0.66691704  0.24544037  0.58830433  1
  O  O310  1  0.66118870  0.74581788  0.08995750  1
  O  O311  1  0.66869187  0.75855219  0.58100202  1
  O  O312  1  0.16907528  -0.00568761  0.41444598  1
  O  O313  1  0.16980756  -0.00216482  0.91454248  1
  O  O314  1  0.15579839  0.50486103  0.41692415  1
  O  O315  1  0.17995434  0.49116661  0.91805224  1
  O  O316  1  0.47125062  0.00058367  0.41394909  1
  O  O317  1  0.48146965  -0.00087026  0.91453470  1
  O  O318  1  0.48205043  0.49839355  0.41313379  1
  O  O319  1  0.48146897  0.50083488  0.91440543  1
  O  O320  1  0.80382424  -0.00511864  0.41619496  1
  O  O321  1  0.82014210  -0.00680518  0.91462862  1
  O  O322  1  0.81006264  0.51669347  0.42568496  1
  O  O323  1  0.83574077  0.49233038  0.92453433  1
  O  O324  1  0.31480182  0.25153859  0.41567732  1
  O  O325  1  0.32970946  0.24715176  0.91361355  1
  O  O326  1  0.32403581  0.74814817  0.41307482  1
  O  O327  1  0.33309593  0.75336430  0.90901861  1
  O  O328  1  0.63766617  0.24501430  0.41703723  1
  O  O329  1  0.65660818  0.26312691  0.92565514  1
  O  O330  1  0.62924009  0.75303276  0.41331742  1
  O  O331  1  0.64089680  0.75291815  0.91646167  1
  O  O332  1  0.99636417  0.25871002  0.42598715  1
  O  O333  1  1.00157514  0.23292027  0.92484314  1
  O  O334  1  0.99019554  0.75424617  0.41255140  1
  O  O335  1  1.00273947  0.75802482  0.91623262  1
  O  O336  1  0.21115355  0.08125181  0.19483386  1
  O  O337  1  0.21459329  0.08510908  0.69330603  1
  O  O338  1  0.20992859  0.58207714  0.19906266  1
  O  O339  1  0.21308837  0.58140133  0.68972318  1
  O  O340  1  0.54383113  0.08358381  0.19696286  1
  O  O341  1  0.54746366  0.08961803  0.69523491  1
  O  O342  1  0.54457570  0.58505767  0.19458615  1
  O  O343  1  0.54990617  0.57371475  0.69653895  1
  O  O344  1  0.87380210  0.08014760  0.20117311  1
  O  O345  1  0.87264604  0.08684691  0.69257137  1
  O  O346  1  0.87542747  0.58803039  0.19902968  1
  O  O347  1  0.88577400  0.57310537  0.69859288  1
  O  O348  1  0.04164644  0.33144302  0.20410836  1
  O  O349  1  0.04756383  0.33464053  0.69473355  1
  O  O350  1  0.04050530  0.83496045  0.19517452  1
  O  O351  1  0.04692240  0.83563494  0.69769203  1
  O  O352  1  0.37873151  0.32882612  0.19373885  1
  O  O353  1  0.37757257  0.33063780  0.69582446  1
  O  O354  1  0.37412943  0.83749446  0.19142228  1
  O  O355  1  0.37873862  0.83574820  0.69254669  1
  O  O356  1  0.70899848  0.33672659  0.19653496  1
  O  O357  1  0.70733547  0.32960891  0.69902163  1
  O  O358  1  0.70414566  0.83278726  0.19720222  1
  O  O359  1  0.70949893  0.83804000  0.69216194  1
  O  O360  1  0.21434335  0.41663916  0.19150944  1
  O  O361  1  0.21363030  0.41357795  0.69515966  1
  O  O362  1  0.20656360  0.91680762  0.19501390  1
  O  O363  1  0.21384613  0.91682460  0.69072812  1
  O  O364  1  0.54648747  0.41614692  0.20322198  1
  O  O365  1  0.54172823  0.41281425  0.69333162  1
  O  O366  1  0.54192510  0.91850302  0.19543457  1
  O  O367  1  0.54791900  0.91339363  0.69432495  1
  O  O368  1  0.87429424  0.42336394  0.19800922  1
  O  O369  1  0.87310501  0.41258595  0.69721310  1
  O  O370  1  0.87101478  0.91303562  0.19448200  1
  O  O371  1  0.87754933  0.91583176  0.68980505  1
  O  O372  1  0.04835057  0.16007882  0.19888544  1
  O  O373  1  0.04711063  0.16824986  0.70199731  1
  O  O374  1  0.04042709  0.66967540  0.19455744  1
  O  O375  1  0.04479288  0.66740952  0.69635663  1
  O  O376  1  0.37979754  0.16329899  0.19694725  1
  O  O377  1  0.38098300  0.16611191  0.69657049  1
  O  O378  1  0.37658829  0.66801478  0.19901298  1
  O  O379  1  0.36705273  0.66953730  0.68923579  1
  O  O380  1  0.70886259  0.16753760  0.19664304  1
  O  O381  1  0.70999872  0.16480480  0.69610289  1
  O  O382  1  0.70914785  0.66892109  0.19920743  1
  O  O383  1  0.69435752  0.67027656  0.68736863  1
  O  O384  1  0.12843540  0.08004007  0.30806941  1
  O  O385  1  0.13653117  0.07955303  0.80442489  1
  O  O386  1  0.12180455  0.58835193  0.30617644  1
  O  O387  1  0.12521669  0.58198435  0.79650660  1
  O  O388  1  0.45432242  0.08271102  0.30547522  1
  O  O389  1  0.45172005  0.09195219  0.81078225  1
  O  O390  1  0.45584538  0.58215695  0.30310898  1
  O  O391  1  0.44919735  0.57583274  0.80287357  1
  O  O392  1  0.78461323  0.08003065  0.30888621  1
  O  O393  1  0.79065639  0.08426528  0.80803618  1
  O  O394  1  0.78662491  0.58977238  0.30885870  1
  O  O395  1  0.78169877  0.57552039  0.80137249  1
  O  O396  1  0.29680800  0.33294956  0.30602376  1
  O  O397  1  0.29289822  0.33108570  0.80427918  1
  O  O398  1  0.29034598  0.83270845  0.30281558  1
  O  O399  1  0.29089015  0.83682696  0.80192349  1
  O  O400  1  0.62300389  0.33059296  0.30963115  1
  O  O401  1  0.62128885  0.33357584  0.80744410  1
  O  O402  1  0.61821506  0.83583316  0.30484757  1
  O  O403  1  0.62303686  0.83616584  0.80582826  1
  O  O404  1  0.95380198  0.33848636  0.31398462  1
  O  O405  1  0.95792619  0.33008064  0.80020904  1
  O  O406  1  0.95534790  0.83506833  0.30404173  1
  O  O407  1  0.95985338  0.83688064  0.80393910  1
  O  O408  1  0.12887967  0.42373865  0.30641401  1
  O  O409  1  0.12834382  0.41343456  0.80675415  1
  O  O410  1  0.12404672  0.91465446  0.30399203  1
  O  O411  1  0.12990885  0.91775828  0.80316599  1
  O  O412  1  0.45378414  0.41508020  0.30526391  1
  O  O413  1  0.45421441  0.41606792  0.80383655  1
  O  O414  1  0.45367069  0.91764454  0.30385167  1
  O  O415  1  0.45282745  0.91164427  0.80604016  1
  O  O416  1  0.78705286  0.41841096  0.30394565  1
  O  O417  1  0.79033317  0.41384356  0.80858454  1
  O  O418  1  0.78605676  0.91475305  0.30536258  1
  O  O419  1  0.79061412  0.91292653  0.80393491  1
  O  O420  1  0.29346316  0.16546247  0.30631086  1
  O  O421  1  0.29102158  0.16567242  0.80578288  1
  O  O422  1  0.28838909  0.66824841  0.30404897  1
  O  O423  1  0.29194616  0.66758029  0.80164204  1
  O  O424  1  0.62062981  0.16472856  0.30641444  1
  O  O425  1  0.62278512  0.16602586  0.80279299  1
  O  O426  1  0.61745216  0.66969156  0.30470541  1
  O  O427  1  0.63503021  0.66968916  0.80876548  1
  O  O428  1  0.95375250  0.16455692  0.30219065  1
  O  O429  1  0.95638312  0.16592177  0.80807534  1
  O  O430  1  0.95727057  0.67082947  0.30515537  1
  O  O431  1  0.97100944  0.67173606  0.80943301  1
  F  F432  1  0.04439900  -0.00287277  0.20422294  1
  F  F433  1  0.05182594  -0.00456202  0.69378449  1
  F  F434  1  0.04553734  0.50869668  0.20094163  1
  F  F435  1  0.04765692  0.49278134  0.70146164  1
  F  F436  1  0.37872867  0.00008120  0.20204057  1
  F  F437  1  0.37153721  0.00238117  0.69853278  1
  F  F438  1  0.38009276  0.49785050  0.20126320  1
  F  F439  1  0.37774439  0.49634490  0.69795090  1
  F  F440  1  0.70777925  -0.00088117  0.20429340  1
  F  F441  1  0.70223201  0.00185085  0.69853500  1
  F  F442  1  0.71197227  0.50494189  0.20639611  1
  F  F443  1  0.71087345  0.49361514  0.70139012  1
  F  F444  1  0.21855612  0.24124761  0.20066953  1
  F  F445  1  0.21544092  0.24909200  0.70257522  1
  F  F446  1  0.20929550  0.75229539  0.20044552  1
  F  F447  1  0.21422168  0.75152610  0.69941766  1
  F  F448  1  0.54703886  0.24874195  0.20461765  1
  F  F449  1  0.54389968  0.25098131  0.70307146  1
  F  F450  1  0.54389894  0.75365062  0.20242544  1
  F  F451  1  0.54944755  0.76167554  0.69809205  1
  F  F452  1  0.86681299  0.25497077  0.20158289  1
  F  F453  1  0.87650668  0.24700831  0.70337407  1
  F  F454  1  0.87551586  0.75132470  0.20438664  1
  F  F455  1  0.88461238  0.76062450  0.69690214  1
  F  F456  1  0.28865860  -0.00186119  0.29751285  1
  F  F457  1  0.28907808  -0.00099096  0.79676682  1
  F  F458  1  0.29136280  0.49882625  0.29726865  1
  F  F459  1  0.28920725  0.49936308  0.79408160  1
  F  F460  1  0.61776220  -0.00031271  0.29964304  1
  F  F461  1  0.63606578  -0.00128820  0.80698716  1
  F  F462  1  0.61942554  0.50411869  0.30201564  1
  F  F463  1  0.61793262  0.49448440  0.80015117  1
  F  F464  1  0.95293310  -0.00589440  0.30029628  1
  F  F465  1  0.96181745  -0.00255014  0.79577397  1
  F  F466  1  0.95133068  0.51348636  0.30657684  1
  F  F467  1  0.95924884  0.49648359  0.80090430  1
  F  F468  1  0.13584526  0.24644612  0.31007283  1
  F  F469  1  0.12728545  0.24988289  0.80019401  1
  F  F470  1  0.12109717  0.75127922  0.29654581  1
  F  F471  1  0.12889583  0.75196757  0.79709859  1
  F  F472  1  0.45479464  0.24868391  0.29906198  1
  F  F473  1  0.45484856  0.25122523  0.79942641  1
  F  F474  1  0.45297019  0.75433660  0.29761494  1
  F  F475  1  0.45046317  0.75887474  0.79949150  1
  F  F476  1  0.78572348  0.24891267  0.30098109  1
  F  F477  1  0.78794785  0.24693594  0.79946865  1
  F  F478  1  0.78522762  0.75309817  0.30027878  1
  F  F479  1  0.78410712  0.76185564  0.79658137  1
