# generated using pymatgen
data_K24Na3Li5Mg64Fe17Si79(O5F)48
_symmetry_space_group_name_H-M   'P 1'
_cell_length_a   16.11149302
_cell_length_b   18.59609745
_cell_length_c   20.56520712
_cell_angle_alpha   89.99824360
_cell_angle_beta   100.00935362
_cell_angle_gamma   89.98197125
_symmetry_Int_Tables_number   1
_chemical_formula_structural   K24Na3Li5Mg64Fe17Si79(O5F)48
_chemical_formula_sum   'K24 Na3 Li5 Mg64 Fe17 Si79 O240 F48'
_cell_volume   6067.77707837
_cell_formula_units_Z   1
loop_
 _symmetry_equiv_pos_site_id
 _symmetry_equiv_pos_as_xyz
  1  'x, y, z'
loop_
 _atom_site_type_symbol
 _atom_site_label
 _atom_site_symmetry_multiplicity
 _atom_site_fract_x
 _atom_site_fract_y
 _atom_site_fract_z
 _atom_site_occupancy
  K  K0  1  0.00493532  -0.00449664  0.00116157  1
  K  K1  1  -0.00596535  0.00591256  0.50523553  1
  K  K2  1  -0.00538572  0.49978907  -0.00413894  1
  K  K3  1  0.00127718  0.49086388  0.50131420  1
  K  K4  1  0.33241784  -0.01007496  -0.00866103  1
  K  K5  1  0.34701521  -0.00067147  0.51111162  1
  K  K6  1  0.33261589  0.49902580  -0.01851846  1
  K  K7  1  0.33313670  0.49839373  0.51871895  1
  K  K8  1  0.65958626  -0.00023812  -0.01074272  1
  K  K9  1  0.66454126  -0.00471967  0.50910357  1
  K  K10  1  0.67050982  0.51345790  -0.00813889  1
  K  K11  1  0.66398123  0.50190748  0.50748671  1
  K  K12  1  0.15245669  0.24764750  -0.00644688  1
  K  K13  1  0.16893449  0.23557676  0.50489524  1
  K  K14  1  0.15480837  0.75784686  -0.00438313  1
  K  K15  1  0.17622767  0.75229017  0.50894319  1
  K  K16  1  0.49692861  0.25080788  -0.01484283  1
  K  K17  1  0.49260107  0.24109886  0.51998688  1
  K  K18  1  0.49539827  0.74681687  -0.01612781  1
  K  K19  1  0.49001119  0.75658394  0.51113873  1
  K  K20  1  0.84317110  0.24428782  0.00108947  1
  K  K21  1  0.85606433  0.24341994  0.49974644  1
  K  K22  1  0.83532605  0.75693260  -0.00348831  1
  K  K23  1  0.83400532  0.76724198  0.50813027  1
  Na  Na24  1  0.65845480  0.74995752  0.74544447  1
  Na  Na25  1  -0.00053466  0.91907538  0.24133797  1
  Na  Na26  1  0.49726572  0.33120093  0.74680590  1
  Li  Li27  1  0.33423520  0.75270217  0.25190932  1
  Li  Li28  1  0.34450077  0.74150650  0.75693008  1
  Li  Li29  1  0.34315260  0.59084628  0.75622285  1
  Li  Li30  1  0.66143854  0.91207004  0.74798536  1
  Li  Li31  1  0.49073796  0.67168134  0.75209076  1
  Mg  Mg32  1  0.83135132  0.50137065  0.74954844  1
  Mg  Mg33  1  0.83538169  0.00021444  0.24773790  1
  Mg  Mg34  1  0.82811496  -0.00089522  0.74632099  1
  Mg  Mg35  1  -0.00012333  0.24944062  0.75324687  1
  Mg  Mg36  1  0.50136801  -0.00026782  0.25574354  1
  Mg  Mg37  1  0.50048415  0.50105624  0.25055599  1
  Mg  Mg38  1  -0.00231920  0.75196720  0.74878649  1
  Mg  Mg39  1  0.16726971  0.50222190  0.25035834  1
  Mg  Mg40  1  0.66878876  0.25055866  0.25046078  1
  Mg  Mg41  1  0.00230643  0.75142724  0.24544260  1
  Mg  Mg42  1  0.66657066  0.75033113  0.25115592  1
  Mg  Mg43  1  0.83521768  0.50095188  0.24929314  1
  Mg  Mg44  1  0.50136999  -0.00425888  0.74916929  1
  Mg  Mg45  1  0.49607690  0.50210701  0.74735843  1
  Mg  Mg46  1  0.17112565  0.50251799  0.75046051  1
  Mg  Mg47  1  0.66234458  0.24761752  0.74638190  1
  Mg  Mg48  1  0.33276164  0.25028350  0.25102267  1
  Mg  Mg49  1  0.16369229  -0.00209007  0.75232340  1
  Mg  Mg50  1  0.16862488  -0.00093890  0.24854331  1
  Mg  Mg51  1  -0.00066187  0.24842509  0.25096287  1
  Mg  Mg52  1  0.33410828  0.24863935  0.75155295  1
  Mg  Mg53  1  -0.00161888  0.08513833  0.24876588  1
  Mg  Mg54  1  0.66731681  0.91570571  0.25295940  1
  Mg  Mg55  1  0.16936267  0.66916080  0.24603103  1
  Mg  Mg56  1  0.33270076  0.41694754  0.25017069  1
  Mg  Mg57  1  0.17020637  0.83244872  0.24755679  1
  Mg  Mg58  1  0.83429847  0.66598311  0.24675430  1
  Mg  Mg59  1  0.83724560  0.16408407  0.25084889  1
  Mg  Mg60  1  0.33681775  0.91378011  0.25319634  1
  Mg  Mg61  1  0.16801539  0.16375386  0.75480505  1
  Mg  Mg62  1  0.49895134  0.83383380  0.25641673  1
  Mg  Mg63  1  0.50038816  0.33504896  0.25111711  1
  Mg  Mg64  1  0.66862619  0.41692411  0.25212490  1
  Mg  Mg65  1  -0.00231914  0.91698133  0.74985511  1
  Mg  Mg66  1  0.00108859  0.58522431  0.74916556  1
  Mg  Mg67  1  0.82828730  0.83586250  0.74817112  1
  Mg  Mg68  1  0.66924275  0.08481193  0.25257019  1
  Mg  Mg69  1  0.16797013  0.83198767  0.75246239  1
  Mg  Mg70  1  0.33723220  0.41724815  0.75128792  1
  Mg  Mg71  1  0.49797831  0.82721479  0.75027372  1
  Mg  Mg72  1  0.49506931  0.16184807  0.74634343  1
  Mg  Mg73  1  0.16445127  0.16438522  0.24995501  1
  Mg  Mg74  1  0.33334532  0.08160401  0.75007267  1
  Mg  Mg75  1  0.33467471  0.58704889  0.24958428  1
  Mg  Mg76  1  0.16446581  0.33513212  0.24963013  1
  Mg  Mg77  1  -0.00054818  0.41520108  0.25048965  1
  Mg  Mg78  1  0.33364116  0.91099552  0.75424158  1
  Mg  Mg79  1  -0.00111010  0.58514998  0.24559507  1
  Mg  Mg80  1  0.66234106  0.08035402  0.74709165  1
  Mg  Mg81  1  0.17050156  0.33487082  0.75024168  1
  Mg  Mg82  1  0.83000519  0.66796339  0.74817055  1
  Mg  Mg83  1  0.50243361  0.16721552  0.25342062  1
  Mg  Mg84  1  0.66021672  0.58640961  0.75033612  1
  Mg  Mg85  1  0.00199704  0.41706658  0.75251593  1
  Mg  Mg86  1  0.83436301  0.83427867  0.24611808  1
  Mg  Mg87  1  0.66754640  0.58510703  0.24917687  1
  Mg  Mg88  1  0.83259667  0.16551831  0.74869269  1
  Mg  Mg89  1  0.33581544  0.08444086  0.25222928  1
  Mg  Mg90  1  0.83195973  0.33432083  0.75048293  1
  Mg  Mg91  1  0.49890313  0.66816831  0.25228399  1
  Mg  Mg92  1  -0.00048280  0.08441670  0.75159844  1
  Mg  Mg93  1  0.66260652  0.41663082  0.74732145  1
  Mg  Mg94  1  0.17358023  0.66793552  0.75038019  1
  Mg  Mg95  1  0.83692999  0.33382679  0.25245679  1
  Fe  Fe96  1  0.85456480  0.58287660  0.10776257  1
  Fe  Fe97  1  0.46927351  0.07963269  0.88966119  1
  Fe  Fe98  1  0.47805854  0.92105931  0.39570539  1
  Fe  Fe99  1  0.48602537  0.58437588  0.88884356  1
  Fe  Fe100  1  0.97945712  0.15832014  0.39389200  1
  Fe  Fe101  1  0.35328588  0.16111271  0.60552051  1
  Fe  Fe102  1  0.53234021  0.07549098  0.60594474  1
  Fe  Fe103  1  0.13897817  0.08271099  0.89321218  1
  Fe  Fe104  1  0.85222605  0.92186628  0.60744632  1
  Fe  Fe105  1  0.97898250  0.33254291  0.39261438  1
  Fe  Fe106  1  0.85188102  0.08010763  0.10563973  1
  Fe  Fe107  1  0.35169691  0.33578274  0.60612190  1
  Fe  Fe108  1  0.31196925  0.33725458  0.89123222  1
  Fe  Fe109  1  0.02450091  0.83249943  0.10631353  1
  Fe  Fe110  1  0.96662228  0.16820891  0.89067623  1
  Fe  Fe111  1  0.14340689  0.91046348  0.89184393  1
  Fe  Fe112  1  0.03003549  0.16521073  0.10873168  1
  Si  Si113  1  0.68621702  0.66981485  0.11320439  1
  Si  Si114  1  0.18971004  0.91014814  0.61648625  1
  Si  Si115  1  0.64203107  0.33703749  0.38616906  1
  Si  Si116  1  0.47768216  0.09394405  0.38943159  1
  Si  Si117  1  0.97314084  0.34065419  0.88717505  1
  Si  Si118  1  0.14963173  0.07383925  0.38868358  1
  Si  Si119  1  0.85957907  0.09262124  0.61155385  1
  Si  Si120  1  0.52389292  0.58725074  0.61259852  1
  Si  Si121  1  0.86010637  0.41489950  0.61523029  1
  Si  Si122  1  0.30592171  0.16901786  0.38515522  1
  Si  Si123  1  0.02278773  0.83189280  0.61188445  1
  Si  Si124  1  0.47480313  0.58079699  0.38643959  1
  Si  Si125  1  0.20505220  0.08468328  0.11481867  1
  Si  Si126  1  0.13861330  0.42303135  0.88754571  1
  Si  Si127  1  0.52466348  0.41812943  0.11603264  1
  Si  Si128  1  0.31056363  0.66645535  0.38433477  1
  Si  Si129  1  0.18730901  0.07440711  0.61367361  1
  Si  Si130  1  0.80908276  0.91307157  0.38426958  1
  Si  Si131  1  0.80992297  0.58576983  0.38531449  1
  Si  Si132  1  0.36448930  0.66859966  0.11636782  1
  Si  Si133  1  0.97613435  0.66958830  0.38387204  1
  Si  Si134  1  0.52666430  0.91906672  0.11828080  1
  Si  Si135  1  0.03041833  0.16821212  0.61724919  1
  Si  Si136  1  0.85935626  0.58035992  0.61272351  1
  Si  Si137  1  0.14378028  0.58948425  0.38329904  1
  Si  Si138  1  0.30999870  0.66167795  0.88718716  1
  Si  Si139  1  0.35571193  0.83030555  0.61778419  1
  Si  Si140  1  0.64294889  0.17257394  0.38683611  1
  Si  Si141  1  0.69605687  0.17339291  0.61073309  1
  Si  Si142  1  0.36545521  0.83373478  0.11783721  1
  Si  Si143  1  0.68757259  0.33252964  0.11702767  1
  Si  Si144  1  0.14092197  0.58927973  0.88510794  1
  Si  Si145  1  0.36782182  0.16786466  0.11759404  1
  Si  Si146  1  0.69165369  0.82775066  0.61010891  1
  Si  Si147  1  0.69383546  0.66169389  0.61197218  1
  Si  Si148  1  0.02932016  0.66044085  0.10783074  1
  Si  Si149  1  0.64916844  0.67115610  0.88891377  1
  Si  Si150  1  0.80136310  0.07940949  0.38926559  1
  Si  Si151  1  0.80386045  0.41825357  0.88440846  1
  Si  Si152  1  0.35929388  0.33311910  0.11596746  1
  Si  Si153  1  0.68979580  0.16993668  0.11496012  1
  Si  Si154  1  0.84329495  0.91321622  0.10778563  1
  Si  Si155  1  0.85102633  0.41357903  0.11298155  1
  Si  Si156  1  0.31072745  0.82568018  0.88903292  1
  Si  Si157  1  0.02408887  0.33942446  0.11225401  1
  Si  Si158  1  0.79763147  0.08301316  0.88322309  1
  Si  Si159  1  0.64167252  0.66324488  0.38622517  1
  Si  Si160  1  0.47713935  0.90977001  0.88894877  1
  Si  Si161  1  0.80818322  0.58371611  0.88433927  1
  Si  Si162  1  0.64116074  0.83513526  0.88276980  1
  Si  Si163  1  0.63656774  0.16590574  0.88389406  1
  Si  Si164  1  0.64561615  0.82891595  0.38955165  1
  Si  Si165  1  0.30847418  0.83097479  0.38790865  1
  Si  Si166  1  0.80215601  0.91891230  0.88167750  1
  Si  Si167  1  0.97173215  0.66590859  0.88291574  1
  Si  Si168  1  0.18413799  0.42357996  0.61097600  1
  Si  Si169  1  0.20064805  0.58423351  0.11380807  1
  Si  Si170  1  0.35607385  0.66581012  0.61821221  1
  Si  Si171  1  0.02623914  0.33389761  0.61701531  1
  Si  Si172  1  0.30567303  0.33561281  0.38477020  1
  Si  Si173  1  0.68433061  0.83148105  0.11560956  1
  Si  Si174  1  0.48546888  0.41796508  0.88944311  1
  Si  Si175  1  0.14721797  0.91058965  0.38338327  1
  Si  Si176  1  0.96511019  0.83186756  0.88559376  1
  Si  Si177  1  0.97576778  0.83397927  0.38240903  1
  Si  Si178  1  0.80627974  0.42009321  0.38856741  1
  Si  Si179  1  0.69125287  0.33879807  0.61265822  1
  Si  Si180  1  0.52530812  0.58312029  0.11579484  1
  Si  Si181  1  0.18714430  0.58788697  0.61394622  1
  Si  Si182  1  0.14472854  0.42443363  0.38688069  1
  Si  Si183  1  0.52980779  0.08390917  0.11910500  1
  Si  Si184  1  0.47384713  0.41463774  0.38597194  1
  Si  Si185  1  0.20046364  0.91761805  0.11345186  1
  Si  Si186  1  0.30446429  0.16769105  0.89057387  1
  Si  Si187  1  0.02217282  0.66743967  0.61326760  1
  Si  Si188  1  0.64653100  0.32866366  0.88231903  1
  Si  Si189  1  0.52700779  0.42402912  0.60925861  1
  Si  Si190  1  0.52331833  0.90440570  0.61355303  1
  Si  Si191  1  0.19387472  0.41891023  0.11451121  1
  O  O192  1  0.29194546  0.11341846  0.08944833  1
  O  O193  1  0.25889302  0.10113512  0.57394987  1
  O  O194  1  0.28013485  0.62152465  0.08631353  1
  O  O195  1  0.26717429  0.62222305  0.58361745  1
  O  O196  1  0.61086299  0.11377045  0.08958775  1
  O  O197  1  0.62117301  0.12404167  0.57282987  1
  O  O198  1  0.60729398  0.61358816  0.08792166  1
  O  O199  1  0.60039478  0.62784406  0.58047788  1
  O  O200  1  0.94503376  0.10486430  0.06983459  1
  O  O201  1  0.94127905  0.13005980  0.58528910  1
  O  O202  1  0.95609614  0.60258872  0.07888890  1
  O  O203  1  0.93597024  0.62057168  0.58299440  1
  O  O204  1  0.10235687  0.38343561  0.08490533  1
  O  O205  1  0.09293415  0.38181652  0.58420849  1
  O  O206  1  0.11850092  0.87504023  0.07699942  1
  O  O207  1  0.10973172  0.85769292  0.58593760  1
  O  O208  1  0.43923217  0.37091595  0.08856851  1
  O  O209  1  0.44484867  0.38074026  0.57414956  1
  O  O210  1  0.44544328  0.86901360  0.08799787  1
  O  O211  1  0.43091511  0.86573043  0.58342230  1
  O  O212  1  0.77268887  0.35531096  0.08840218  1
  O  O213  1  0.77057984  0.37677362  0.58371334  1
  O  O214  1  0.76670242  0.85167471  0.08377231  1
  O  O215  1  0.75255196  0.87241991  0.56851277  1
  O  O216  1  0.27128555  0.37599820  0.08777086  1
  O  O217  1  0.25444958  0.39207087  0.57231016  1
  O  O218  1  0.28339371  0.88196412  0.08719510  1
  O  O219  1  0.26916935  0.87630768  0.58545622  1
  O  O220  1  0.60720127  0.38631151  0.08866881  1
  O  O221  1  0.61014665  0.38855556  0.58119560  1
  O  O222  1  0.60795406  0.88860059  0.08830856  1
  O  O223  1  0.59206283  0.85065480  0.58600458  1
  O  O224  1  0.93712129  0.38691831  0.08646686  1
  O  O225  1  0.93332898  0.36959055  0.58683297  1
  O  O226  1  0.92448708  0.88560649  0.07760935  1
  O  O227  1  0.94441230  0.87890470  0.57417655  1
  O  O228  1  0.13139123  0.13726582  0.08105320  1
  O  O229  1  0.10203409  0.12387817  0.58646955  1
  O  O230  1  0.11649338  0.62886171  0.08327088  1
  O  O231  1  0.10154652  0.63498686  0.58163625  1
  O  O232  1  0.45185286  0.13861850  0.09095204  1
  O  O233  1  0.43531891  0.12007795  0.56412723  1
  O  O234  1  0.44337070  0.63236311  0.08610896  1
  O  O235  1  0.43333688  0.62833688  0.58387423  1
  O  O236  1  0.76670055  0.15162539  0.07829937  1
  O  O237  1  0.78439794  0.15136829  0.58520280  1
  O  O238  1  0.76505169  0.64856684  0.07860522  1
  O  O239  1  0.76733948  0.61541831  0.58037011  1
  O  O240  1  0.07385858  0.09893673  0.42510842  1
  O  O241  1  0.04610625  0.10518280  0.93084753  1
  O  O242  1  0.06309863  0.62409698  0.41265827  1
  O  O243  1  0.06223967  0.62801452  0.91365813  1
  O  O244  1  0.39737077  0.13357614  0.41404808  1
  O  O245  1  0.37163186  0.10553742  0.92219284  1
  O  O246  1  0.39558538  0.61763494  0.41467864  1
  O  O247  1  0.38693836  0.61127796  0.92260584  1
  O  O248  1  0.71936394  0.11758995  0.41587599  1
  O  O249  1  0.70985584  0.10532870  0.90953596  1
  O  O250  1  0.72983137  0.62015003  0.41509716  1
  O  O251  1  0.73971252  0.62707578  0.91873747  1
  O  O252  1  0.23323512  0.38026760  0.41359398  1
  O  O253  1  0.21746644  0.37709693  0.92489222  1
  O  O254  1  0.22130019  0.85343209  0.41595747  1
  O  O255  1  0.23626966  0.85170785  0.92755727  1
  O  O256  1  0.55918010  0.36814550  0.41431533  1
  O  O257  1  0.56353406  0.35703760  0.91045419  1
  O  O258  1  0.57806757  0.86837037  0.42606876  1
  O  O259  1  0.56126342  0.85987959  0.91859024  1
  O  O260  1  0.88326904  0.37271332  0.42498676  1
  O  O261  1  0.89187973  0.37719230  0.91499680  1
  O  O262  1  0.90104857  0.87606287  0.41337514  1
  O  O263  1  0.88272224  0.86677197  0.91219779  1
  O  O264  1  0.06937173  0.39714866  0.42206245  1
  O  O265  1  0.05105669  0.39710715  0.91276092  1
  O  O266  1  0.06202913  0.87970712  0.40940782  1
  O  O267  1  0.04822999  0.87147512  0.92346415  1
  O  O268  1  0.39584786  0.37604350  0.41338267  1
  O  O269  1  0.40880490  0.39079725  0.92642397  1
  O  O270  1  0.38486013  0.87992448  0.42594303  1
  O  O271  1  0.39826705  0.87102937  0.91788281  1
  O  O272  1  0.71826911  0.39319291  0.41385012  1
  O  O273  1  0.72745930  0.38047124  0.91502108  1
  O  O274  1  0.74077317  0.86264104  0.41379164  1
  O  O275  1  0.72153402  0.88840656  0.91304990  1
  O  O276  1  0.23393009  0.12489938  0.41523694  1
  O  O277  1  0.21610424  0.15719605  0.91809879  1
  O  O278  1  0.22831016  0.63617251  0.41428094  1
  O  O279  1  0.22468072  0.63418538  0.91785172  1
  O  O280  1  0.55700128  0.15010605  0.41353523  1
  O  O281  1  0.55818694  0.14551438  0.91996515  1
  O  O282  1  0.56435878  0.62216377  0.41498433  1
  O  O283  1  0.57884256  0.64231410  0.93037315  1
  O  O284  1  0.88518467  0.11804568  0.42676107  1
  O  O285  1  0.86573774  0.14081326  0.91754698  1
  O  O286  1  0.89680935  0.63122298  0.41283864  1
  O  O287  1  0.90141053  0.61811699  0.91288024  1
  O  O288  1  0.19443723  0.00162358  0.08816948  1
  O  O289  1  0.16344393  -0.00914718  0.58729719  1
  O  O290  1  0.19385756  0.50114059  0.08534911  1
  O  O291  1  0.16689506  0.50719113  0.58217322  1
  O  O292  1  0.50813863  0.00201120  0.09126935  1
  O  O293  1  0.52615256  -0.02046177  0.57418189  1
  O  O294  1  0.50714704  0.50037744  0.08846722  1
  O  O295  1  0.51878317  0.50692913  0.57682397  1
  O  O296  1  0.80700982  -0.01083629  0.07585451  1
  O  O297  1  0.84080885  0.01692042  0.57316297  1
  O  O298  1  0.82017319  0.48910385  0.07819024  1
  O  O299  1  0.85770438  0.49702894  0.58421803  1
  O  O300  1  0.01232252  0.26245178  0.07737177  1
  O  O301  1  0.02662026  0.25158681  0.58855098  1
  O  O302  1  0.00955655  0.73738375  0.07193482  1
  O  O303  1  0.00542925  0.74838353  0.58277487  1
  O  O304  1  0.35015327  0.25034284  0.08886973  1
  O  O305  1  0.33265856  0.24901214  0.56214618  1
  O  O306  1  0.35314964  0.75105505  0.08821260  1
  O  O307  1  0.34204435  0.74806082  0.58541575  1
  O  O308  1  0.65541126  0.25229222  0.09168801  1
  O  O309  1  0.67773848  0.25752195  0.58283051  1
  O  O310  1  0.65090314  0.75094627  0.08983048  1
  O  O311  1  0.69637115  0.74284114  0.58225183  1
  O  O312  1  0.17372266  -0.00950117  0.41471964  1
  O  O313  1  0.17593303  -0.00349622  0.93208475  1
  O  O314  1  0.16400041  0.50843251  0.41239122  1
  O  O315  1  0.15020520  0.50724315  0.91514721  1
  O  O316  1  0.49771887  0.01727635  0.42429484  1
  O  O317  1  0.49524639  -0.01327219  0.92602010  1
  O  O318  1  0.48630675  0.49749365  0.41461160  1
  O  O319  1  0.52117895  0.49274839  0.92495766  1
  O  O320  1  0.80311647  -0.00583884  0.41385083  1
  O  O321  1  0.82095404  0.00068543  0.91151391  1
  O  O322  1  0.82136976  0.50425439  0.41557019  1
  O  O323  1  0.81237778  0.50085317  0.91351078  1
  O  O324  1  0.30827014  0.25286839  0.41135934  1
  O  O325  1  0.34209089  0.24478342  0.92126742  1
  O  O326  1  0.32903942  0.74696609  0.41470311  1
  O  O327  1  0.33257529  0.74311956  0.91660408  1
  O  O328  1  0.66598324  0.25551958  0.41387022  1
  O  O329  1  0.67013908  0.24732811  0.91175243  1
  O  O330  1  0.65325386  0.74422027  0.41586687  1
  O  O331  1  0.67148892  0.75517183  0.91324693  1
  O  O332  1  1.00204788  0.24653125  0.43607696  1
  O  O333  1  0.99300219  0.26412375  0.92186707  1
  O  O334  1  0.98653877  0.75142336  0.41510955  1
  O  O335  1  0.96955408  0.74691926  0.91245187  1
  O  O336  1  0.21791876  0.08554239  0.19613624  1
  O  O337  1  0.20834792  0.07885897  0.69405507  1
  O  O338  1  0.21453250  0.58269237  0.19450829  1
  O  O339  1  0.19857336  0.58540867  0.69276716  1
  O  O340  1  0.54592958  0.08453542  0.19992459  1
  O  O341  1  0.54358135  0.08011436  0.69680543  1
  O  O342  1  0.54320071  0.58323753  0.19672880  1
  O  O343  1  0.54672317  0.58117724  0.69103838  1
  O  O344  1  0.87385300  0.08281880  0.19843368  1
  O  O345  1  0.87586055  0.08572200  0.69185061  1
  O  O346  1  0.87674397  0.58311408  0.20019686  1
  O  O347  1  0.87705651  0.58196382  0.69289595  1
  O  O348  1  0.04566401  0.33827239  0.19331401  1
  O  O349  1  0.04264809  0.33579165  0.69720276  1
  O  O350  1  0.05270938  0.82428577  0.19614225  1
  O  O351  1  0.03777464  0.83155918  0.69222760  1
  O  O352  1  0.37776751  0.33509797  0.19675324  1
  O  O353  1  0.36407634  0.33217983  0.69544858  1
  O  O354  1  0.38312119  0.83420504  0.19751295  1
  O  O355  1  0.37317940  0.83364128  0.69669594  1
  O  O356  1  0.70779302  0.33570345  0.19785729  1
  O  O357  1  0.71067574  0.33707042  0.69273746  1
  O  O358  1  0.70516618  0.83228614  0.19652721  1
  O  O359  1  0.71803932  0.83406789  0.68819867  1
  O  O360  1  0.21162989  0.41876746  0.19532194  1
  O  O361  1  0.20195785  0.42060850  0.69123889  1
  O  O362  1  0.21654662  0.91612657  0.19455338  1
  O  O363  1  0.20898432  0.91245537  0.69626598  1
  O  O364  1  0.54297105  0.41757483  0.19697608  1
  O  O365  1  0.54781693  0.42516895  0.68876331  1
  O  O366  1  0.54608237  0.91723165  0.19871222  1
  O  O367  1  0.53551226  0.91166570  0.69270380  1
  O  O368  1  0.87157386  0.41714101  0.19415378  1
  O  O369  1  0.87674578  0.41776271  0.69540214  1
  O  O370  1  0.85994256  0.91532786  0.18871979  1
  O  O371  1  0.87743138  0.91704084  0.69825837  1
  O  O372  1  0.04725099  0.16909059  0.20142213  1
  O  O373  1  0.04517151  0.16925802  0.69683102  1
  O  O374  1  0.04578840  0.66306589  0.18989775  1
  O  O375  1  0.03902174  0.66596379  0.69322074  1
  O  O376  1  0.38236847  0.17006658  0.19844339  1
  O  O377  1  0.37126826  0.16451742  0.69731495  1
  O  O378  1  0.38273946  0.66334119  0.19606804  1
  O  O379  1  0.37084526  0.66414322  0.69565187  1
  O  O380  1  0.70869624  0.16805507  0.19642753  1
  O  O381  1  0.71108246  0.17025292  0.69146339  1
  O  O382  1  0.70728890  0.66676519  0.19468538  1
  O  O383  1  0.71471651  0.65597336  0.69090093  1
  O  O384  1  0.13007830  0.07994901  0.30804002  1
  O  O385  1  0.11961340  0.08152468  0.80008694  1
  O  O386  1  0.12472452  0.58708909  0.30272514  1
  O  O387  1  0.12171769  0.58619459  0.80475856  1
  O  O388  1  0.45946441  0.08824405  0.30809017  1
  O  O389  1  0.45352899  0.07769103  0.79908846  1
  O  O390  1  0.45800874  0.58165148  0.30600510  1
  O  O391  1  0.46139903  0.58213104  0.80111128  1
  O  O392  1  0.78638593  0.08358102  0.30849606  1
  O  O393  1  0.78588648  0.08394918  0.80229829  1
  O  O394  1  0.78894078  0.58502998  0.30503755  1
  O  O395  1  0.79080226  0.58321649  0.80408458  1
  O  O396  1  0.29052170  0.33626812  0.30399466  1
  O  O397  1  0.28684800  0.33553534  0.80007163  1
  O  O398  1  0.29242221  0.83422300  0.30784093  1
  O  O399  1  0.28618821  0.83341893  0.80952877  1
  O  O400  1  0.62255401  0.33603304  0.30548306  1
  O  O401  1  0.63532685  0.33192318  0.80294590  1
  O  O402  1  0.62518800  0.83123523  0.30837633  1
  O  O403  1  0.61682496  0.83813230  0.80474462  1
  O  O404  1  0.95670627  0.33459163  0.29958124  1
  O  O405  1  0.95448062  0.33780811  0.80600065  1
  O  O406  1  0.95160542  0.82642925  0.30361190  1
  O  O407  1  0.95418176  0.83178764  0.80501532  1
  O  O408  1  0.12623401  0.42036029  0.30557127  1
  O  O409  1  0.12289678  0.42046051  0.80655322  1
  O  O410  1  0.13576704  0.91455649  0.30421153  1
  O  O411  1  0.11828411  0.91370172  0.79927752  1
  O  O412  1  0.45711785  0.41718962  0.30526781  1
  O  O413  1  0.45822840  0.42363254  0.80975981  1
  O  O414  1  0.45808206  0.91793335  0.30374434  1
  O  O415  1  0.45636569  0.91362634  0.80854535  1
  O  O416  1  0.78969574  0.41910100  0.30732871  1
  O  O417  1  0.78967111  0.41814224  0.80399396  1
  O  O418  1  0.79032171  0.91408979  0.30390578  1
  O  O419  1  0.78866054  0.91790105  0.80241136  1
  O  O420  1  0.29018041  0.16856418  0.30437855  1
  O  O421  1  0.28767202  0.16513760  0.80844956  1
  O  O422  1  0.29092610  0.66211146  0.30493761  1
  O  O423  1  0.28566799  0.66266261  0.80826389  1
  O  O424  1  0.62507108  0.17104498  0.30594927  1
  O  O425  1  0.62166187  0.16722170  0.80326985  1
  O  O426  1  0.62357500  0.66367455  0.30568421  1
  O  O427  1  0.62856361  0.65947347  0.81094361  1
  O  O428  1  0.95529438  0.16820210  0.30237925  1
  O  O429  1  0.95229291  0.16836537  0.79831318  1
  O  O430  1  0.95850944  0.66771502  0.30366555  1
  O  O431  1  0.95522502  0.66474948  0.80254750  1
  F  F432  1  0.05438331  0.01185283  0.19833849  1
  F  F433  1  0.04073477  0.00017127  0.69905704  1
  F  F434  1  0.04742324  0.49974467  0.20274421  1
  F  F435  1  0.04309156  0.50056269  0.70278553  1
  F  F436  1  0.38314828  0.00350278  0.20407441  1
  F  F437  1  0.37460381  -0.00653249  0.70201248  1
  F  F438  1  0.38000876  0.49964629  0.20237350  1
  F  F439  1  0.38018069  0.49136440  0.69557233  1
  F  F440  1  0.70843573  0.00036900  0.20566654  1
  F  F441  1  0.71362102  0.00793259  0.69409324  1
  F  F442  1  0.71027970  0.50016695  0.20384243  1
  F  F443  1  0.71436596  0.49931347  0.70039301  1
  F  F444  1  0.21454121  0.25339853  0.20259613  1
  F  F445  1  0.20574444  0.24696551  0.70271023  1
  F  F446  1  0.21620896  0.74848331  0.20146387  1
  F  F447  1  0.19920926  0.75061041  0.69867640  1
  F  F448  1  0.54510084  0.25232879  0.20419482  1
  F  F449  1  0.54816958  0.24007339  0.69385884  1
  F  F450  1  0.54589333  0.74998643  0.20508668  1
  F  F451  1  0.52705434  0.74951005  0.69295339  1
  F  F452  1  0.87450209  0.25163489  0.20107929  1
  F  F453  1  0.87902465  0.25623294  0.69999850  1
  F  F454  1  0.87756777  0.74832582  0.19964053  1
  F  F455  1  0.87942233  0.74673456  0.69797439  1
  F  F456  1  0.29195888  0.00102799  0.29797439  1
  F  F457  1  0.28586091  -0.00302389  0.79757979  1
  F  F458  1  0.29066947  0.50091460  0.29810145  1
  F  F459  1  0.28521031  0.49604163  0.79847659  1
  F  F460  1  0.62327729  0.00062510  0.30187687  1
  F  F461  1  0.62147212  -0.00012019  0.79690425  1
  F  F462  1  0.62114894  0.50112882  0.29947540  1
  F  F463  1  0.62458143  0.49862837  0.79656150  1
  F  F464  1  0.95108388  0.00533188  0.30037382  1
  F  F465  1  0.95112725  0.00179962  0.79682535  1
  F  F466  1  0.95678051  0.50057087  0.29836189  1
  F  F467  1  0.95307090  0.50200860  0.79751685  1
  F  F468  1  0.12585043  0.25394865  0.29927305  1
  F  F469  1  0.11959912  0.25426947  0.79894824  1
  F  F470  1  0.12317608  0.74491065  0.29899983  1
  F  F471  1  0.11637504  0.74751857  0.79804470  1
  F  F472  1  0.45534231  0.25368030  0.30012956  1
  F  F473  1  0.45271434  0.23912296  0.80042271  1
  F  F474  1  0.46311053  0.74718928  0.30421132  1
  F  F475  1  0.45720372  0.75270824  0.80575371  1
  F  F476  1  0.78679908  0.25186615  0.29903333  1
  F  F477  1  0.78714575  0.25112476  0.79420720  1
  F  F478  1  0.78794463  0.74811289  0.29645986  1
  F  F479  1  0.79977687  0.74892505  0.79879378  1
