# generated using pymatgen
data_K24Na3Li5Mg64Fe17Si79(O5F)48
_symmetry_space_group_name_H-M   'P 1'
_cell_length_a   16.07656550
_cell_length_b   18.57082891
_cell_length_c   20.55736961
_cell_angle_alpha   89.98792158
_cell_angle_beta   100.01305785
_cell_angle_gamma   90.03084207
_symmetry_Int_Tables_number   1
_chemical_formula_structural   K24Na3Li5Mg64Fe17Si79(O5F)48
_chemical_formula_sum   'K24 Na3 Li5 Mg64 Fe17 Si79 O240 F48'
_cell_volume   6044.02200195
_cell_formula_units_Z   1
loop_
 _symmetry_equiv_pos_site_id
 _symmetry_equiv_pos_as_xyz
  1  'x, y, z'
loop_
 _atom_site_type_symbol
 _atom_site_label
 _atom_site_symmetry_multiplicity
 _atom_site_fract_x
 _atom_site_fract_y
 _atom_site_fract_z
 _atom_site_occupancy
  K  K0  1  0.00180272  0.00287901  -0.00039178  1
  K  K1  1  0.00295274  0.00188038  0.50001569  1
  K  K2  1  0.00577283  0.50157177  -0.00102383  1
  K  K3  1  -0.00165240  0.49904215  0.50884136  1
  K  K4  1  0.34283220  0.00217744  0.00136839  1
  K  K5  1  0.33770542  -0.00496933  0.50184387  1
  K  K6  1  0.33382084  0.50271813  -0.00361663  1
  K  K7  1  0.33747072  0.50098586  0.50881283  1
  K  K8  1  0.66458801  -0.00763591  -0.00001556  1
  K  K9  1  0.67118041  0.00225490  0.49378672  1
  K  K10  1  0.66495474  0.50552987  -0.00684638  1
  K  K11  1  0.66927240  0.50969189  0.51267754  1
  K  K12  1  0.16172628  0.24208245  0.00517017  1
  K  K13  1  0.17092561  0.23555036  0.49683426  1
  K  K14  1  0.16256471  0.75154905  -0.00875458  1
  K  K15  1  0.17133422  0.74608356  0.50719818  1
  K  K16  1  0.49717527  0.24795840  0.00865285  1
  K  K17  1  0.50193993  0.24495841  0.49488365  1
  K  K18  1  0.49969851  0.76371277  -0.00498557  1
  K  K19  1  0.50784916  0.74871753  0.50780850  1
  K  K20  1  0.83608265  0.24362785  0.00059269  1
  K  K21  1  0.83369014  0.24126040  0.49938639  1
  K  K22  1  0.83557570  0.75911512  -0.00971385  1
  K  K23  1  0.82369439  0.75170205  0.51027874  1
  Na  Na24  1  0.66469463  0.24672699  0.24895193  1
  Na  Na25  1  0.50257310  0.16937615  0.24561455  1
  Na  Na26  1  0.49787167  0.66655434  0.74352116  1
  Li  Li27  1  0.82686600  -0.00172024  0.25031374  1
  Li  Li28  1  0.50022067  0.50518394  0.74749852  1
  Li  Li29  1  0.66714398  0.92020628  0.25268536  1
  Li  Li30  1  0.50805485  0.84129309  0.25224052  1
  Li  Li31  1  0.16720957  0.16209293  0.23913957  1
  Mg  Mg32  1  -0.00063062  0.75123417  0.24959271  1
  Mg  Mg33  1  0.16763258  0.00226207  0.24609578  1
  Mg  Mg34  1  0.16910917  -0.00134954  0.74607251  1
  Mg  Mg35  1  0.33753340  0.75202270  0.25188189  1
  Mg  Mg36  1  0.16644994  0.50033468  0.24785154  1
  Mg  Mg37  1  0.49918363  -0.00100432  0.74727336  1
  Mg  Mg38  1  0.00626717  0.24816771  0.24903692  1
  Mg  Mg39  1  0.66443596  0.25350539  0.75105951  1
  Mg  Mg40  1  0.33532515  0.75029484  0.74874377  1
  Mg  Mg41  1  0.50532785  -0.00051558  0.25078450  1
  Mg  Mg42  1  0.83331100  0.49860819  0.24992851  1
  Mg  Mg43  1  -0.00235916  0.24889584  0.75356523  1
  Mg  Mg44  1  0.16273974  0.49936945  0.75392084  1
  Mg  Mg45  1  0.00012880  0.75196800  0.75119882  1
  Mg  Mg46  1  0.66689804  0.75104313  0.74798140  1
  Mg  Mg47  1  0.33198488  0.24809615  0.24815918  1
  Mg  Mg48  1  0.50176879  0.50006121  0.25244607  1
  Mg  Mg49  1  0.83308438  -0.00069735  0.75126932  1
  Mg  Mg50  1  0.33072665  0.25076098  0.74864008  1
  Mg  Mg51  1  0.66440140  0.75518365  0.25199745  1
  Mg  Mg52  1  0.83007454  0.50050751  0.75211482  1
  Mg  Mg53  1  0.66488563  0.08515737  0.74989748  1
  Mg  Mg54  1  0.16799175  0.66424917  0.75318996  1
  Mg  Mg55  1  0.33414059  0.08498685  0.24666442  1
  Mg  Mg56  1  0.66468065  0.91476665  0.74962669  1
  Mg  Mg57  1  0.83395800  0.16628351  0.75330344  1
  Mg  Mg58  1  0.49767800  0.16804080  0.74686240  1
  Mg  Mg59  1  0.33505734  0.58187601  0.74942096  1
  Mg  Mg60  1  0.82939727  0.83775364  0.25317747  1
  Mg  Mg61  1  0.83267409  0.33532706  0.75566177  1
  Mg  Mg62  1  0.33468516  0.91273071  0.74350077  1
  Mg  Mg63  1  0.83465284  0.16280029  0.25136349  1
  Mg  Mg64  1  0.66735821  0.41387776  0.25231128  1
  Mg  Mg65  1  0.33804790  0.91615452  0.24968826  1
  Mg  Mg66  1  0.33368896  0.58519968  0.25013967  1
  Mg  Mg67  1  0.83423989  0.33055146  0.25060140  1
  Mg  Mg68  1  0.16633821  0.16433059  0.74771881  1
  Mg  Mg69  1  0.66222816  0.58479217  0.74762133  1
  Mg  Mg70  1  0.67007113  0.07789431  0.25139005  1
  Mg  Mg71  1  0.50176796  0.66955914  0.25298731  1
  Mg  Mg72  1  0.16441667  0.66727090  0.24892420  1
  Mg  Mg73  1  0.00221206  0.91509368  0.74859308  1
  Mg  Mg74  1  0.00033382  0.58491084  0.75271101  1
  Mg  Mg75  1  0.00038367  0.41575198  0.75618385  1
  Mg  Mg76  1  0.83362181  0.83510146  0.74826507  1
  Mg  Mg77  1  -0.00126566  0.58531554  0.24888127  1
  Mg  Mg78  1  0.66363249  0.42008627  0.75090126  1
  Mg  Mg79  1  -0.00064367  0.41464186  0.24798192  1
  Mg  Mg80  1  0.16595126  0.83501843  0.24919200  1
  Mg  Mg81  1  0.00102916  0.08352741  0.24879448  1
  Mg  Mg82  1  0.49763671  0.33787853  0.75010192  1
  Mg  Mg83  1  0.33222048  0.41792415  0.75101065  1
  Mg  Mg84  1  0.16476453  0.33415681  0.75374024  1
  Mg  Mg85  1  0.33199954  0.41554908  0.24874886  1
  Mg  Mg86  1  0.49888458  0.83510093  0.74737601  1
  Mg  Mg87  1  0.83264712  0.66719725  0.25142942  1
  Mg  Mg88  1  0.66753774  0.58519230  0.25293152  1
  Mg  Mg89  1  0.00123126  0.08447415  0.75104907  1
  Mg  Mg90  1  0.49881205  0.33285402  0.24896097  1
  Mg  Mg91  1  0.16327084  0.33155816  0.24830332  1
  Mg  Mg92  1  0.83077708  0.66700013  0.75079577  1
  Mg  Mg93  1  0.16813585  0.83341383  0.74816925  1
  Mg  Mg94  1  -0.00354757  0.91876445  0.25112148  1
  Mg  Mg95  1  0.33215636  0.08334211  0.74620818  1
  Fe  Fe96  1  0.47822643  0.92209049  0.88946381  1
  Fe  Fe97  1  0.97825756  0.16081546  0.89131743  1
  Fe  Fe98  1  0.31230329  0.83439435  0.88774799  1
  Fe  Fe99  1  0.68624341  0.66661060  0.60732914  1
  Fe  Fe100  1  0.14475704  0.58528151  0.89340697  1
  Fe  Fe101  1  0.36256893  0.82779837  0.60263512  1
  Fe  Fe102  1  0.69720756  0.84129161  0.60808285  1
  Fe  Fe103  1  0.19016920  0.08234778  0.60598654  1
  Fe  Fe104  1  0.02763058  0.83054543  0.60882086  1
  Fe  Fe105  1  0.02006382  0.66702854  0.10974810  1
  Fe  Fe106  1  0.02358903  0.16170355  0.10998270  1
  Fe  Fe107  1  0.02188924  0.33737404  0.10700355  1
  Fe  Fe108  1  0.14129037  0.41349416  0.89461145  1
  Fe  Fe109  1  0.36086289  0.16733142  0.10709463  1
  Fe  Fe110  1  0.52704282  0.92482164  0.60553855  1
  Fe  Fe111  1  0.80578063  0.41764989  0.89163131  1
  Fe  Fe112  1  0.97736091  0.84250305  0.88912980  1
  Si  Si113  1  0.97153826  0.33071623  0.89023026  1
  Si  Si114  1  0.64026897  0.66235830  0.88411081  1
  Si  Si115  1  0.19375303  0.91402617  0.60572727  1
  Si  Si116  1  0.47767314  0.08906713  0.88331423  1
  Si  Si117  1  0.64221265  0.83371308  0.38669369  1
  Si  Si118  1  0.80805588  0.41476582  0.38834599  1
  Si  Si119  1  0.30835134  0.66672345  0.38610151  1
  Si  Si120  1  0.18712064  0.57836602  0.61497796  1
  Si  Si121  1  0.14141620  0.41675467  0.38648062  1
  Si  Si122  1  0.52075809  0.57580493  0.60898787  1
  Si  Si123  1  0.36532579  0.66588956  0.11666835  1
  Si  Si124  1  0.97492193  0.66635724  0.38794824  1
  Si  Si125  1  0.86724893  0.92325131  0.61070089  1
  Si  Si126  1  0.31192298  0.16631302  0.88260333  1
  Si  Si127  1  0.02126743  0.16922357  0.61124935  1
  Si  Si128  1  0.53483438  0.07901083  0.11166357  1
  Si  Si129  1  0.85567773  0.08594307  0.61490523  1
  Si  Si130  1  0.36055175  0.33997162  0.11288570  1
  Si  Si131  1  0.85710500  0.41415930  0.61680419  1
  Si  Si132  1  0.85894995  0.57892027  0.61407760  1
  Si  Si133  1  0.69431898  0.33081356  0.11714972  1
  Si  Si134  1  0.19693961  0.07556284  0.10800154  1
  Si  Si135  1  0.80886177  0.58208479  0.38824251  1
  Si  Si136  1  0.85176049  0.41927139  0.11420968  1
  Si  Si137  1  0.69835710  0.16263338  0.11601078  1
  Si  Si138  1  0.47407004  0.57631201  0.88288150  1
  Si  Si139  1  0.31787487  0.66633316  0.88858312  1
  Si  Si140  1  0.02100862  0.33268161  0.61596966  1
  Si  Si141  1  0.85757260  0.07916129  0.11528600  1
  Si  Si142  1  0.34974765  0.65749040  0.60919906  1
  Si  Si143  1  0.52260920  0.09334715  0.61152566  1
  Si  Si144  1  0.30663634  0.33263589  0.38513485  1
  Si  Si145  1  0.19658194  0.42111082  0.11345423  1
  Si  Si146  1  0.36110492  0.83170793  0.11655128  1
  Si  Si147  1  0.68982606  0.33305281  0.61459540  1
  Si  Si148  1  0.19645362  0.58780163  0.11437301  1
  Si  Si149  1  0.53040352  0.58271137  0.11765283  1
  Si  Si150  1  0.80849176  0.58676042  0.88776891  1
  Si  Si151  1  0.14214542  0.58264613  0.38696956  1
  Si  Si152  1  0.85160505  0.58059439  0.11528431  1
  Si  Si153  1  0.79700734  0.08453482  0.88793626  1
  Si  Si154  1  0.30840355  0.83367718  0.38567218  1
  Si  Si155  1  0.35365032  0.33574052  0.61358554  1
  Si  Si156  1  0.64027804  0.82738416  0.88795616  1
  Si  Si157  1  0.01827955  0.83772494  0.11428001  1
  Si  Si158  1  0.53096501  0.41706887  0.11692737  1
  Si  Si159  1  0.52304704  0.41230620  0.61314996  1
  Si  Si160  1  0.63419751  0.33738958  0.88736774  1
  Si  Si161  1  0.15050562  0.08107755  0.88519297  1
  Si  Si162  1  0.80238288  0.91812495  0.88852700  1
  Si  Si163  1  0.47526601  0.58302464  0.38708386  1
  Si  Si164  1  0.69252478  0.66891044  0.11726795  1
  Si  Si165  1  0.85411511  0.91719016  0.11845928  1
  Si  Si166  1  0.18718723  0.41428510  0.61545501  1
  Si  Si167  1  0.47417758  0.41593793  0.38703049  1
  Si  Si168  1  0.97424857  0.83347267  0.38774874  1
  Si  Si169  1  0.63587834  0.17420259  0.88334836  1
  Si  Si170  1  0.80991711  0.08328710  0.38881013  1
  Si  Si171  1  0.02159427  0.66144196  0.61306534  1
  Si  Si172  1  0.69211306  0.83176271  0.11720213  1
  Si  Si173  1  0.64344442  0.16295484  0.38758005  1
  Si  Si174  1  0.35934880  0.17210588  0.61042732  1
  Si  Si175  1  0.14685552  0.92058355  0.88549438  1
  Si  Si176  1  0.14118554  0.91648632  0.38516502  1
  Si  Si177  1  0.46811744  0.41328908  0.88496074  1
  Si  Si178  1  0.97632287  0.16588389  0.38664647  1
  Si  Si179  1  0.47505797  0.08126975  0.38672503  1
  Si  Si180  1  0.80838966  0.91619862  0.38813070  1
  Si  Si181  1  0.97182052  0.66916646  0.88798031  1
  Si  Si182  1  0.64244741  0.66713437  0.38800392  1
  Si  Si183  1  0.30768475  0.32817625  0.88724049  1
  Si  Si184  1  0.30920859  0.16532222  0.38449487  1
  Si  Si185  1  0.63943648  0.33263346  0.38763493  1
  Si  Si186  1  0.52723791  0.91601880  0.11737832  1
  Si  Si187  1  0.47562303  0.91674001  0.38637695  1
  Si  Si188  1  0.69194485  0.16882141  0.61506472  1
  Si  Si189  1  0.97508226  0.33288586  0.38689839  1
  Si  Si190  1  0.14279074  0.08199138  0.38359582  1
  Si  Si191  1  0.19166447  0.91039155  0.11388713  1
  O  O192  1  0.27587469  0.10118258  0.07364824  1
  O  O193  1  0.28609230  0.11988062  0.57311592  1
  O  O194  1  0.28377949  0.61529676  0.08908031  1
  O  O195  1  0.26544506  0.60574921  0.57998737  1
  O  O196  1  0.61837357  0.11183574  0.08312959  1
  O  O197  1  0.60751482  0.12355315  0.58336190  1
  O  O198  1  0.60940652  0.61898584  0.08865617  1
  O  O199  1  0.58876542  0.61153492  0.56884353  1
  O  O200  1  0.93593555  0.09532540  0.07837993  1
  O  O201  1  0.93321690  0.12362304  0.58416874  1
  O  O202  1  0.93181968  0.60030067  0.08167292  1
  O  O203  1  0.94645626  0.60145275  0.58720976  1
  O  O204  1  0.12170381  0.37036429  0.07801529  1
  O  O205  1  0.10219402  0.36602313  0.58567891  1
  O  O206  1  0.10448270  0.86456572  0.08724384  1
  O  O207  1  0.12710258  0.85020503  0.57693435  1
  O  O208  1  0.44425727  0.37506055  0.08639601  1
  O  O209  1  0.43521123  0.36692069  0.58333518  1
  O  O210  1  0.43896898  0.87064440  0.08758075  1
  O  O211  1  0.45071058  0.85838468  0.56279369  1
  O  O212  1  0.77365082  0.36313198  0.08542018  1
  O  O213  1  0.77053109  0.36845262  0.58576327  1
  O  O214  1  0.77382475  0.86369825  0.08730547  1
  O  O215  1  0.79724497  0.86657582  0.57633965  1
  O  O216  1  0.28600169  0.40017800  0.08907592  1
  O  O217  1  0.26855464  0.38382840  0.58380053  1
  O  O218  1  0.27031328  0.87049115  0.08577398  1
  O  O219  1  0.27943392  0.89813056  0.57567725  1
  O  O220  1  0.60880791  0.37867178  0.08753670  1
  O  O221  1  0.60219175  0.37539790  0.58188403  1
  O  O222  1  0.60548361  0.87609828  0.08756847  1
  O  O223  1  0.62615031  0.91491599  0.57325670  1
  O  O224  1  0.93232667  0.40499791  0.07998904  1
  O  O225  1  0.93690185  0.38103088  0.58515931  1
  O  O226  1  0.93970636  0.89435309  0.08863392  1
  O  O227  1  0.95399543  0.90820052  0.58242298  1
  O  O228  1  0.11603788  0.12366920  0.07655351  1
  O  O229  1  0.09521299  0.14208841  0.57334199  1
  O  O230  1  0.12144204  0.64060993  0.08172690  1
  O  O231  1  0.10404084  0.62678746  0.58414235  1
  O  O232  1  0.45731354  0.12948223  0.07733386  1
  O  O233  1  0.45130715  0.15722461  0.58741301  1
  O  O234  1  0.44512959  0.62860622  0.08852921  1
  O  O235  1  0.42705309  0.61304374  0.58261520  1
  O  O236  1  0.77935008  0.13491428  0.08381267  1
  O  O237  1  0.77228199  0.13594336  0.58535291  1
  O  O238  1  0.77299306  0.63646589  0.08819300  1
  O  O239  1  0.78022090  0.62374410  0.57491088  1
  O  O240  1  0.06698416  0.12469804  0.41462754  1
  O  O241  1  0.07122601  0.10008265  0.92064508  1
  O  O242  1  0.06476062  0.62364630  0.41610186  1
  O  O243  1  0.04227943  0.61099747  0.92055154  1
  O  O244  1  0.39960431  0.12564889  0.41733461  1
  O  O245  1  0.39060363  0.11230595  0.91069886  1
  O  O246  1  0.39719569  0.62352933  0.41535257  1
  O  O247  1  0.39502103  0.60684157  0.91614820  1
  O  O248  1  0.73530453  0.12527305  0.42280982  1
  O  O249  1  0.71310767  0.12013853  0.91332782  1
  O  O250  1  0.73098502  0.62248300  0.41646228  1
  O  O251  1  0.72330139  0.61394095  0.91676218  1
  O  O252  1  0.23052718  0.37421467  0.41620726  1
  O  O253  1  0.22694852  0.34318279  0.92133544  1
  O  O254  1  0.22988795  0.87304012  0.41399412  1
  O  O255  1  0.21146106  0.85814739  0.91799084  1
  O  O256  1  0.56248358  0.37316177  0.41907432  1
  O  O257  1  0.54513083  0.35692046  0.91388084  1
  O  O258  1  0.56376295  0.87298171  0.41588270  1
  O  O259  1  0.56831503  0.86003264  0.92509058  1
  O  O260  1  0.89788233  0.37327996  0.41831212  1
  O  O261  1  0.88176859  0.34214257  0.91619704  1
  O  O262  1  0.89872708  0.87351745  0.41892416  1
  O  O263  1  0.88822578  0.88150522  0.92643930  1
  O  O264  1  0.06361502  0.37721771  0.41653724  1
  O  O265  1  0.03585180  0.39544290  0.91860798  1
  O  O266  1  0.06445042  0.87526610  0.41489292  1
  O  O267  1  0.06129929  0.91152232  0.91694692  1
  O  O268  1  0.39594608  0.37569381  0.41566464  1
  O  O269  1  0.38572059  0.38473074  0.91571087  1
  O  O270  1  0.39672081  0.87566724  0.41439968  1
  O  O271  1  0.39074137  0.89829716  0.93210673  1
  O  O272  1  0.73075983  0.37369460  0.41765125  1
  O  O273  1  0.70443420  0.39315774  0.92236535  1
  O  O274  1  0.73124084  0.87577152  0.41876475  1
  O  O275  1  0.72703455  0.87339830  0.91632699  1
  O  O276  1  0.23162921  0.12502178  0.41441104  1
  O  O277  1  0.22830893  0.13937447  0.91112643  1
  O  O278  1  0.23155857  0.62506608  0.41583884  1
  O  O279  1  0.23689264  0.64713106  0.92322672  1
  O  O280  1  0.56468100  0.12446677  0.41820435  1
  O  O281  1  0.54799162  0.15338407  0.90893709  1
  O  O282  1  0.56508347  0.62413597  0.41571684  1
  O  O283  1  0.55995745  0.62415668  0.91215729  1
  O  O284  1  0.90071787  0.12568634  0.41911710  1
  O  O285  1  0.87972978  0.12848996  0.92206374  1
  O  O286  1  0.89906301  0.62305942  0.41758831  1
  O  O287  1  0.88076130  0.64851003  0.91194504  1
  O  O288  1  0.17735895  -0.00973028  0.08208066  1
  O  O289  1  0.15645613  -0.00856344  0.57392240  1
  O  O290  1  0.17780005  0.50515898  0.08874076  1
  O  O291  1  0.16632212  0.49546731  0.58508463  1
  O  O292  1  0.51917657  -0.00433374  0.08137299  1
  O  O293  1  0.48943148  0.02011221  0.57566461  1
  O  O294  1  0.52162378  0.50048457  0.08785963  1
  O  O295  1  0.50702275  0.49135818  0.57859983  1
  O  O296  1  0.82304133  -0.00294613  0.09122284  1
  O  O297  1  0.83669661  0.00628424  0.58324539  1
  O  O298  1  0.81251293  0.50041809  0.09344401  1
  O  O299  1  0.84225358  0.49474267  0.58558286  1
  O  O300  1  -0.00991792  0.24959685  0.07053023  1
  O  O301  1  -0.00118137  0.25282341  0.58402863  1
  O  O302  1  -0.01125541  0.76084139  0.08123239  1
  O  O303  1  -0.00553177  0.73634928  0.57553090  1
  O  O304  1  0.34000229  0.26416604  0.07575979  1
  O  O305  1  0.33380546  0.25508648  0.58285836  1
  O  O306  1  0.35447079  0.74795642  0.08754749  1
  O  O307  1  0.33390953  0.73257955  0.56935279  1
  O  O308  1  0.67778451  0.24744942  0.09072638  1
  O  O309  1  0.67895981  0.25100508  0.58397814  1
  O  O310  1  0.67458785  0.74948445  0.08635219  1
  O  O311  1  0.66811806  0.75397471  0.56542930  1
  O  O312  1  0.14957604  -0.00081646  0.41508374  1
  O  O313  1  0.18855883  0.00113928  0.90831861  1
  O  O314  1  0.14983994  0.49992165  0.41759112  1
  O  O315  1  0.18133319  0.49881214  0.93320311  1
  O  O316  1  0.48309829  -0.00108100  0.41888474  1
  O  O317  1  0.51510217  0.01635745  0.91862987  1
  O  O318  1  0.48137326  0.49961075  0.41627301  1
  O  O319  1  0.49330114  0.49403233  0.91571165  1
  O  O320  1  0.81726038  -0.00010088  0.41855679  1
  O  O321  1  0.79748245  0.00157929  0.91584027  1
  O  O322  1  0.81581354  0.49854490  0.41748452  1
  O  O323  1  0.83756426  0.51086614  0.92375627  1
  O  O324  1  0.31449878  0.24970252  0.41475528  1
  O  O325  1  0.34275953  0.24648545  0.91070808  1
  O  O326  1  0.31453273  0.74972085  0.41390140  1
  O  O327  1  0.35512651  0.74326954  0.91737256  1
  O  O328  1  0.64731353  0.24884666  0.41561712  1
  O  O329  1  0.66092356  0.25475313  0.91318277  1
  O  O330  1  0.65058738  0.74927613  0.41676393  1
  O  O331  1  0.65604890  0.74352648  0.91658556  1
  O  O332  1  0.98400145  0.24992640  0.41679683  1
  O  O333  1  1.01293125  0.25384252  0.91727300  1
  O  O334  1  0.98316918  0.74928569  0.41624175  1
  O  O335  1  0.99926637  0.74779236  0.91992398  1
  O  O336  1  0.21463619  0.07532344  0.18905972  1
  O  O337  1  0.21093972  0.08525966  0.69735863  1
  O  O338  1  0.21208055  0.58633277  0.19617631  1
  O  O339  1  0.20704117  0.57888383  0.69467412  1
  O  O340  1  0.55116639  0.07557764  0.19132285  1
  O  O341  1  0.54383178  0.08966457  0.69250518  1
  O  O342  1  0.54570799  0.58288454  0.19831806  1
  O  O343  1  0.54780471  0.57470064  0.68735182  1
  O  O344  1  0.87964449  0.08488273  0.19528899  1
  O  O345  1  0.87320257  0.08531071  0.69497427  1
  O  O346  1  0.87324650  0.58403457  0.19701718  1
  O  O347  1  0.87453170  0.58122396  0.69469854  1
  O  O348  1  0.04360630  0.33550782  0.20035494  1
  O  O349  1  0.03959856  0.33199925  0.69572858  1
  O  O350  1  0.04099081  0.83469409  0.19574871  1
  O  O351  1  0.04719294  0.83200372  0.70016460  1
  O  O352  1  0.37652155  0.33783703  0.19417555  1
  O  O353  1  0.37271641  0.33505268  0.69356929  1
  O  O354  1  0.37458623  0.83142551  0.19632875  1
  O  O355  1  0.37914855  0.83000164  0.69388557  1
  O  O356  1  0.71518718  0.34022975  0.19641236  1
  O  O357  1  0.70638803  0.33317828  0.69439226  1
  O  O358  1  0.71271290  0.82801621  0.19641804  1
  O  O359  1  0.71397648  0.83614544  0.70080432  1
  O  O360  1  0.21066089  0.41926243  0.19532292  1
  O  O361  1  0.20774874  0.41324674  0.69505465  1
  O  O362  1  0.21114895  0.91284349  0.19475654  1
  O  O363  1  0.20912430  0.91758702  0.68763055  1
  O  O364  1  0.54625922  0.42073035  0.19747123  1
  O  O365  1  0.54370037  0.41085991  0.69237572  1
  O  O366  1  0.54252738  0.91756026  0.19603418  1
  O  O367  1  0.54685179  0.92038568  0.69802118  1
  O  O368  1  0.87402188  0.41666032  0.19603530  1
  O  O369  1  0.87644773  0.41354560  0.69643858  1
  O  O370  1  0.87710196  0.91159014  0.19785876  1
  O  O371  1  0.87740139  0.92257663  0.69195766  1
  O  O372  1  0.04490793  0.16597456  0.20149440  1
  O  O373  1  0.04222521  0.16771294  0.69172750  1
  O  O374  1  0.04333855  0.66735031  0.20262913  1
  O  O375  1  0.04100769  0.66527554  0.69350338  1
  O  O376  1  0.36859000  0.16839860  0.19681666  1
  O  O377  1  0.37414279  0.17038139  0.69131023  1
  O  O378  1  0.38058883  0.66605693  0.19741964  1
  O  O379  1  0.36169532  0.66274033  0.68852818  1
  O  O380  1  0.71757883  0.15819985  0.19515701  1
  O  O381  1  0.70877280  0.16931208  0.69525098  1
  O  O382  1  0.70977480  0.66645036  0.19797856  1
  O  O383  1  0.71108425  0.66603501  0.69915767  1
  O  O384  1  0.12481911  0.07869063  0.30467628  1
  O  O385  1  0.12548051  0.08473282  0.80420969  1
  O  O386  1  0.12468422  0.58258762  0.30689797  1
  O  O387  1  0.12090822  0.58268055  0.80045106  1
  O  O388  1  0.45395143  0.07734895  0.30787004  1
  O  O389  1  0.45722528  0.08766754  0.80205264  1
  O  O390  1  0.45775175  0.58286002  0.30672122  1
  O  O391  1  0.45141306  0.57435478  0.80433584  1
  O  O392  1  0.79214962  0.08604888  0.31000611  1
  O  O393  1  0.78552950  0.08560699  0.80669508  1
  O  O394  1  0.79133252  0.58238632  0.30787120  1
  O  O395  1  0.78975091  0.58239464  0.80677181  1
  O  O396  1  0.28845900  0.33645599  0.30538711  1
  O  O397  1  0.28940142  0.33202074  0.80576578  1
  O  O398  1  0.29000255  0.83291643  0.30537702  1
  O  O399  1  0.28746248  0.83418056  0.79574066  1
  O  O400  1  0.61891245  0.34075443  0.30885337  1
  O  O401  1  0.61938571  0.33602966  0.80610264  1
  O  O402  1  0.62544705  0.83018845  0.30803826  1
  O  O403  1  0.62284874  0.83141666  0.80770668  1
  O  O404  1  0.95557046  0.33666298  0.30738916  1
  O  O405  1  0.95483513  0.33196482  0.80725323  1
  O  O406  1  0.95671687  0.83204287  0.30747151  1
  O  O407  1  0.95285395  0.83649348  0.79792213  1
  O  O408  1  0.12423688  0.42074020  0.30672738  1
  O  O409  1  0.12127798  0.41492325  0.80124105  1
  O  O410  1  0.12360275  0.91537696  0.30489658  1
  O  O411  1  0.12674212  0.91933154  0.80374882  1
  O  O412  1  0.45675518  0.41883246  0.30685952  1
  O  O413  1  0.45029796  0.41173195  0.80525682  1
  O  O414  1  0.45589400  0.91817636  0.30699893  1
  O  O415  1  0.45401032  0.92032156  0.79791988  1
  O  O416  1  0.79083486  0.41661172  0.30828318  1
  O  O417  1  0.78474348  0.41742388  0.79938226  1
  O  O418  1  0.79315311  0.91378138  0.30974751  1
  O  O419  1  0.79006844  0.91929513  0.80769355  1
  O  O420  1  0.29301268  0.16606350  0.30560420  1
  O  O421  1  0.29207658  0.16772095  0.80198308  1
  O  O422  1  0.28972799  0.66543375  0.30582209  1
  O  O423  1  0.29392528  0.66314653  0.80698531  1
  O  O424  1  0.63047650  0.15794043  0.30983602  1
  O  O425  1  0.62072738  0.17136078  0.80257148  1
  O  O426  1  0.62484853  0.66506049  0.30772010  1
  O  O427  1  0.62952772  0.66598227  0.80530929  1
  O  O428  1  0.95763695  0.16664365  0.30729391  1
  O  O429  1  0.95434233  0.16503522  0.79894253  1
  O  O430  1  0.95514524  0.66525662  0.30783545  1
  O  O431  1  0.95548689  0.66736280  0.80601032  1
  F  F432  1  0.04643321  -0.00315272  0.20118445  1
  F  F433  1  0.04525478  0.00298620  0.70237260  1
  F  F434  1  0.04493577  0.50179159  0.20384520  1
  F  F435  1  0.04031828  0.49722944  0.70055660  1
  F  F436  1  0.38145347  -0.00181283  0.20203119  1
  F  F437  1  0.37911980  0.00540355  0.69684507  1
  F  F438  1  0.38100994  0.50178197  0.20425426  1
  F  F439  1  0.36735287  0.49642337  0.69646595  1
  F  F440  1  0.71292142  -0.00209443  0.20468318  1
  F  F441  1  0.71315560  0.00394325  0.70383168  1
  F  F442  1  0.71057991  0.50116332  0.20654211  1
  F  F443  1  0.71125881  0.49930174  0.69767919  1
  F  F444  1  0.21251158  0.25465976  0.20294761  1
  F  F445  1  0.20962793  0.25237305  0.70058809  1
  F  F446  1  0.21400759  0.74973102  0.20451731  1
  F  F447  1  0.20950897  0.74423093  0.70175893  1
  F  F448  1  0.53753454  0.26648920  0.18990794  1
  F  F449  1  0.54408426  0.25374795  0.70061436  1
  F  F450  1  0.54773625  0.74312835  0.20165070  1
  F  F451  1  0.55121781  0.75966606  0.69629534  1
  F  F452  1  0.88074386  0.25000465  0.20409243  1
  F  F453  1  0.87401311  0.25252983  0.70210832  1
  F  F454  1  0.87730241  0.74951423  0.20596027  1
  F  F455  1  0.87769893  0.74754338  0.70081775  1
  F  F456  1  0.28767521  -0.00203702  0.29648277  1
  F  F457  1  0.29071741  -0.00088584  0.79285227  1
  F  F458  1  0.28885806  0.50132045  0.29880981  1
  F  F459  1  0.28539816  0.49813853  0.79774670  1
  F  F460  1  0.62051950  0.00217053  0.30511125  1
  F  F461  1  0.62151948  0.00472338  0.79777730  1
  F  F462  1  0.62299066  0.50123077  0.30249210  1
  F  F463  1  0.62300903  0.50109292  0.79728092  1
  F  F464  1  0.96404938  0.00058197  0.30186046  1
  F  F465  1  0.95375000  0.00180826  0.79658942  1
  F  F466  1  0.95456737  0.50062722  0.29900138  1
  F  F467  1  0.95165356  0.50039772  0.79715453  1
  F  F468  1  0.11958010  0.26185118  0.30896137  1
  F  F469  1  0.12096379  0.24757543  0.79560251  1
  F  F470  1  0.12276755  0.75191262  0.30052240  1
  F  F471  1  0.12213253  0.74715353  0.79877662  1
  F  F472  1  0.44909165  0.26319728  0.30396102  1
  F  F473  1  0.45277548  0.25144151  0.79394768  1
  F  F474  1  0.45197795  0.74172131  0.30519162  1
  F  F475  1  0.45312431  0.75626167  0.79895405  1
  F  F476  1  0.80163377  0.25063369  0.30459733  1
  F  F477  1  0.78392888  0.24977112  0.79800155  1
  F  F478  1  0.78805942  0.74733000  0.30185897  1
  F  F479  1  0.79076808  0.75162489  0.79970487  1
