# generated using pymatgen
data_K24Na3Li5Mg64Fe17Si79(O5F)48
_symmetry_space_group_name_H-M   'P 1'
_cell_length_a   16.10485381
_cell_length_b   18.59823068
_cell_length_c   20.57113993
_cell_angle_alpha   90.00587600
_cell_angle_beta   99.99449499
_cell_angle_gamma   89.98340112
_symmetry_Int_Tables_number   1
_chemical_formula_structural   K24Na3Li5Mg64Fe17Si79(O5F)48
_chemical_formula_sum   'K24 Na3 Li5 Mg64 Fe17 Si79 O240 F48'
_cell_volume   6067.99998594
_cell_formula_units_Z   1
loop_
 _symmetry_equiv_pos_site_id
 _symmetry_equiv_pos_as_xyz
  1  'x, y, z'
loop_
 _atom_site_type_symbol
 _atom_site_label
 _atom_site_symmetry_multiplicity
 _atom_site_fract_x
 _atom_site_fract_y
 _atom_site_fract_z
 _atom_site_occupancy
  K  K0  1  -0.00299287  -0.00923873  -0.00327585  1
  K  K1  1  0.00112443  -0.01020888  0.50272202  1
  K  K2  1  -0.00017046  0.50474317  -0.00184590  1
  K  K3  1  0.00133811  0.51170156  0.50323525  1
  K  K4  1  0.34447346  -0.01230702  0.00289793  1
  K  K5  1  0.35858506  -0.01639814  0.50481940  1
  K  K6  1  0.33862894  0.50515146  -0.00368978  1
  K  K7  1  0.34665654  0.51396849  0.49568021  1
  K  K8  1  0.65761852  -0.01183962  -0.00974384  1
  K  K9  1  0.65093774  -0.00461738  0.50292769  1
  K  K10  1  0.65285649  0.50899555  -0.00550422  1
  K  K11  1  0.65022285  0.51468246  0.49680394  1
  K  K12  1  0.17238927  0.26064263  -0.00288477  1
  K  K13  1  0.17380281  0.24981935  0.50279065  1
  K  K14  1  0.17704973  0.75076800  -0.00002772  1
  K  K15  1  0.18089828  0.75106735  0.50274487  1
  K  K16  1  0.50421023  0.25139582  -0.00167764  1
  K  K17  1  0.50680977  0.24344174  0.50451707  1
  K  K18  1  0.48110917  0.74684297  -0.00820154  1
  K  K19  1  0.48772595  0.74683464  0.49421697  1
  K  K20  1  0.83169333  0.25536055  -0.00902727  1
  K  K21  1  0.82488308  0.24790744  0.50857391  1
  K  K22  1  0.83308916  0.74785767  -0.00478424  1
  K  K23  1  0.83289355  0.74397318  0.50425713  1
  Na  Na24  1  0.50149556  -0.00230372  0.74957717  1
  Na  Na25  1  0.83308672  0.82999269  0.25081030  1
  Na  Na26  1  0.83471666  0.66991331  0.75427420  1
  Li  Li27  1  0.34402567  0.74451010  0.74767164  1
  Li  Li28  1  0.16816974  0.50325195  0.75159269  1
  Li  Li29  1  0.16743478  0.82952697  0.24678994  1
  Li  Li30  1  0.49259948  0.66831207  0.75228400  1
  Li  Li31  1  0.49992127  0.66774099  0.25574662  1
  Mg  Mg32  1  0.83346460  0.50384304  0.75293646  1
  Mg  Mg33  1  0.66458663  0.74871762  0.25477219  1
  Mg  Mg34  1  0.16781075  -0.00065194  0.74740702  1
  Mg  Mg35  1  0.00160531  0.74924248  0.75063015  1
  Mg  Mg36  1  0.16438716  -0.00409431  0.25023220  1
  Mg  Mg37  1  0.66411067  0.74856814  0.75428778  1
  Mg  Mg38  1  0.33361836  0.25060001  0.74877757  1
  Mg  Mg39  1  0.33215823  0.24987016  0.24991222  1
  Mg  Mg40  1  0.66778956  0.25061406  0.74848018  1
  Mg  Mg41  1  0.49610314  -0.00165164  0.25325284  1
  Mg  Mg42  1  0.83523252  0.50049521  0.25025776  1
  Mg  Mg43  1  0.66563197  0.25194618  0.25020592  1
  Mg  Mg44  1  -0.00105604  0.25294839  0.75067718  1
  Mg  Mg45  1  0.49712068  0.50277796  0.74943014  1
  Mg  Mg46  1  0.00274657  0.75043031  0.24620854  1
  Mg  Mg47  1  0.83123300  -0.00025834  0.25154001  1
  Mg  Mg48  1  0.50108824  0.50338657  0.24871367  1
  Mg  Mg49  1  -0.00053905  0.24997207  0.24986431  1
  Mg  Mg50  1  0.33353734  0.75034388  0.25032834  1
  Mg  Mg51  1  0.83264574  -0.00075476  0.74880871  1
  Mg  Mg52  1  0.16999523  0.50195338  0.24539269  1
  Mg  Mg53  1  0.49657727  0.82794511  0.75219992  1
  Mg  Mg54  1  0.83098950  0.16642336  0.25080473  1
  Mg  Mg55  1  0.17120499  0.83138205  0.74563532  1
  Mg  Mg56  1  0.66742151  0.41680169  0.75111484  1
  Mg  Mg57  1  0.33198590  0.41650051  0.24790596  1
  Mg  Mg58  1  0.00101804  0.91494728  0.75003889  1
  Mg  Mg59  1  -0.00274301  0.08251772  0.25118544  1
  Mg  Mg60  1  0.66461398  0.41796840  0.24859273  1
  Mg  Mg61  1  0.33167070  0.41821959  0.74842928  1
  Mg  Mg62  1  0.16736591  0.16712944  0.74939353  1
  Mg  Mg63  1  0.16569483  0.33681292  0.74876129  1
  Mg  Mg64  1  0.83358058  0.66555512  0.25000841  1
  Mg  Mg65  1  -0.00129008  0.91417294  0.24959075  1
  Mg  Mg66  1  0.66456058  0.58583850  0.25156327  1
  Mg  Mg67  1  0.66542305  0.91450288  0.25314899  1
  Mg  Mg68  1  0.50225735  0.33495578  0.75068556  1
  Mg  Mg69  1  0.49854502  0.16457756  0.25392521  1
  Mg  Mg70  1  0.00376475  0.58306608  0.74975641  1
  Mg  Mg71  1  0.83305912  0.33458314  0.24895253  1
  Mg  Mg72  1  0.16998901  0.66525339  0.74803978  1
  Mg  Mg73  1  0.00171336  0.41652027  0.24835371  1
  Mg  Mg74  1  0.33226433  0.58589900  0.74827050  1
  Mg  Mg75  1  0.16655510  0.33519235  0.24795226  1
  Mg  Mg76  1  0.00100818  0.58600817  0.24543535  1
  Mg  Mg77  1  0.49721486  0.83186353  0.25436213  1
  Mg  Mg78  1  0.83351749  0.16684148  0.74951595  1
  Mg  Mg79  1  0.49805015  0.33572160  0.24733661  1
  Mg  Mg80  1  0.33534080  0.58672943  0.24704089  1
  Mg  Mg81  1  0.50334065  0.16566885  0.75173080  1
  Mg  Mg82  1  0.00170459  0.41877018  0.74975388  1
  Mg  Mg83  1  0.33099573  0.91280902  0.25142348  1
  Mg  Mg84  1  0.16668041  0.66848974  0.24553303  1
  Mg  Mg85  1  0.66438051  0.08428430  0.25302102  1
  Mg  Mg86  1  0.33541102  0.91268444  0.74820159  1
  Mg  Mg87  1  0.00008578  0.08474222  0.74869517  1
  Mg  Mg88  1  0.33653005  0.08221817  0.75110199  1
  Mg  Mg89  1  0.66754343  0.91353565  0.75372432  1
  Mg  Mg90  1  0.66397233  0.58573674  0.75254093  1
  Mg  Mg91  1  0.83503099  0.83310840  0.75237678  1
  Mg  Mg92  1  0.66899382  0.08429685  0.74979826  1
  Mg  Mg93  1  0.33357136  0.08242416  0.25483211  1
  Mg  Mg94  1  0.16515161  0.16481470  0.25327741  1
  Mg  Mg95  1  0.83465197  0.33706546  0.75060686  1
  Fe  Fe96  1  0.65085652  0.66699993  0.39285751  1
  Fe  Fe97  1  0.47270360  0.58580992  0.88732409  1
  Fe  Fe98  1  0.47603649  0.91024724  0.39421409  1
  Fe  Fe99  1  0.52650401  0.42014572  0.10918771  1
  Fe  Fe100  1  0.47195111  0.91240488  0.89168231  1
  Fe  Fe101  1  0.47480435  0.08743927  0.39504617  1
  Fe  Fe102  1  0.81122759  0.91444290  0.88911362  1
  Fe  Fe103  1  0.19032928  0.41210531  0.10692939  1
  Fe  Fe104  1  0.02277818  0.67233655  0.10580221  1
  Fe  Fe105  1  0.98417455  0.66579875  0.88984829  1
  Fe  Fe106  1  0.64026346  0.33367562  0.88836534  1
  Fe  Fe107  1  0.69383420  0.16641704  0.60894364  1
  Fe  Fe108  1  0.35740817  0.82923601  0.60781802  1
  Fe  Fe109  1  0.19535788  0.58508327  0.10605976  1
  Fe  Fe110  1  0.97677720  0.33737950  0.88920898  1
  Fe  Fe111  1  0.47471787  0.58353068  0.38972483  1
  Fe  Fe112  1  0.35413240  0.83561260  0.11000512  1
  Si  Si113  1  0.81562828  0.57814644  0.38830053  1
  Si  Si114  1  0.80938092  0.08587849  0.38742638  1
  Si  Si115  1  0.01795611  0.16517302  0.11685005  1
  Si  Si116  1  0.65262408  0.83472066  0.39325820  1
  Si  Si117  1  0.97342356  0.83355644  0.38545570  1
  Si  Si118  1  0.97673812  0.33111845  0.38582400  1
  Si  Si119  1  0.69767444  0.33450316  0.11355576  1
  Si  Si120  1  0.98288666  0.83360866  0.88799520  1
  Si  Si121  1  0.80931752  0.92294563  0.38712300  1
  Si  Si122  1  0.46863495  0.41277081  0.88585400  1
  Si  Si123  1  0.02231016  0.32795493  0.11379764  1
  Si  Si124  1  0.02331377  0.33366780  0.61195950  1
  Si  Si125  1  0.30258305  0.33314638  0.88239501  1
  Si  Si126  1  0.18514138  0.08593721  0.11706935  1
  Si  Si127  1  0.02610390  0.16835857  0.61366980  1
  Si  Si128  1  0.36402998  0.66652880  0.11315056  1
  Si  Si129  1  0.13894390  0.92023874  0.88201683  1
  Si  Si130  1  0.13890614  0.41842006  0.38540834  1
  Si  Si131  1  0.85258048  0.08373488  0.11567360  1
  Si  Si132  1  0.30383824  0.33345284  0.38578279  1
  Si  Si133  1  0.69005622  0.66614116  0.61602915  1
  Si  Si134  1  0.52462682  0.41769648  0.61318494  1
  Si  Si135  1  0.97319566  0.16713726  0.38633337  1
  Si  Si136  1  0.30791244  0.16834580  0.88503930  1
  Si  Si137  1  0.97894086  0.16652874  0.88592481  1
  Si  Si138  1  0.86051650  0.58497331  0.61456224  1
  Si  Si139  1  0.69582936  0.66699968  0.11532037  1
  Si  Si140  1  0.69396995  0.33922661  0.61047956  1
  Si  Si141  1  0.81308886  0.41492868  0.38514378  1
  Si  Si142  1  0.47445970  0.40856643  0.38782064  1
  Si  Si143  1  0.29788647  0.83528634  0.88475112  1
  Si  Si144  1  0.13535148  0.08127634  0.38731569  1
  Si  Si145  1  0.86304446  0.91229623  0.61413531  1
  Si  Si146  1  0.80747289  0.58426673  0.88745477  1
  Si  Si147  1  0.69300847  0.83267203  0.11815098  1
  Si  Si148  1  0.85525273  0.92228122  0.11668290  1
  Si  Si149  1  0.29791456  0.83177980  0.38620521  1
  Si  Si150  1  0.81359578  0.08382651  0.88659859  1
  Si  Si151  1  0.80612679  0.42156645  0.88925181  1
  Si  Si152  1  0.52587295  0.58204755  0.61430838  1
  Si  Si153  1  0.35936299  0.33255401  0.61264856  1
  Si  Si154  1  0.52598151  0.08386737  0.11687717  1
  Si  Si155  1  0.18449985  0.92199977  0.11300857  1
  Si  Si156  1  0.64611187  0.16516886  0.88801069  1
  Si  Si157  1  0.35491132  0.16121173  0.11656515  1
  Si  Si158  1  0.64696244  0.33552631  0.38514998  1
  Si  Si159  1  0.64243017  0.82889869  0.89142145  1
  Si  Si160  1  0.35922553  0.16529755  0.61467303  1
  Si  Si161  1  0.30009897  0.66616324  0.38610539  1
  Si  Si162  1  0.85730664  0.57889796  0.11277460  1
  Si  Si163  1  0.64530971  0.66551314  0.88884167  1
  Si  Si164  1  0.47532445  0.08778606  0.88854919  1
  Si  Si165  1  0.14289454  0.08332663  0.88320984  1
  Si  Si166  1  0.36250428  0.32651535  0.11003892  1
  Si  Si167  1  0.02817459  0.83151456  0.61346543  1
  Si  Si168  1  0.30079651  0.66824247  0.88380226  1
  Si  Si169  1  0.18901010  0.92089262  0.61001959  1
  Si  Si170  1  0.13462027  0.91761551  0.38596917  1
  Si  Si171  1  0.53253402  0.91182728  0.61572632  1
  Si  Si172  1  0.19124985  0.08712485  0.61402223  1
  Si  Si173  1  0.01608433  0.84104422  0.11160799  1
  Si  Si174  1  0.19113293  0.57822467  0.61192682  1
  Si  Si175  1  0.86153478  0.41433820  0.11572415  1
  Si  Si176  1  0.14420161  0.57953201  0.88238971  1
  Si  Si177  1  0.86466506  0.07872983  0.61090453  1
  Si  Si178  1  0.02840501  0.66577277  0.61232971  1
  Si  Si179  1  0.97418497  0.66829464  0.38531056  1
  Si  Si180  1  0.64677018  0.17196475  0.38818033  1
  Si  Si181  1  0.69610783  0.83156122  0.61524852  1
  Si  Si182  1  0.53095005  0.91793830  0.11476052  1
  Si  Si183  1  0.68948578  0.16953054  0.11602070  1
  Si  Si184  1  0.85987856  0.42216439  0.61255619  1
  Si  Si185  1  0.52583921  0.08276432  0.61448718  1
  Si  Si186  1  0.29874233  0.16884838  0.39032249  1
  Si  Si187  1  0.13572191  0.58245335  0.38409693  1
  Si  Si188  1  0.35459810  0.65969105  0.60951756  1
  Si  Si189  1  0.14363052  0.41966262  0.88316481  1
  Si  Si190  1  0.19151408  0.41221668  0.61190366  1
  Si  Si191  1  0.52929175  0.58786629  0.11311740  1
  O  O192  1  0.26772195  0.11620636  0.08801646  1
  O  O193  1  0.26828837  0.12657436  0.58445208  1
  O  O194  1  0.30048762  0.60292370  0.08075329  1
  O  O195  1  0.26833765  0.61047714  0.57787009  1
  O  O196  1  0.60111180  0.12735300  0.08726219  1
  O  O197  1  0.59120163  0.12156041  0.57400689  1
  O  O198  1  0.61237377  0.62048506  0.08461584  1
  O  O199  1  0.60292219  0.62234382  0.58386203  1
  O  O200  1  0.93727129  0.11243107  0.08820109  1
  O  O201  1  0.94683366  0.11622221  0.58364932  1
  O  O202  1  0.93450965  0.60397103  0.07846667  1
  O  O203  1  0.93507076  0.62899551  0.58304008  1
  O  O204  1  0.10293367  0.34220857  0.08043551  1
  O  O205  1  0.10305477  0.36766813  0.58090200  1
  O  O206  1  0.09710096  0.87757986  0.08433997  1
  O  O207  1  0.09795869  0.87876183  0.58205154  1
  O  O208  1  0.44794282  0.34643008  0.08210242  1
  O  O209  1  0.43624765  0.37307783  0.58331352  1
  O  O210  1  0.44681474  0.87850720  0.07860431  1
  O  O211  1  0.45059274  0.87048636  0.57688745  1
  O  O212  1  0.78766072  0.35522635  0.08969059  1
  O  O213  1  0.76918271  0.38461173  0.58152628  1
  O  O214  1  0.77536614  0.86863055  0.09172031  1
  O  O215  1  0.77541571  0.86946189  0.58543846  1
  O  O216  1  0.28425354  0.37442974  0.07403963  1
  O  O217  1  0.26845197  0.37151606  0.58062044  1
  O  O218  1  0.25928123  0.89458906  0.07621805  1
  O  O219  1  0.25985012  0.88702536  0.57339141  1
  O  O220  1  0.62597573  0.38832832  0.07914466  1
  O  O221  1  0.60270131  0.38008917  0.58346950  1
  O  O222  1  0.61233459  0.88314538  0.08600763  1
  O  O223  1  0.61457511  0.88074431  0.58430930  1
  O  O224  1  0.94491157  0.38511295  0.08769323  1
  O  O225  1  0.93616901  0.37839794  0.58285609  1
  O  O226  1  0.93719983  0.89863812  0.08507488  1
  O  O227  1  0.93671857  0.86895115  0.58290192  1
  O  O228  1  0.10269355  0.13832981  0.08895363  1
  O  O229  1  0.10826118  0.13753567  0.58449642  1
  O  O230  1  0.11759941  0.65408822  0.07078130  1
  O  O231  1  0.10069717  0.62055302  0.58047614  1
  O  O232  1  0.43413443  0.12221695  0.08846926  1
  O  O233  1  0.43172641  0.12029377  0.58614458  1
  O  O234  1  0.45704660  0.64920709  0.09183123  1
  O  O235  1  0.43560190  0.61955971  0.58268039  1
  O  O236  1  0.77046906  0.13477461  0.08759897  1
  O  O237  1  0.78211157  0.12024870  0.57401973  1
  O  O238  1  0.77399115  0.62931481  0.08567844  1
  O  O239  1  0.76978794  0.62589246  0.58775457  1
  O  O240  1  0.05505519  0.11771690  0.41625012  1
  O  O241  1  0.05832221  0.10931857  0.91155926  1
  O  O242  1  0.06183179  0.62504046  0.41555891  1
  O  O243  1  0.06339531  0.59281306  0.91778073  1
  O  O244  1  0.38446652  0.13423382  0.42799526  1
  O  O245  1  0.39406616  0.12583836  0.91767254  1
  O  O246  1  0.38493256  0.62842400  0.42381186  1
  O  O247  1  0.38138204  0.62417229  0.92218562  1
  O  O248  1  0.73015644  0.12087589  0.41611710  1
  O  O249  1  0.72739324  0.11112938  0.91322170  1
  O  O250  1  0.74189453  0.60236554  0.42641923  1
  O  O251  1  0.72355898  0.60949177  0.91811358  1
  O  O252  1  0.23122436  0.38192585  0.41437271  1
  O  O253  1  0.21913379  0.36017036  0.91007945  1
  O  O254  1  0.21938309  0.87290668  0.41499811  1
  O  O255  1  0.21284223  0.86475026  0.91332655  1
  O  O256  1  0.56349656  0.36185059  0.41430933  1
  O  O257  1  0.53728763  0.35186562  0.91566726  1
  O  O258  1  0.57360116  0.85667532  0.42805205  1
  O  O259  1  0.56105464  0.84952123  0.92507231  1
  O  O260  1  0.89441284  0.36206476  0.41456944  1
  O  O261  1  0.88001941  0.36547019  0.92166531  1
  O  O262  1  0.89398812  0.87305468  0.41320346  1
  O  O263  1  0.90279753  0.85459465  0.92226115  1
  O  O264  1  0.06372337  0.37502823  0.41605153  1
  O  O265  1  0.06606117  0.40029654  0.92064074  1
  O  O266  1  0.05767402  0.88015051  0.41872747  1
  O  O267  1  0.05321619  0.89988971  0.90999277  1
  O  O268  1  0.39842458  0.36272907  0.41635007  1
  O  O269  1  0.38015421  0.38602919  0.91114347  1
  O  O270  1  0.38359209  0.86739629  0.42525535  1
  O  O271  1  0.37512681  0.88201279  0.92425634  1
  O  O272  1  0.72944606  0.38700559  0.41408528  1
  O  O273  1  0.72133486  0.40344330  0.91943624  1
  O  O274  1  0.72985287  0.89522146  0.41941161  1
  O  O275  1  0.71798187  0.88349797  0.92427650  1
  O  O276  1  0.21745839  0.13017023  0.41687261  1
  O  O277  1  0.22505098  0.13449602  0.91240706  1
  O  O278  1  0.22344607  0.62212195  0.41484334  1
  O  O279  1  0.21749795  0.63792938  0.91233099  1
  O  O280  1  0.56919069  0.14953133  0.42257988  1
  O  O281  1  0.56149675  0.13585359  0.91612423  1
  O  O282  1  0.56634097  0.63303881  0.43536172  1
  O  O283  1  0.56714430  0.64138859  0.92387512  1
  O  O284  1  0.89193726  0.13687675  0.41609636  1
  O  O285  1  0.89323782  0.14005287  0.91321488  1
  O  O286  1  0.90101846  0.62650042  0.41739516  1
  O  O287  1  0.88128122  0.64062640  0.91638795  1
  O  O288  1  0.16085233  0.00659374  0.08636789  1
  O  O289  1  0.17137632  0.00619919  0.58414408  1
  O  O290  1  0.15228467  0.49768301  0.07035914  1
  O  O291  1  0.17703097  0.49437010  0.58256045  1
  O  O292  1  0.52526220  0.00294317  0.08691835  1
  O  O293  1  0.51981601  -0.00232692  0.59265877  1
  O  O294  1  0.50187608  0.51264005  0.07433976  1
  O  O295  1  0.51648550  0.49916621  0.58198269  1
  O  O296  1  0.82859244  0.00356435  0.08608415  1
  O  O297  1  0.86232677  -0.00547369  0.58358239  1
  O  O298  1  0.83298447  0.49438184  0.08814580  1
  O  O299  1  0.85791774  0.50361676  0.58034702  1
  O  O300  1  -0.01241648  0.24559868  0.09056818  1
  O  O301  1  0.00858806  0.25038366  0.58282557  1
  O  O302  1  -0.01255944  0.76590241  0.07609622  1
  O  O303  1  0.02582563  0.74902228  0.58289242  1
  O  O304  1  0.34074963  0.24130154  0.08507626  1
  O  O305  1  0.35314149  0.24855833  0.58432388  1
  O  O306  1  0.33528313  0.74279601  0.07613099  1
  O  O307  1  0.34004314  0.73582266  0.57093809  1
  O  O308  1  0.67718518  0.25109408  0.08699103  1
  O  O309  1  0.68882848  0.26163923  0.57444604  1
  O  O310  1  0.68497467  0.75050026  0.08764374  1
  O  O311  1  0.68665881  0.74872652  0.58513264  1
  O  O312  1  0.14420686  0.00013860  0.41818191  1
  O  O313  1  0.16629398  0.00192838  0.91066802  1
  O  O314  1  0.13846824  0.49990236  0.41567365  1
  O  O315  1  0.18343271  0.49882807  0.90532645  1
  O  O316  1  0.49309503  0.00000468  0.43597875  1
  O  O317  1  0.49051295  0.00988081  0.92264297  1
  O  O318  1  0.48302494  0.48539996  0.42391259  1
  O  O319  1  0.49303817  0.49011765  0.91898491  1
  O  O320  1  0.83267142  0.00526257  0.41754265  1
  O  O321  1  0.84102611  0.00823412  0.92215195  1
  O  O322  1  0.84292309  0.49432475  0.41367057  1
  O  O323  1  0.83603536  0.50301759  0.91621306  1
  O  O324  1  0.29244094  0.25309199  0.41612256  1
  O  O325  1  0.32011393  0.25110987  0.91287390  1
  O  O326  1  0.29222721  0.74860933  0.41362175  1
  O  O327  1  0.30983888  0.75199755  0.91075364  1
  O  O328  1  0.67623435  0.25477204  0.41275663  1
  O  O329  1  0.67254654  0.24142517  0.92339339  1
  O  O330  1  0.69253209  0.75878927  0.42194872  1
  O  O331  1  0.67498839  0.74690496  0.91576731  1
  O  O332  1  0.99285708  0.24891714  0.41536846  1
  O  O333  1  1.00824962  0.24258724  0.91980098  1
  O  O334  1  0.98102796  0.75088915  0.41589367  1
  O  O335  1  1.02450720  0.75872721  0.91728216  1
  O  O336  1  0.20532062  0.08563591  0.19769136  1
  O  O337  1  0.20845409  0.08673621  0.69418550  1
  O  O338  1  0.21226861  0.58340607  0.19949060  1
  O  O339  1  0.20910866  0.58298302  0.69075417  1
  O  O340  1  0.54453504  0.08602277  0.19708468  1
  O  O341  1  0.54830699  0.09271712  0.69373335  1
  O  O342  1  0.55167805  0.57584717  0.19216073  1
  O  O343  1  0.54667799  0.57736277  0.69303575  1
  O  O344  1  0.87307209  0.08605117  0.19638199  1
  O  O345  1  0.88002594  0.08289524  0.69169525  1
  O  O346  1  0.87649901  0.57975975  0.19420669  1
  O  O347  1  0.88136403  0.57774176  0.69301246  1
  O  O348  1  0.04105646  0.33051924  0.19537324  1
  O  O349  1  0.04389858  0.33270648  0.69160922  1
  O  O350  1  0.03420438  0.83731522  0.19182331  1
  O  O351  1  0.04552623  0.83441984  0.69332008  1
  O  O352  1  0.37501967  0.32905769  0.19213258  1
  O  O353  1  0.37575504  0.33238017  0.69267069  1
  O  O354  1  0.37599758  0.83443437  0.20097025  1
  O  O355  1  0.37528264  0.83231725  0.69705322  1
  O  O356  1  0.71208064  0.33295650  0.19497547  1
  O  O357  1  0.71346134  0.33668748  0.69107506  1
  O  O358  1  0.70164877  0.83322731  0.19726762  1
  O  O359  1  0.71328403  0.83146378  0.69490749  1
  O  O360  1  0.21037325  0.41420937  0.20016594  1
  O  O361  1  0.21188563  0.40865606  0.69083294  1
  O  O362  1  0.20742440  0.92232378  0.19318404  1
  O  O363  1  0.20619143  0.91903218  0.69055101  1
  O  O364  1  0.54543232  0.41626941  0.20141563  1
  O  O365  1  0.54097657  0.41641592  0.69300211  1
  O  O366  1  0.54593019  0.92011386  0.19548171  1
  O  O367  1  0.55237236  0.90594203  0.69494453  1
  O  O368  1  0.87936676  0.41445004  0.19675838  1
  O  O369  1  0.87624265  0.41915700  0.69233682  1
  O  O370  1  0.87877249  0.92737264  0.19595453  1
  O  O371  1  0.88201370  0.91708073  0.69386138  1
  O  O372  1  0.03909170  0.16478071  0.19764443  1
  O  O373  1  0.04362339  0.16865120  0.69391452  1
  O  O374  1  0.04466955  0.66620477  0.19817000  1
  O  O375  1  0.04611589  0.66589206  0.69148661  1
  O  O376  1  0.37274807  0.16465521  0.19695893  1
  O  O377  1  0.37495244  0.16721185  0.69479951  1
  O  O378  1  0.37216386  0.66945835  0.19335094  1
  O  O379  1  0.36887530  0.66108522  0.68821681  1
  O  O380  1  0.70894356  0.16758788  0.19674158  1
  O  O381  1  0.71422981  0.16782725  0.70047957  1
  O  O382  1  0.71349833  0.66515788  0.19551765  1
  O  O383  1  0.70162335  0.66647286  0.69481969  1
  O  O384  1  0.11856194  0.08373006  0.30696260  1
  O  O385  1  0.12434426  0.08525370  0.80253363  1
  O  O386  1  0.11879731  0.57889543  0.30465896  1
  O  O387  1  0.12390803  0.58440385  0.80212378  1
  O  O388  1  0.45416659  0.08454479  0.30221745  1
  O  O389  1  0.45287331  0.09245542  0.80853788  1
  O  O390  1  0.45365292  0.57961151  0.29920405  1
  O  O391  1  0.45095562  0.58021581  0.79722397  1
  O  O392  1  0.79083817  0.08653382  0.30687491  1
  O  O393  1  0.79692851  0.08402795  0.80555949  1
  O  O394  1  0.79558972  0.57974110  0.30762499  1
  O  O395  1  0.78433707  0.57719954  0.80759439  1
  O  O396  1  0.28799902  0.33114143  0.30558678  1
  O  O397  1  0.28796462  0.33103687  0.80178367  1
  O  O398  1  0.28645681  0.83506718  0.30674343  1
  O  O399  1  0.28155794  0.84223259  0.80530431  1
  O  O400  1  0.62782849  0.33395273  0.30492431  1
  O  O401  1  0.62325587  0.33257870  0.79620766  1
  O  O402  1  0.62856343  0.83681560  0.31195543  1
  O  O403  1  0.62435050  0.83304924  0.81019680  1
  O  O404  1  0.95780320  0.33187267  0.30555451  1
  O  O405  1  0.95558295  0.33489445  0.79696845  1
  O  O406  1  0.96486849  0.83290590  0.30676227  1
  O  O407  1  0.96110898  0.83508374  0.80616857  1
  O  O408  1  0.11982325  0.41424072  0.30567683  1
  O  O409  1  0.12101232  0.41264743  0.80299236  1
  O  O410  1  0.11499653  0.92341376  0.30680821  1
  O  O411  1  0.12234877  0.92013184  0.80136565  1
  O  O412  1  0.45411500  0.40990366  0.30727956  1
  O  O413  1  0.45305782  0.41368015  0.80397555  1
  O  O414  1  0.45468015  0.91824508  0.30235533  1
  O  O415  1  0.45063398  0.91068412  0.80229555  1
  O  O416  1  0.79356291  0.41389113  0.30487812  1
  O  O417  1  0.79090043  0.41758476  0.80711225  1
  O  O418  1  0.78661364  0.92655101  0.30797489  1
  O  O419  1  0.79188662  0.91828522  0.79744735  1
  O  O420  1  0.28572250  0.16671992  0.30921023  1
  O  O421  1  0.28941710  0.16728673  0.80438975  1
  O  O422  1  0.28725642  0.66577472  0.30603078  1
  O  O423  1  0.28610434  0.66356079  0.80387015  1
  O  O424  1  0.62691200  0.16876169  0.30707714  1
  O  O425  1  0.62512962  0.16751477  0.80714224  1
  O  O426  1  0.62526502  0.66449916  0.30228768  1
  O  O427  1  0.62911846  0.66470999  0.80887651  1
  O  O428  1  0.95497142  0.16724113  0.30596138  1
  O  O429  1  0.95991400  0.16665311  0.80439746  1
  O  O430  1  0.95609236  0.66549924  0.30572145  1
  O  O431  1  0.96871357  0.66668419  0.79964433  1
  F  F432  1  0.04227578  0.00344361  0.20271794  1
  F  F433  1  0.04577385  0.00233257  0.69944129  1
  F  F434  1  0.04447249  0.49735673  0.20156063  1
  F  F435  1  0.04030864  0.49833311  0.69728931  1
  F  F436  1  0.37391548  0.00252500  0.20154775  1
  F  F437  1  0.36345572  0.00277302  0.69670825  1
  F  F438  1  0.37904534  0.49505006  0.20160884  1
  F  F439  1  0.37782630  0.49323661  0.69480067  1
  F  F440  1  0.71073165  0.00413141  0.20354477  1
  F  F441  1  0.71449990  0.00399283  0.69743432  1
  F  F442  1  0.71600012  0.49889503  0.20485014  1
  F  F443  1  0.71270759  0.49912867  0.70205635  1
  F  F444  1  0.20941829  0.24671246  0.20460704  1
  F  F445  1  0.21135583  0.24884988  0.69936717  1
  F  F446  1  0.21365778  0.74987618  0.20160678  1
  F  F447  1  0.20255684  0.74930610  0.69443033  1
  F  F448  1  0.54543246  0.24747649  0.20441276  1
  F  F449  1  0.54280607  0.24941692  0.69955759  1
  F  F450  1  0.54806138  0.75796686  0.20555862  1
  F  F451  1  0.54840446  0.75081771  0.70346411  1
  F  F452  1  0.87793121  0.24883265  0.20337690  1
  F  F453  1  0.87937628  0.24859996  0.69875826  1
  F  F454  1  0.88307386  0.73972592  0.19938296  1
  F  F455  1  0.88567759  0.76192631  0.69692171  1
  F  F456  1  0.28304996  0.00160548  0.29963675  1
  F  F457  1  0.28461509  0.00350952  0.79744532  1
  F  F458  1  0.28841751  0.49676825  0.30058478  1
  F  F459  1  0.28985843  0.49866837  0.79288703  1
  F  F460  1  0.62099403  0.00270222  0.29954839  1
  F  F461  1  0.63670015  0.00188516  0.80004092  1
  F  F462  1  0.62581324  0.49885303  0.30130846  1
  F  F463  1  0.61864872  0.49766810  0.79642462  1
  F  F464  1  0.95258784  0.00358589  0.30118488  1
  F  F465  1  0.95707527  0.00183442  0.79509526  1
  F  F466  1  0.95658652  0.49814122  0.29801176  1
  F  F467  1  0.95489740  0.49927604  0.79723233  1
  F  F468  1  0.11873954  0.24967645  0.29948549  1
  F  F469  1  0.12224983  0.24982248  0.79539850  1
  F  F470  1  0.11930442  0.74741651  0.29857287  1
  F  F471  1  0.12353618  0.75173131  0.79392195  1
  F  F472  1  0.45319213  0.25030945  0.29741543  1
  F  F473  1  0.45320922  0.25050492  0.79543933  1
  F  F474  1  0.45122380  0.75286091  0.30411246  1
  F  F475  1  0.45533191  0.74745273  0.80078986  1
  F  F476  1  0.78941017  0.25084299  0.29856556  1
  F  F477  1  0.79148463  0.25270406  0.79687481  1
  F  F478  1  0.78628645  0.73926389  0.30258182  1
  F  F479  1  0.78371081  0.76057365  0.80206429  1
