# generated using pymatgen
data_K24Na3Li5Mg64Fe17Si79(O5F)48
_symmetry_space_group_name_H-M   'P 1'
_cell_length_a   16.08812538
_cell_length_b   18.59956117
_cell_length_c   20.55674419
_cell_angle_alpha   90.00740008
_cell_angle_beta   100.01278843
_cell_angle_gamma   89.98346245
_symmetry_Int_Tables_number   1
_chemical_formula_structural   K24Na3Li5Mg64Fe17Si79(O5F)48
_chemical_formula_sum   'K24 Na3 Li5 Mg64 Fe17 Si79 O240 F48'
_cell_volume   6057.54721131
_cell_formula_units_Z   1
loop_
 _symmetry_equiv_pos_site_id
 _symmetry_equiv_pos_as_xyz
  1  'x, y, z'
loop_
 _atom_site_type_symbol
 _atom_site_label
 _atom_site_symmetry_multiplicity
 _atom_site_fract_x
 _atom_site_fract_y
 _atom_site_fract_z
 _atom_site_occupancy
  K  K0  1  -0.00772309  -0.00055241  -0.00641687  1
  K  K1  1  0.01306023  -0.00227524  0.50845589  1
  K  K2  1  -0.00411720  0.49984932  -0.00478456  1
  K  K3  1  0.00955240  0.49790612  0.50475295  1
  K  K4  1  0.32247639  0.00324934  -0.00174227  1
  K  K5  1  0.34242153  -0.00706305  0.50530116  1
  K  K6  1  0.32889504  0.49544184  -0.00424294  1
  K  K7  1  0.32615782  0.50510996  0.50101255  1
  K  K8  1  0.66544593  0.00640795  -0.00812322  1
  K  K9  1  0.65903063  -0.00543348  0.51100884  1
  K  K10  1  0.66489229  0.49945865  -0.00896730  1
  K  K11  1  0.66416522  0.50351319  0.50648817  1
  K  K12  1  0.17662412  0.24038301  -0.00589153  1
  K  K13  1  0.17056155  0.24588893  0.50329480  1
  K  K14  1  0.16817343  0.75607608  0.00007491  1
  K  K15  1  0.18308747  0.75572133  0.50460865  1
  K  K16  1  0.49214782  0.24992015  -0.00585350  1
  K  K17  1  0.49013996  0.24251748  0.49772134  1
  K  K18  1  0.48925701  0.74561315  0.00037804  1
  K  K19  1  0.49829458  0.76329185  0.50477907  1
  K  K20  1  0.82705127  0.24631406  -0.00590855  1
  K  K21  1  0.84360342  0.25084484  0.51279332  1
  K  K22  1  0.82463548  0.75138033  -0.00831703  1
  K  K23  1  0.83207395  0.74882608  0.50685988  1
  Na  Na24  1  0.50080312  0.49754602  0.74993302  1
  Na  Na25  1  0.83764770  0.33061257  0.74719564  1
  Na  Na26  1  0.33430219  0.91874511  0.74836891  1
  Li  Li27  1  0.17390727  -0.00392443  0.75173880  1
  Li  Li28  1  0.33090121  0.24572602  0.25169889  1
  Li  Li29  1  0.32311446  0.91392042  0.24088037  1
  Li  Li30  1  0.17281295  0.83844886  0.24515985  1
  Li  Li31  1  0.66326745  0.91411400  0.75737606  1
  Mg  Mg32  1  0.49802093  0.50118453  0.25147176  1
  Mg  Mg33  1  0.66562135  0.25119835  0.24627657  1
  Mg  Mg34  1  0.83503374  -0.00003780  0.24941993  1
  Mg  Mg35  1  0.82895970  -0.00258598  0.75003285  1
  Mg  Mg36  1  0.33228597  0.25113421  0.75036584  1
  Mg  Mg37  1  0.66711445  0.75263273  0.75028760  1
  Mg  Mg38  1  0.17115995  -0.00250926  0.24810491  1
  Mg  Mg39  1  -0.00063554  0.75243806  0.75006421  1
  Mg  Mg40  1  0.66993596  0.25243260  0.75040178  1
  Mg  Mg41  1  0.00261368  0.75003420  0.25393786  1
  Mg  Mg42  1  0.00236865  0.24838409  0.74788365  1
  Mg  Mg43  1  0.16545175  0.50055179  0.25597409  1
  Mg  Mg44  1  0.83559785  0.49748517  0.74928504  1
  Mg  Mg45  1  0.49580396  -0.00045325  0.24872560  1
  Mg  Mg46  1  0.83173169  0.49993258  0.25097141  1
  Mg  Mg47  1  0.66487337  0.75065686  0.25434946  1
  Mg  Mg48  1  0.33676642  0.75148572  0.74869153  1
  Mg  Mg49  1  0.00039679  0.24947085  0.24918765  1
  Mg  Mg50  1  0.32789811  0.75502986  0.24803421  1
  Mg  Mg51  1  0.50488543  -0.00098733  0.75090193  1
  Mg  Mg52  1  0.16737528  0.49832409  0.75056121  1
  Mg  Mg53  1  0.33129496  0.58581674  0.25415513  1
  Mg  Mg54  1  0.83207781  0.66602644  0.25518850  1
  Mg  Mg55  1  0.16915201  0.16150635  0.74743638  1
  Mg  Mg56  1  0.00251781  0.58430184  0.74949160  1
  Mg  Mg57  1  0.83222270  0.16584192  0.24664446  1
  Mg  Mg58  1  0.00030124  0.41621507  0.25304655  1
  Mg  Mg59  1  0.50136349  0.16651916  0.74914727  1
  Mg  Mg60  1  0.50311488  0.83700379  0.74986404  1
  Mg  Mg61  1  0.00002908  0.91591639  0.74973161  1
  Mg  Mg62  1  0.32956908  0.08377994  0.24863939  1
  Mg  Mg63  1  0.49836535  0.66834897  0.25238639  1
  Mg  Mg64  1  0.33535190  0.08208100  0.75036190  1
  Mg  Mg65  1  0.00072257  0.58469273  0.25527949  1
  Mg  Mg66  1  0.66464749  0.41513778  0.24643802  1
  Mg  Mg67  1  0.16992061  0.33152239  0.25567086  1
  Mg  Mg68  1  0.50105515  0.33474337  0.75100647  1
  Mg  Mg69  1  0.00085055  0.41271462  0.74959531  1
  Mg  Mg70  1  0.83590929  0.66631047  0.75057507  1
  Mg  Mg71  1  0.49491606  0.16718167  0.25044994  1
  Mg  Mg72  1  0.83442353  0.83445720  0.25181486  1
  Mg  Mg73  1  0.16528904  0.33221646  0.74926101  1
  Mg  Mg74  1  0.66423309  0.58540541  0.25356267  1
  Mg  Mg75  1  0.16854361  0.83734232  0.74849970  1
  Mg  Mg76  1  0.50288565  0.66565306  0.74899397  1
  Mg  Mg77  1  0.66954374  0.08405175  0.74795235  1
  Mg  Mg78  1  0.66527620  0.91666097  0.25070008  1
  Mg  Mg79  1  0.66988809  0.58259196  0.75187319  1
  Mg  Mg80  1  0.00533679  0.91414765  0.24993134  1
  Mg  Mg81  1  0.00293311  0.08324358  0.24915104  1
  Mg  Mg82  1  0.67057231  0.41671960  0.75015539  1
  Mg  Mg83  1  0.33245826  0.41382870  0.25372596  1
  Mg  Mg84  1  0.49391479  0.83581338  0.24821029  1
  Mg  Mg85  1  0.83033081  0.33390774  0.24677390  1
  Mg  Mg86  1  0.16544717  0.66757071  0.25541741  1
  Mg  Mg87  1  0.49690735  0.33326032  0.24988456  1
  Mg  Mg88  1  0.33185943  0.41511993  0.74924733  1
  Mg  Mg89  1  0.82984797  0.83595946  0.75064083  1
  Mg  Mg90  1  0.17070026  0.66805100  0.75091706  1
  Mg  Mg91  1  0.66437305  0.08498754  0.24771848  1
  Mg  Mg92  1  0.33612276  0.58257668  0.74899666  1
  Mg  Mg93  1  0.00284480  0.07950711  0.74730246  1
  Mg  Mg94  1  0.17073219  0.16566952  0.24998558  1
  Mg  Mg95  1  0.83806472  0.16553364  0.75126727  1
  Fe  Fe96  1  0.35417473  0.83426478  0.10830211  1
  Fe  Fe97  1  0.96916797  0.83418279  0.88907954  1
  Fe  Fe98  1  0.97814742  0.32910786  0.89172673  1
  Fe  Fe99  1  0.79705497  0.91866524  0.89087614  1
  Fe  Fe100  1  0.02374980  0.33076307  0.60584552  1
  Fe  Fe101  1  0.46755226  0.91951142  0.89404551  1
  Fe  Fe102  1  0.52754248  0.92204985  0.60831356  1
  Fe  Fe103  1  0.13817573  0.58820820  0.39475499  1
  Fe  Fe104  1  0.30339826  0.33308290  0.88896611  1
  Fe  Fe105  1  0.30761124  0.16382449  0.39124274  1
  Fe  Fe106  1  0.35932352  0.83000575  0.60537753  1
  Fe  Fe107  1  0.18558910  0.08694234  0.10678185  1
  Fe  Fe108  1  0.64175119  0.66742872  0.39340610  1
  Fe  Fe109  1  0.69088364  0.33157294  0.10631509  1
  Fe  Fe110  1  0.80896247  0.41481573  0.89031732  1
  Fe  Fe111  1  0.62885672  0.82915038  0.89253819  1
  Fe  Fe112  1  0.30036265  0.83111479  0.89010822  1
  Si  Si113  1  0.86239290  0.42061691  0.11483673  1
  Si  Si114  1  0.19359510  0.41752881  0.61119215  1
  Si  Si115  1  0.47447365  0.41949738  0.38693098  1
  Si  Si116  1  0.48064980  0.91740583  0.38410086  1
  Si  Si117  1  0.35938594  0.33584473  0.11766291  1
  Si  Si118  1  0.81444187  0.58350400  0.88617618  1
  Si  Si119  1  0.02429110  0.33707890  0.11887159  1
  Si  Si120  1  0.13313637  0.91567836  0.88429640  1
  Si  Si121  1  0.31296207  0.66248771  0.88681252  1
  Si  Si122  1  0.86372891  0.91371125  0.11613329  1
  Si  Si123  1  0.97353064  0.83555484  0.38695280  1
  Si  Si124  1  0.63646743  0.33676410  0.88647023  1
  Si  Si125  1  0.30771115  0.67272410  0.38871692  1
  Si  Si126  1  0.69050576  0.15983739  0.11085438  1
  Si  Si127  1  0.85791844  0.07810464  0.61411070  1
  Si  Si128  1  0.53124968  0.57908035  0.61474164  1
  Si  Si129  1  0.98441525  0.16179283  0.88513397  1
  Si  Si130  1  0.97417906  0.32944311  0.38453391  1
  Si  Si131  1  0.47603684  0.58040691  0.88360403  1
  Si  Si132  1  0.36333404  0.16869695  0.11309642  1
  Si  Si133  1  0.30995829  0.16315913  0.88532544  1
  Si  Si134  1  0.18263400  0.91930536  0.10858012  1
  Si  Si135  1  0.86004687  0.08019865  0.11437451  1
  Si  Si136  1  0.14429142  0.58323236  0.88413629  1
  Si  Si137  1  0.81017701  0.92381053  0.38593206  1
  Si  Si138  1  0.64453494  0.66152154  0.88760681  1
  Si  Si139  1  0.64051917  0.16983491  0.38369054  1
  Si  Si140  1  0.63988207  0.33587137  0.38465169  1
  Si  Si141  1  0.14444759  0.07690276  0.87953686  1
  Si  Si142  1  0.30964936  0.33517488  0.39036921  1
  Si  Si143  1  0.64760484  0.83756572  0.38898166  1
  Si  Si144  1  0.14108074  0.41486992  0.39098116  1
  Si  Si145  1  0.36226778  0.65898053  0.61098203  1
  Si  Si146  1  0.80599858  0.08854504  0.38371743  1
  Si  Si147  1  0.86125620  0.58640308  0.61313437  1
  Si  Si148  1  0.13556175  0.07903821  0.38808874  1
  Si  Si149  1  0.69493963  0.82898046  0.61091862  1
  Si  Si150  1  0.64332994  0.17250667  0.88295206  1
  Si  Si151  1  0.98033798  0.66610468  0.88613386  1
  Si  Si152  1  0.18922312  0.57766358  0.11843274  1
  Si  Si153  1  0.19059948  0.41262695  0.11907256  1
  Si  Si154  1  0.46979635  0.58570791  0.38938951  1
  Si  Si155  1  0.18778688  0.91685730  0.60989601  1
  Si  Si156  1  0.35797591  0.17098920  0.61430781  1
  Si  Si157  1  0.19585612  0.08303568  0.61253394  1
  Si  Si158  1  0.36083040  0.33666912  0.61336402  1
  Si  Si159  1  0.01883994  0.17367041  0.11307628  1
  Si  Si160  1  0.85828705  0.42307545  0.60856942  1
  Si  Si161  1  0.85610050  0.58598675  0.11777507  1
  Si  Si162  1  0.69844223  0.17101606  0.61329333  1
  Si  Si163  1  0.69356009  0.33506913  0.61219007  1
  Si  Si164  1  0.69314504  0.66511539  0.61428074  1
  Si  Si165  1  0.52156708  0.42124569  0.11239401  1
  Si  Si166  1  0.81138047  0.08905056  0.88626574  1
  Si  Si167  1  0.13755208  0.42036953  0.88868316  1
  Si  Si168  1  0.97249460  0.16476318  0.38370789  1
  Si  Si169  1  0.85766876  0.91348029  0.61251821  1
  Si  Si170  1  0.96467749  0.66943800  0.39127149  1
  Si  Si171  1  0.47000243  0.41450019  0.88624907  1
  Si  Si172  1  0.52446469  0.08108679  0.11515093  1
  Si  Si173  1  0.53007658  0.41125001  0.61282168  1
  Si  Si174  1  0.69559623  0.83596441  0.11728961  1
  Si  Si175  1  0.81002173  0.41316908  0.38496199  1
  Si  Si176  1  0.19262267  0.58303386  0.61550041  1
  Si  Si177  1  0.52264540  0.58665370  0.11651977  1
  Si  Si178  1  0.31175746  0.83714644  0.38158306  1
  Si  Si179  1  0.48094025  0.08655539  0.88613315  1
  Si  Si180  1  0.02652264  0.82846981  0.11653590  1
  Si  Si181  1  0.35161585  0.66274986  0.11487413  1
  Si  Si182  1  0.47915336  0.08151479  0.38784870  1
  Si  Si183  1  0.52838607  0.09422245  0.61126741  1
  Si  Si184  1  0.02493316  0.83515288  0.61166386  1
  Si  Si185  1  0.02408413  0.66411456  0.11729906  1
  Si  Si186  1  0.14279911  0.91368773  0.38440618  1
  Si  Si187  1  0.52878252  0.91553106  0.11360684  1
  Si  Si188  1  0.02802712  0.66915096  0.61387686  1
  Si  Si189  1  0.02467387  0.15941131  0.60979127  1
  Si  Si190  1  0.69053118  0.66978643  0.11764828  1
  Si  Si191  1  0.80546011  0.57696353  0.38902999  1
  O  O192  1  0.28103851  0.12653899  0.07577331  1
  O  O193  1  0.27230046  0.12552791  0.58218491  1
  O  O194  1  0.27149750  0.60650999  0.08890537  1
  O  O195  1  0.27272677  0.61410657  0.58485384  1
  O  O196  1  0.60897065  0.10725080  0.08675145  1
  O  O197  1  0.60399858  0.14051948  0.58238012  1
  O  O198  1  0.60290304  0.62543399  0.08932743  1
  O  O199  1  0.60763541  0.61859268  0.58277943  1
  O  O200  1  0.93433116  0.12319987  0.08554660  1
  O  O201  1  0.93838790  0.11005975  0.58280995  1
  O  O202  1  0.93619281  0.62003043  0.08823683  1
  O  O203  1  0.93907781  0.62659291  0.58353216  1
  O  O204  1  0.10878093  0.36220510  0.09014485  1
  O  O205  1  0.11568577  0.37127957  0.57190287  1
  O  O206  1  0.10413967  0.85982293  0.08450994  1
  O  O207  1  0.09381353  0.87979365  0.57751879  1
  O  O208  1  0.43098226  0.38067042  0.08588330  1
  O  O209  1  0.43981773  0.37129464  0.58190280  1
  O  O210  1  0.45626078  0.86168420  0.08044448  1
  O  O211  1  0.43242972  0.87868130  0.56061866  1
  O  O212  1  0.78841207  0.36886149  0.07935996  1
  O  O213  1  0.76390116  0.38511731  0.58398657  1
  O  O214  1  0.77861008  0.86640654  0.08940408  1
  O  O215  1  0.77704535  0.86320402  0.58103009  1
  O  O216  1  0.27013173  0.37847946  0.08943135  1
  O  O217  1  0.27951575  0.38780231  0.58463085  1
  O  O218  1  0.26212312  0.89300558  0.07512393  1
  O  O219  1  0.25357988  0.87428269  0.57295799  1
  O  O220  1  0.59402300  0.38717424  0.07674256  1
  O  O221  1  0.60116860  0.36908841  0.57715734  1
  O  O222  1  0.61831983  0.89038871  0.08960375  1
  O  O223  1  0.61580403  0.87473474  0.57400830  1
  O  O224  1  0.95254882  0.39795887  0.09246752  1
  O  O225  1  0.92375222  0.38212977  0.56944265  1
  O  O226  1  0.94087356  0.87572755  0.08718016  1
  O  O227  1  0.93556055  0.87645202  0.58128666  1
  O  O228  1  0.09486145  0.15154204  0.07639606  1
  O  O229  1  0.10464143  0.12150267  0.58092859  1
  O  O230  1  0.10267776  0.62397302  0.08943490  1
  O  O231  1  0.10629928  0.62940651  0.58548260  1
  O  O232  1  0.44710582  0.13529127  0.08496427  1
  O  O233  1  0.43996151  0.14062544  0.58491811  1
  O  O234  1  0.43574192  0.62992010  0.08740713  1
  O  O235  1  0.43778652  0.61179854  0.58365460  1
  O  O236  1  0.77023619  0.11910157  0.08492711  1
  O  O237  1  0.77172737  0.12489612  0.58308076  1
  O  O238  1  0.76998494  0.63246046  0.08875151  1
  O  O239  1  0.77321323  0.62951849  0.58424524  1
  O  O240  1  0.04915868  0.11079010  0.41406575  1
  O  O241  1  0.06030176  0.10214470  0.91036300  1
  O  O242  1  0.04560340  0.62645160  0.42878039  1
  O  O243  1  0.05873765  0.60815743  0.91215791  1
  O  O244  1  0.40680911  0.11127162  0.42583251  1
  O  O245  1  0.39603227  0.11626120  0.91322328  1
  O  O246  1  0.38437404  0.61450724  0.41511494  1
  O  O247  1  0.39269194  0.60609328  0.91523207  1
  O  O248  1  0.72803969  0.12578627  0.41310379  1
  O  O249  1  0.73034564  0.12876271  0.91331508  1
  O  O250  1  0.72494272  0.59638115  0.42236561  1
  O  O251  1  0.72825731  0.60982146  0.91342356  1
  O  O252  1  0.22722072  0.36868349  0.41920214  1
  O  O253  1  0.21103972  0.36640311  0.92457638  1
  O  O254  1  0.23226550  0.87243230  0.41368721  1
  O  O255  1  0.19826679  0.85414884  0.91793065  1
  O  O256  1  0.56196265  0.37348847  0.41502697  1
  O  O257  1  0.54875942  0.35908237  0.91322813  1
  O  O258  1  0.56473174  0.86954708  0.41677631  1
  O  O259  1  0.53706662  0.84630345  0.93248779  1
  O  O260  1  0.89122341  0.36076042  0.41275658  1
  O  O261  1  0.88635304  0.34882002  0.93203440  1
  O  O262  1  0.89960217  0.88248145  0.41526644  1
  O  O263  1  0.88017743  0.85541940  0.93101493  1
  O  O264  1  0.05864493  0.37498932  0.41516389  1
  O  O265  1  0.05292236  0.40643283  0.91923003  1
  O  O266  1  0.06650417  0.87066946  0.41486610  1
  O  O267  1  0.04693759  0.90786049  0.91520952  1
  O  O268  1  0.39434196  0.38683334  0.41672160  1
  O  O269  1  0.39409109  0.39371327  0.92514061  1
  O  O270  1  0.39694801  0.88539285  0.41028664  1
  O  O271  1  0.37038183  0.90399884  0.92723416  1
  O  O272  1  0.72756319  0.38076232  0.41362658  1
  O  O273  1  0.70771516  0.39111387  0.92186669  1
  O  O274  1  0.72951134  0.89209675  0.41525616  1
  O  O275  1  0.70709811  0.89576753  0.93182683  1
  O  O276  1  0.21338942  0.12619910  0.42512119  1
  O  O277  1  0.22707567  0.12691408  0.91062415  1
  O  O278  1  0.23043004  0.64843378  0.42477564  1
  O  O279  1  0.22683242  0.63274298  0.91363403  1
  O  O280  1  0.56557658  0.13089617  0.41456627  1
  O  O281  1  0.56087816  0.14313058  0.91246707  1
  O  O282  1  0.54604092  0.63538302  0.42551554  1
  O  O283  1  0.56227986  0.62495798  0.91530966  1
  O  O284  1  0.88898437  0.13718539  0.41297096  1
  O  O285  1  0.89697208  0.13809449  0.91243217  1
  O  O286  1  0.88151058  0.63412364  0.41671167  1
  O  O287  1  0.89386950  0.63958056  0.91297391  1
  O  O288  1  0.14917808  -0.00399073  0.07455585  1
  O  O289  1  0.18565188  0.00145984  0.58130755  1
  O  O290  1  0.17171036  0.49489576  0.08993904  1
  O  O291  1  0.17800432  0.50157510  0.58477566  1
  O  O292  1  0.50662800  -0.00105754  0.08786044  1
  O  O293  1  0.52191961  0.01836665  0.57356588  1
  O  O294  1  0.50987117  0.50548867  0.08608610  1
  O  O295  1  0.52820146  0.49520102  0.58609203  1
  O  O296  1  0.85392028  -0.00335590  0.08776398  1
  O  O297  1  0.84214420  -0.00381542  0.58226040  1
  O  O298  1  0.84178238  0.50420824  0.08904486  1
  O  O299  1  0.84864697  0.50673681  0.57859615  1
  O  O300  1  -0.00934734  0.25779466  0.09152118  1
  O  O301  1  0.00778753  0.23584987  0.57197929  1
  O  O302  1  0.01128408  0.74543764  0.08733065  1
  O  O303  1  0.01824173  0.75118739  0.58251544  1
  O  O304  1  0.35641902  0.25425438  0.08758071  1
  O  O305  1  0.34308255  0.25417336  0.58442821  1
  O  O306  1  0.32748250  0.73799022  0.07907612  1
  O  O307  1  0.35287814  0.73366472  0.57131805  1
  O  O308  1  0.67397091  0.23638116  0.07464021  1
  O  O309  1  0.70218459  0.25311712  0.58213052  1
  O  O310  1  0.67893561  0.75269538  0.08982390  1
  O  O311  1  0.68315706  0.74520979  0.58100623  1
  O  O312  1  0.14400250  -0.00480117  0.41629665  1
  O  O313  1  0.17072900  -0.00316605  0.90813221  1
  O  O314  1  0.15246872  0.49235327  0.42662347  1
  O  O315  1  0.16983063  0.50312180  0.91326948  1
  O  O316  1  0.50218250  -0.00132979  0.41438791  1
  O  O317  1  0.50913518  0.01245453  0.92346213  1
  O  O318  1  0.48863061  0.50155386  0.41600544  1
  O  O319  1  0.49923015  0.49758927  0.90931724  1
  O  O320  1  0.82273176  0.00700273  0.41338820  1
  O  O321  1  0.82654337  0.01354353  0.92439034  1
  O  O322  1  0.83504891  0.49399769  0.41378242  1
  O  O323  1  0.84191460  0.50843748  0.92285006  1
  O  O324  1  0.33000908  0.25848463  0.42580258  1
  O  O325  1  0.32618750  0.23989764  0.92303643  1
  O  O326  1  0.33353391  0.75570427  0.41360548  1
  O  O327  1  0.33749089  0.73791496  0.92277414  1
  O  O328  1  0.65195834  0.25284083  0.41294164  1
  O  O329  1  0.65906593  0.25405608  0.91315131  1
  O  O330  1  0.67486059  0.76095696  0.42316916  1
  O  O331  1  0.66550551  0.73609310  0.92626521  1
  O  O332  1  0.99073583  0.24686153  0.41223263  1
  O  O333  1  1.01828187  0.23618173  0.92066346  1
  O  O334  1  0.96795933  0.75434867  0.41663729  1
  O  O335  1  1.01062379  0.74149507  0.92020033  1
  O  O336  1  0.20628240  0.08383597  0.19826991  1
  O  O337  1  0.21589544  0.08734538  0.69138170  1
  O  O338  1  0.20839514  0.58047817  0.19867375  1
  O  O339  1  0.20941016  0.58344928  0.69560594  1
  O  O340  1  0.54352336  0.08414742  0.19601681  1
  O  O341  1  0.54773116  0.09132419  0.69152442  1
  O  O342  1  0.54116906  0.58396078  0.19705199  1
  O  O343  1  0.55137335  0.58695849  0.69347836  1
  O  O344  1  0.87690780  0.08227503  0.19526585  1
  O  O345  1  0.87633654  0.08089059  0.69375628  1
  O  O346  1  0.87476499  0.58544531  0.19860729  1
  O  O347  1  0.87996039  0.58497806  0.69322518  1
  O  O348  1  0.04369463  0.33552234  0.19969192  1
  O  O349  1  0.04696647  0.33261693  0.69674733  1
  O  O350  1  0.03813473  0.82939948  0.19639638  1
  O  O351  1  0.04275688  0.83218175  0.69117705  1
  O  O352  1  0.37832922  0.33800719  0.19751107  1
  O  O353  1  0.37953258  0.33461285  0.69317485  1
  O  O354  1  0.37760658  0.83126162  0.19881648  1
  O  O355  1  0.38645000  0.82418970  0.69472070  1
  O  O356  1  0.71018593  0.33328130  0.19906687  1
  O  O357  1  0.70194383  0.33275442  0.69085592  1
  O  O358  1  0.71286435  0.83405294  0.19827096  1
  O  O359  1  0.71484400  0.82521119  0.69017232  1
  O  O360  1  0.20851196  0.41590063  0.19960358  1
  O  O361  1  0.20724103  0.41651096  0.69165493  1
  O  O362  1  0.20173888  0.92020637  0.18863058  1
  O  O363  1  0.19949758  0.91482680  0.68837830  1
  O  O364  1  0.54132336  0.41878007  0.19381628  1
  O  O365  1  0.54911213  0.40773656  0.69181145  1
  O  O366  1  0.54653372  0.91678306  0.19498495  1
  O  O367  1  0.54621427  0.91942446  0.69800604  1
  O  O368  1  0.87631633  0.41863597  0.19633763  1
  O  O369  1  0.88378029  0.42566404  0.68767920  1
  O  O370  1  0.87872958  0.91576899  0.19691543  1
  O  O371  1  0.87513056  0.91584223  0.69183545  1
  O  O372  1  0.03912028  0.16787166  0.19435515  1
  O  O373  1  0.04464545  0.16256775  0.69002169  1
  O  O374  1  0.03923552  0.66488860  0.19755378  1
  O  O375  1  0.04433446  0.66718844  0.69383839  1
  O  O376  1  0.38021687  0.16511943  0.19315151  1
  O  O377  1  0.37676464  0.17067668  0.69434229  1
  O  O378  1  0.37352799  0.66350707  0.19598908  1
  O  O379  1  0.37888753  0.66176854  0.69151816  1
  O  O380  1  0.71000394  0.16509514  0.19234078  1
  O  O381  1  0.71426675  0.17011338  0.69306336  1
  O  O382  1  0.71091854  0.66752161  0.19809479  1
  O  O383  1  0.71240192  0.66433566  0.69433771  1
  O  O384  1  0.11936088  0.08261792  0.30739919  1
  O  O385  1  0.12251406  0.08354689  0.80004602  1
  O  O386  1  0.11985485  0.58290244  0.30296579  1
  O  O387  1  0.12530043  0.58445060  0.80338092  1
  O  O388  1  0.46018718  0.08434539  0.30712292  1
  O  O389  1  0.46160773  0.08691945  0.80518661  1
  O  O390  1  0.45573076  0.58410154  0.30803424  1
  O  O391  1  0.45427920  0.58871537  0.80459187  1
  O  O392  1  0.78900427  0.08563860  0.30323635  1
  O  O393  1  0.79217302  0.08523341  0.80538318  1
  O  O394  1  0.78834565  0.58068104  0.30762019  1
  O  O395  1  0.79598884  0.58389320  0.80489334  1
  O  O396  1  0.28907173  0.33775565  0.31016320  1
  O  O397  1  0.28596927  0.33317818  0.79703978  1
  O  O398  1  0.28812607  0.83281565  0.30326318  1
  O  O399  1  0.28335197  0.82325502  0.80005533  1
  O  O400  1  0.62180552  0.33559196  0.30439857  1
  O  O401  1  0.62281706  0.33514157  0.80548857  1
  O  O402  1  0.62866297  0.83565544  0.30789370  1
  O  O403  1  0.62199220  0.82730944  0.80223399  1
  O  O404  1  0.95443046  0.33195317  0.30403572  1
  O  O405  1  0.96782403  0.32993438  0.80146209  1
  O  O406  1  0.95524844  0.83479273  0.30651517  1
  O  O407  1  0.95193545  0.83209314  0.79644485  1
  O  O408  1  0.12241374  0.41599353  0.30970766  1
  O  O409  1  0.12566090  0.41858647  0.80704342  1
  O  O410  1  0.12140905  0.91778572  0.30503890  1
  O  O411  1  0.11772997  0.91225649  0.80359700  1
  O  O412  1  0.45782260  0.41782270  0.30641518  1
  O  O413  1  0.44899682  0.40847655  0.80644354  1
  O  O414  1  0.46895141  0.91795500  0.30514569  1
  O  O415  1  0.46839085  0.91890710  0.80539780  1
  O  O416  1  0.78987800  0.41545551  0.30454985  1
  O  O417  1  0.78837798  0.42183439  0.79976013  1
  O  O418  1  0.79214254  0.91967890  0.30541351  1
  O  O419  1  0.78750426  0.91732266  0.79936080  1
  O  O420  1  0.28856982  0.16571006  0.30113577  1
  O  O421  1  0.29273931  0.16794784  0.80451441  1
  O  O422  1  0.28889011  0.66769192  0.30771735  1
  O  O423  1  0.29281046  0.66264354  0.80566706  1
  O  O424  1  0.62487377  0.16886272  0.30322097  1
  O  O425  1  0.62504803  0.17003120  0.80260562  1
  O  O426  1  0.62108443  0.66691483  0.30123743  1
  O  O427  1  0.62639490  0.66377384  0.80668364  1
  O  O428  1  0.95413683  0.16564914  0.30315058  1
  O  O429  1  0.96211389  0.16321207  0.80389904  1
  O  O430  1  0.95261272  0.66677610  0.31008675  1
  O  O431  1  0.96061388  0.66552942  0.80475979  1
  F  F432  1  0.04138191  -0.00028483  0.20222967  1
  F  F433  1  0.03393792  -0.00259456  0.69503930  1
  F  F434  1  0.04272172  0.49901114  0.20468785  1
  F  F435  1  0.04829252  0.50155733  0.70076966  1
  F  F436  1  0.38123589  0.00602387  0.20036637  1
  F  F437  1  0.38860706  0.01380493  0.69618710  1
  F  F438  1  0.37646346  0.50047270  0.20568673  1
  F  F439  1  0.36579078  0.49807803  0.69703572  1
  F  F440  1  0.71408940  0.00038241  0.20226484  1
  F  F441  1  0.71629747  0.01221003  0.69343345  1
  F  F442  1  0.71046079  0.50232264  0.20266005  1
  F  F443  1  0.71381250  0.50288853  0.69699165  1
  F  F444  1  0.20396691  0.25364319  0.20235508  1
  F  F445  1  0.21215492  0.24769111  0.69759038  1
  F  F446  1  0.20806759  0.74201487  0.20174174  1
  F  F447  1  0.21179730  0.74421716  0.69677331  1
  F  F448  1  0.54495365  0.25110974  0.20101486  1
  F  F449  1  0.54596099  0.25108738  0.70184738  1
  F  F450  1  0.54599092  0.75162985  0.20285714  1
  F  F451  1  0.54907115  0.74467445  0.69878103  1
  F  F452  1  0.87774918  0.24983107  0.20126982  1
  F  F453  1  0.88476264  0.23678838  0.69443966  1
  F  F454  1  0.87807336  0.74861189  0.20594195  1
  F  F455  1  0.87950884  0.74467889  0.69792118  1
  F  F456  1  0.28743413  0.00191932  0.29925720  1
  F  F457  1  0.28822579  0.01120531  0.80067051  1
  F  F458  1  0.28838510  0.49967379  0.30148019  1
  F  F459  1  0.28758930  0.49963172  0.79758445  1
  F  F460  1  0.62439612  0.00255482  0.29733247  1
  F  F461  1  0.62393754  0.01069860  0.79846063  1
  F  F462  1  0.62054158  0.49791703  0.29784664  1
  F  F463  1  0.63385540  0.49962897  0.79941288  1
  F  F464  1  0.95380320  0.00006352  0.29867169  1
  F  F465  1  0.95190790  0.00003383  0.79520206  1
  F  F466  1  0.95244031  0.49933935  0.30047466  1
  F  F467  1  0.95771909  0.50133825  0.79495348  1
  F  F468  1  0.11782436  0.24901356  0.30079874  1
  F  F469  1  0.12537399  0.24481746  0.79457651  1
  F  F470  1  0.11521714  0.74291902  0.30533597  1
  F  F471  1  0.12059867  0.74868386  0.79398058  1
  F  F472  1  0.46414534  0.25150182  0.30141278  1
  F  F473  1  0.45529960  0.24998622  0.79650710  1
  F  F474  1  0.45438638  0.74911430  0.29896233  1
  F  F475  1  0.45767348  0.74530622  0.79687277  1
  F  F476  1  0.78823879  0.24777036  0.29753890  1
  F  F477  1  0.78577137  0.24106902  0.79996012  1
  F  F478  1  0.78870151  0.75167779  0.30108628  1
  F  F479  1  0.78974529  0.74733549  0.79646263  1
