# generated using pymatgen
data_K24Na3Li5Mg64Fe17Si79(O5F)48
_symmetry_space_group_name_H-M   'P 1'
_cell_length_a   16.08560421
_cell_length_b   18.57998413
_cell_length_c   20.54142396
_cell_angle_alpha   89.99525396
_cell_angle_beta   100.00385004
_cell_angle_gamma   90.02308112
_symmetry_Int_Tables_number   1
_chemical_formula_structural   K24Na3Li5Mg64Fe17Si79(O5F)48
_chemical_formula_sum   'K24 Na3 Li5 Mg64 Fe17 Si79 O240 F48'
_cell_volume   6045.88024465
_cell_formula_units_Z   1
loop_
 _symmetry_equiv_pos_site_id
 _symmetry_equiv_pos_as_xyz
  1  'x, y, z'
loop_
 _atom_site_type_symbol
 _atom_site_label
 _atom_site_symmetry_multiplicity
 _atom_site_fract_x
 _atom_site_fract_y
 _atom_site_fract_z
 _atom_site_occupancy
  K  K0  1  0.00234820  -0.00108140  0.01558754  1
  K  K1  1  -0.00605680  -0.00937489  0.48973470  1
  K  K2  1  -0.00189815  0.49954485  0.00623886  1
  K  K3  1  -0.00010377  0.49528924  0.49244558  1
  K  K4  1  0.33378348  -0.00366928  0.00161242  1
  K  K5  1  0.32318248  -0.00043626  0.49286005  1
  K  K6  1  0.33714951  0.50622700  0.00331312  1
  K  K7  1  0.32509687  0.50080822  0.49962239  1
  K  K8  1  0.66958573  -0.00770023  0.01147265  1
  K  K9  1  0.66938103  -0.00390006  0.48825607  1
  K  K10  1  0.66517548  0.50373755  0.00325515  1
  K  K11  1  0.67367628  0.50552518  0.49264264  1
  K  K12  1  0.15322557  0.25792903  0.00526843  1
  K  K13  1  0.17062394  0.25159326  0.49324011  1
  K  K14  1  0.16917550  0.74460806  0.00397529  1
  K  K15  1  0.16787038  0.75384784  0.49648351  1
  K  K16  1  0.49808614  0.25329070  0.00271620  1
  K  K17  1  0.49764622  0.25294958  0.49335924  1
  K  K18  1  0.49446321  0.74470461  0.00204050  1
  K  K19  1  0.50678120  0.74763923  0.49385198  1
  K  K20  1  0.84184797  0.25689317  0.01421054  1
  K  K21  1  0.83642851  0.25525189  0.48649750  1
  K  K22  1  0.83838738  0.74740297  0.00320189  1
  K  K23  1  0.82802668  0.74617902  0.48937444  1
  Na  Na24  1  0.16212391  -0.00004618  0.25264086  1
  Na  Na25  1  -0.00201664  0.92260802  0.25387902  1
  Na  Na26  1  -0.00572017  0.41680020  0.25139465  1
  Li  Li27  1  0.83656446  -0.00165015  0.25483854  1
  Li  Li28  1  0.16815675  -0.00323619  0.74656051  1
  Li  Li29  1  0.67554644  0.92117389  0.24824850  1
  Li  Li30  1  0.66909801  0.58491075  0.25182401  1
  Li  Li31  1  0.83999729  0.33606934  0.25402032  1
  Mg  Mg32  1  0.33159514  0.24976425  0.25072983  1
  Mg  Mg33  1  0.67071247  0.25142343  0.25047071  1
  Mg  Mg34  1  0.50273448  0.00060192  0.24952755  1
  Mg  Mg35  1  0.33318853  0.75168366  0.74861769  1
  Mg  Mg36  1  0.49818820  0.50016213  0.74630063  1
  Mg  Mg37  1  -0.00209553  0.75334633  0.25170282  1
  Mg  Mg38  1  0.16678613  0.50041794  0.75200800  1
  Mg  Mg39  1  -0.00390068  0.25133110  0.25164003  1
  Mg  Mg40  1  0.66794717  0.74864102  0.75021319  1
  Mg  Mg41  1  0.83326589  0.50025452  0.75152903  1
  Mg  Mg42  1  0.00054000  0.25051027  0.75498152  1
  Mg  Mg43  1  0.82928401  0.49995772  0.25039236  1
  Mg  Mg44  1  0.33468137  0.74870868  0.24817809  1
  Mg  Mg45  1  0.66538038  0.75078543  0.24910790  1
  Mg  Mg46  1  0.33218064  0.24851261  0.75041740  1
  Mg  Mg47  1  0.16411043  0.50098132  0.24691927  1
  Mg  Mg48  1  0.49977932  -0.00094933  0.75299025  1
  Mg  Mg49  1  0.50349612  0.50197261  0.24891736  1
  Mg  Mg50  1  0.66630123  0.25119530  0.74710238  1
  Mg  Mg51  1  0.83469495  0.00000173  0.75114152  1
  Mg  Mg52  1  -0.00032207  0.74846405  0.75089599  1
  Mg  Mg53  1  0.16392358  0.33419478  0.24926466  1
  Mg  Mg54  1  0.49970744  0.83514156  0.75101633  1
  Mg  Mg55  1  0.16665548  0.83657516  0.74858026  1
  Mg  Mg56  1  0.33196282  0.91739370  0.75040141  1
  Mg  Mg57  1  0.66718647  0.08454506  0.75079777  1
  Mg  Mg58  1  0.00262400  0.41523409  0.75549834  1
  Mg  Mg59  1  0.83130202  0.83751427  0.25265590  1
  Mg  Mg60  1  0.83444116  0.83425940  0.75142615  1
  Mg  Mg61  1  0.83515339  0.33443776  0.75222031  1
  Mg  Mg62  1  0.16661882  0.83347641  0.25078579  1
  Mg  Mg63  1  -0.00243613  0.58466966  0.25002472  1
  Mg  Mg64  1  0.33166041  0.08402036  0.25094432  1
  Mg  Mg65  1  0.66561901  0.58496336  0.74803417  1
  Mg  Mg66  1  0.00379786  0.08182933  0.75166833  1
  Mg  Mg67  1  0.33293617  0.58441690  0.74849105  1
  Mg  Mg68  1  0.33325991  0.91657113  0.24883994  1
  Mg  Mg69  1  0.83608972  0.16576340  0.75276369  1
  Mg  Mg70  1  0.49921945  0.16529638  0.75059996  1
  Mg  Mg71  1  0.50155429  0.66511310  0.24664505  1
  Mg  Mg72  1  0.83557022  0.16718378  0.25227230  1
  Mg  Mg73  1  0.00073607  0.58472706  0.75212548  1
  Mg  Mg74  1  0.33154558  0.41448706  0.74945107  1
  Mg  Mg75  1  0.66703403  0.91563424  0.75162942  1
  Mg  Mg76  1  0.83369855  0.66532276  0.75070160  1
  Mg  Mg77  1  0.33300456  0.41705931  0.24853640  1
  Mg  Mg78  1  0.16630691  0.16271133  0.75008176  1
  Mg  Mg79  1  -0.00341185  0.08271141  0.25161377  1
  Mg  Mg80  1  0.50257086  0.33425733  0.24975452  1
  Mg  Mg81  1  0.49774346  0.33479750  0.74669049  1
  Mg  Mg82  1  0.50031060  0.16638697  0.24999929  1
  Mg  Mg83  1  0.66349138  0.41651584  0.74681618  1
  Mg  Mg84  1  0.00260066  0.91628592  0.74943909  1
  Mg  Mg85  1  0.50395457  0.83528618  0.24709880  1
  Mg  Mg86  1  0.16738495  0.66536773  0.75025594  1
  Mg  Mg87  1  0.32974460  0.08055234  0.74958558  1
  Mg  Mg88  1  0.67186624  0.41775414  0.24956839  1
  Mg  Mg89  1  0.33452452  0.58615561  0.24824796  1
  Mg  Mg90  1  0.16735224  0.66606495  0.24880088  1
  Mg  Mg91  1  0.16454042  0.16546183  0.25130324  1
  Mg  Mg92  1  0.16619872  0.33422083  0.75317026  1
  Mg  Mg93  1  0.83061114  0.66703746  0.25271910  1
  Mg  Mg94  1  0.67068082  0.08084205  0.24951075  1
  Mg  Mg95  1  0.49885259  0.66477913  0.74790357  1
  Fe  Fe96  1  0.01868167  0.33155373  0.10983774  1
  Fe  Fe97  1  0.30758628  0.16815421  0.39080773  1
  Fe  Fe98  1  0.47216293  0.58203388  0.88866580  1
  Fe  Fe99  1  0.30706134  0.66501147  0.38938812  1
  Fe  Fe100  1  0.18791602  0.91519999  0.60917058  1
  Fe  Fe101  1  0.97055602  0.33362803  0.89424641  1
  Fe  Fe102  1  0.36049056  0.66675049  0.10605127  1
  Fe  Fe103  1  0.47831525  0.91548515  0.89221739  1
  Fe  Fe104  1  0.19375181  0.58438983  0.60915403  1
  Fe  Fe105  1  0.63927560  0.66765240  0.38606154  1
  Fe  Fe106  1  0.97712539  0.83416535  0.39375272  1
  Fe  Fe107  1  0.97757710  0.16156074  0.39150774  1
  Fe  Fe108  1  0.81534985  0.41345622  0.39020755  1
  Fe  Fe109  1  0.69474627  0.66706119  0.60978032  1
  Fe  Fe110  1  0.52196226  0.41617970  0.60644914  1
  Fe  Fe111  1  0.14620137  0.42081717  0.89389244  1
  Fe  Fe112  1  0.97364744  0.66668627  0.89196597  1
  Si  Si113  1  0.13578193  0.58346963  0.38530302  1
  Si  Si114  1  0.52895472  0.92054087  0.61569559  1
  Si  Si115  1  0.69323373  0.16520282  0.61469737  1
  Si  Si116  1  0.18990940  0.41137328  0.61273866  1
  Si  Si117  1  0.15038228  0.91402795  0.38849564  1
  Si  Si118  1  0.86253072  0.41531379  0.61674943  1
  Si  Si119  1  0.80414197  0.91969384  0.38684575  1
  Si  Si120  1  0.98560164  0.32864260  0.39299749  1
  Si  Si121  1  0.85461671  0.91292548  0.11461385  1
  Si  Si122  1  0.79758905  0.41493669  0.88618251  1
  Si  Si123  1  0.63657121  0.33282519  0.88270341  1
  Si  Si124  1  0.14552089  0.58676626  0.88913040  1
  Si  Si125  1  0.52638686  0.92152345  0.11424259  1
  Si  Si126  1  0.30829853  0.32658409  0.88834954  1
  Si  Si127  1  0.36349889  0.83728670  0.61208959  1
  Si  Si128  1  0.35464240  0.32663358  0.61217486  1
  Si  Si129  1  0.97972624  0.16000215  0.88954663  1
  Si  Si130  1  0.14074998  0.08064255  0.39047865  1
  Si  Si131  1  0.19239848  0.08397902  0.11363997  1
  Si  Si132  1  0.47733301  0.41734635  0.38210024  1
  Si  Si133  1  0.52642037  0.08713689  0.11319435  1
  Si  Si134  1  0.86009049  0.91779635  0.61609857  1
  Si  Si135  1  0.14495862  0.07966126  0.88489874  1
  Si  Si136  1  0.86032912  0.08312216  0.61633254  1
  Si  Si137  1  0.35978666  0.33375742  0.11374216  1
  Si  Si138  1  0.64710698  0.82811710  0.88772993  1
  Si  Si139  1  0.86399257  0.57992458  0.61363273  1
  Si  Si140  1  0.30496543  0.83537069  0.88740136  1
  Si  Si141  1  0.52381779  0.58447942  0.60978322  1
  Si  Si142  1  0.02226408  0.16090243  0.11248243  1
  Si  Si143  1  0.64087617  0.83574425  0.38471167  1
  Si  Si144  1  0.47702157  0.91848034  0.38216437  1
  Si  Si145  1  0.02502042  0.83258485  0.11399770  1
  Si  Si146  1  0.48151924  0.08569728  0.88831482  1
  Si  Si147  1  0.19305291  0.41610523  0.11179156  1
  Si  Si148  1  0.80772161  0.08356793  0.88691313  1
  Si  Si149  1  0.02544168  0.33141404  0.61701411  1
  Si  Si150  1  0.80269070  0.08605004  0.38743558  1
  Si  Si151  1  0.02424036  0.66569804  0.61410945  1
  Si  Si152  1  0.01877945  0.82720064  0.61404450  1
  Si  Si153  1  0.31110099  0.16192107  0.88570744  1
  Si  Si154  1  0.69480140  0.16628242  0.11355842  1
  Si  Si155  1  0.31567292  0.83486800  0.38674289  1
  Si  Si156  1  0.13999235  0.91626950  0.88425846  1
  Si  Si157  1  0.35768383  0.16693037  0.11236002  1
  Si  Si158  1  0.52789117  0.41253157  0.11279654  1
  Si  Si159  1  0.69766886  0.33199004  0.61159401  1
  Si  Si160  1  0.85693007  0.07801611  0.11582698  1
  Si  Si161  1  0.64425780  0.17065449  0.88520402  1
  Si  Si162  1  0.80271099  0.58023846  0.88774376  1
  Si  Si163  1  0.47239630  0.41046871  0.88628489  1
  Si  Si164  1  0.30399805  0.67142158  0.88554839  1
  Si  Si165  1  0.69087098  0.33183316  0.11281364  1
  Si  Si166  1  0.18651713  0.08479923  0.61339547  1
  Si  Si167  1  0.63971536  0.33171120  0.38632925  1
  Si  Si168  1  0.18744844  0.58298265  0.11032786  1
  Si  Si169  1  0.97615328  0.83941918  0.88881974  1
  Si  Si170  1  0.35491842  0.16199047  0.61586772  1
  Si  Si171  1  0.31258165  0.33926442  0.38668830  1
  Si  Si172  1  0.63795638  0.16621990  0.38383646  1
  Si  Si173  1  0.97454085  0.66529349  0.38639428  1
  Si  Si174  1  0.19198992  0.91605661  0.11365825  1
  Si  Si175  1  0.35925967  0.83920595  0.10939940  1
  Si  Si176  1  0.68950843  0.83308338  0.11373250  1
  Si  Si177  1  0.02272457  0.66745027  0.11436806  1
  Si  Si178  1  0.47267987  0.57901795  0.38649321  1
  Si  Si179  1  0.69186943  0.66972178  0.11419657  1
  Si  Si180  1  0.52945462  0.57896312  0.11065601  1
  Si  Si181  1  0.47517280  0.08223189  0.38564665  1
  Si  Si182  1  0.69170748  0.83907900  0.61391250  1
  Si  Si183  1  0.85445297  0.58791660  0.11352848  1
  Si  Si184  1  0.81096812  0.58318988  0.38775124  1
  Si  Si185  1  0.02381224  0.16884297  0.61670460  1
  Si  Si186  1  0.36480547  0.67177579  0.61156984  1
  Si  Si187  1  0.52442814  0.08516307  0.61570269  1
  Si  Si188  1  0.84899887  0.42309181  0.11078218  1
  Si  Si189  1  0.64080145  0.66584129  0.88602036  1
  Si  Si190  1  0.14687238  0.41909911  0.38427766  1
  Si  Si191  1  0.80706057  0.91827093  0.88656770  1
  O  O192  1  0.26996109  0.12348046  0.08117713  1
  O  O193  1  0.27348054  0.11226513  0.58619510  1
  O  O194  1  0.25560801  0.62262712  0.07329751  1
  O  O195  1  0.29020283  0.61855797  0.57767459  1
  O  O196  1  0.60154437  0.12955925  0.08268993  1
  O  O197  1  0.60510782  0.12066078  0.58682651  1
  O  O198  1  0.61085874  0.61796677  0.08477463  1
  O  O199  1  0.60720296  0.60314880  0.57840496  1
  O  O200  1  0.93620557  0.11192629  0.08395768  1
  O  O201  1  0.94013240  0.11906805  0.58831434  1
  O  O202  1  0.93333584  0.62639684  0.08426127  1
  O  O203  1  0.95238457  0.60341590  0.58904921  1
  O  O204  1  0.11323446  0.36958155  0.07778117  1
  O  O205  1  0.10821547  0.35737111  0.58708914  1
  O  O206  1  0.10067649  0.87592421  0.08296611  1
  O  O207  1  0.09806442  0.84957567  0.58033810  1
  O  O208  1  0.43765220  0.37136103  0.08341633  1
  O  O209  1  0.43232084  0.35128479  0.57737491  1
  O  O210  1  0.43408163  0.88668218  0.08189709  1
  O  O211  1  0.45135381  0.86655276  0.58709048  1
  O  O212  1  0.75877842  0.37960676  0.07988278  1
  O  O213  1  0.78516584  0.35990062  0.58757551  1
  O  O214  1  0.76651688  0.86979698  0.07966675  1
  O  O215  1  0.77327555  0.87473117  0.58640965  1
  O  O216  1  0.27653479  0.38143760  0.08447933  1
  O  O217  1  0.26932714  0.37347706  0.58407436  1
  O  O218  1  0.26856327  0.88102681  0.07975295  1
  O  O219  1  0.28819479  0.88898265  0.57761909  1
  O  O220  1  0.59702363  0.36546335  0.07990276  1
  O  O221  1  0.61937673  0.37966976  0.57602685  1
  O  O222  1  0.60255676  0.87997161  0.08430269  1
  O  O223  1  0.61392394  0.89652048  0.58753686  1
  O  O224  1  0.92133960  0.38636314  0.07564134  1
  O  O225  1  0.94631520  0.38530902  0.58939177  1
  O  O226  1  0.93470803  0.87439846  0.08447186  1
  O  O227  1  0.93852288  0.88228666  0.58731568  1
  O  O228  1  0.10177762  0.12146764  0.08205087  1
  O  O229  1  0.10854411  0.14357764  0.58893834  1
  O  O230  1  0.09565059  0.62358634  0.08380494  1
  O  O231  1  0.10480271  0.64917134  0.57932413  1
  O  O232  1  0.43613052  0.12827813  0.08204446  1
  O  O233  1  0.43942051  0.13242587  0.58793490  1
  O  O234  1  0.44533873  0.61725939  0.07064227  1
  O  O235  1  0.45394372  0.64948537  0.58771726  1
  O  O236  1  0.76778286  0.12162775  0.08255165  1
  O  O237  1  0.77193071  0.12617018  0.58683316  1
  O  O238  1  0.77143947  0.63685531  0.08194075  1
  O  O239  1  0.79072859  0.63316845  0.57838379  1
  O  O240  1  0.05944012  0.09326411  0.42647405  1
  O  O241  1  0.06207131  0.10679129  0.91577507  1
  O  O242  1  0.04635053  0.60220812  0.41022148  1
  O  O243  1  0.06420231  0.60561168  0.92355010  1
  O  O244  1  0.40014055  0.10711987  0.42344242  1
  O  O245  1  0.39588638  0.11448716  0.91533778  1
  O  O246  1  0.38639386  0.59167350  0.41625269  1
  O  O247  1  0.37592317  0.61597180  0.91976439  1
  O  O248  1  0.71730885  0.11574039  0.41638897  1
  O  O249  1  0.72780303  0.12149707  0.91443694  1
  O  O250  1  0.73123261  0.60976610  0.42081110  1
  O  O251  1  0.71491416  0.60614358  0.91246018  1
  O  O252  1  0.23285422  0.37409678  0.41677679  1
  O  O253  1  0.23106908  0.35040918  0.92334504  1
  O  O254  1  0.23640616  0.86631270  0.41904112  1
  O  O255  1  0.21675848  0.86059951  0.91345457  1
  O  O256  1  0.55142394  0.35892218  0.41069109  1
  O  O257  1  0.55015581  0.35181124  0.91071789  1
  O  O258  1  0.55692719  0.86772709  0.41352178  1
  O  O259  1  0.56971078  0.85241201  0.92331286  1
  O  O260  1  0.91104422  0.36086268  0.42993846  1
  O  O261  1  0.86562918  0.35676362  0.91973722  1
  O  O262  1  0.88307405  0.87360278  0.42702144  1
  O  O263  1  0.89498830  0.87721049  0.91638411  1
  O  O264  1  0.06889299  0.38420455  0.41494747  1
  O  O265  1  0.05050626  0.40016300  0.92930000  1
  O  O266  1  0.07486874  0.88948341  0.42682854  1
  O  O267  1  0.05604420  0.89434046  0.91587910  1
  O  O268  1  0.39251721  0.39475581  0.41159640  1
  O  O269  1  0.39292361  0.37506072  0.91637963  1
  O  O270  1  0.39414481  0.89256936  0.41222430  1
  O  O271  1  0.37872999  0.88902304  0.92285173  1
  O  O272  1  0.71849659  0.37761840  0.42361223  1
  O  O273  1  0.70718697  0.39332630  0.91065048  1
  O  O274  1  0.71702596  0.89276639  0.41358349  1
  O  O275  1  0.72962082  0.88050499  0.91566516  1
  O  O276  1  0.21634220  0.13431659  0.42669663  1
  O  O277  1  0.22980374  0.12828175  0.91478625  1
  O  O278  1  0.20728193  0.63886779  0.42046560  1
  O  O279  1  0.21366513  0.65378650  0.90930005  1
  O  O280  1  0.55700066  0.13424363  0.41381117  1
  O  O281  1  0.55988533  0.14411717  0.91366621  1
  O  O282  1  0.54393932  0.63541072  0.42006668  1
  O  O283  1  0.56084591  0.64709767  0.92088141  1
  O  O284  1  0.87908726  0.13526105  0.42522444  1
  O  O285  1  0.89686585  0.12336871  0.91630018  1
  O  O286  1  0.88906060  0.64083097  0.41413010  1
  O  O287  1  0.87761059  0.63178353  0.92394220  1
  O  O288  1  0.18459615  0.00009508  0.08554823  1
  O  O289  1  0.15723571  0.00949088  0.57837256  1
  O  O290  1  0.17984538  0.49908465  0.08330970  1
  O  O291  1  0.16992346  0.48870598  0.57790806  1
  O  O292  1  0.52234286  0.00477254  0.08348556  1
  O  O293  1  0.50820898  0.00309171  0.58696840  1
  O  O294  1  0.52783357  0.49409079  0.08260989  1
  O  O295  1  0.48422291  0.50842314  0.57930143  1
  O  O296  1  0.84497964  -0.00423403  0.08302950  1
  O  O297  1  0.84773547  0.00087747  0.58771279  1
  O  O298  1  0.83686854  0.50747292  0.08058040  1
  O  O299  1  0.84260690  0.49621199  0.58679146  1
  O  O300  1  0.00586865  0.23698220  0.07413925  1
  O  O301  1  -0.00075720  0.25020665  0.58852162  1
  O  O302  1  0.01667018  0.74986043  0.08219613  1
  O  O303  1  -0.01566670  0.74582315  0.59051353  1
  O  O304  1  0.34949802  0.25054638  0.08344192  1
  O  O305  1  0.33224391  0.24282533  0.58746237  1
  O  O306  1  0.35452610  0.76210186  0.07286492  1
  O  O307  1  0.34631512  0.75480604  0.58402670  1
  O  O308  1  0.69174466  0.24863657  0.08224993  1
  O  O309  1  0.68363052  0.24698203  0.58538277  1
  O  O310  1  0.67368358  0.75127159  0.08112995  1
  O  O311  1  0.66783764  0.76241740  0.58009252  1
  O  O312  1  0.17698621  -0.00196798  0.40961555  1
  O  O313  1  0.16741354  -0.00230638  0.91316603  1
  O  O314  1  0.16068625  0.50143611  0.41388509  1
  O  O315  1  0.19018814  0.51274289  0.91912201  1
  O  O316  1  0.50298125  -0.00026134  0.41079942  1
  O  O317  1  0.51057249  0.01011656  0.92326078  1
  O  O318  1  0.50785916  0.49655393  0.41049545  1
  O  O319  1  0.49812658  0.48699934  0.92104861  1
  O  O320  1  0.81501561  0.00329244  0.41658200  1
  O  O321  1  0.81393738  0.00108719  0.91564402  1
  O  O322  1  0.84094130  0.50658126  0.42284964  1
  O  O323  1  0.81962601  0.49674824  0.91476650  1
  O  O324  1  0.33633973  0.26267201  0.42258703  1
  O  O325  1  0.33335098  0.24302798  0.91443911  1
  O  O326  1  0.34395549  0.75781915  0.42036233  1
  O  O327  1  0.32796930  0.75328509  0.91460353  1
  O  O328  1  0.65235453  0.24780653  0.41448874  1
  O  O329  1  0.66659841  0.25253590  0.91275735  1
  O  O330  1  0.66398643  0.76029768  0.42268221  1
  O  O331  1  0.67871723  0.74624595  0.91111828  1
  O  O332  1  1.01479820  0.25164892  0.42863964  1
  O  O333  1  0.99964262  0.23734421  0.92271541  1
  O  O334  1  1.00593350  0.73940389  0.42422358  1
  O  O335  1  0.99483238  0.76243335  0.92426746  1
  O  O336  1  0.21475072  0.08982597  0.19234208  1
  O  O337  1  0.20985207  0.08639451  0.69388059  1
  O  O338  1  0.20857051  0.58396678  0.19096761  1
  O  O339  1  0.21159558  0.58271124  0.70138529  1
  O  O340  1  0.54123520  0.08728344  0.19301398  1
  O  O341  1  0.54496000  0.08445024  0.69644818  1
  O  O342  1  0.53680187  0.58048108  0.18988084  1
  O  O343  1  0.54439431  0.58340088  0.69172708  1
  O  O344  1  0.87199206  0.08465091  0.19424385  1
  O  O345  1  0.87596962  0.08377553  0.69705643  1
  O  O346  1  0.87359266  0.58715920  0.19333254  1
  O  O347  1  0.87629043  0.58076378  0.69476637  1
  O  O348  1  0.04708353  0.32627958  0.19894822  1
  O  O349  1  0.04406968  0.33027533  0.69728728  1
  O  O350  1  0.04744868  0.82789595  0.19256336  1
  O  O351  1  0.03911840  0.83228228  0.69530385  1
  O  O352  1  0.37799801  0.33234962  0.19404600  1
  O  O353  1  0.37440118  0.32945965  0.69371268  1
  O  O354  1  0.37691099  0.83637128  0.19014674  1
  O  O355  1  0.37881648  0.83552715  0.69333538  1
  O  O356  1  0.70117481  0.33161131  0.19163559  1
  O  O357  1  0.71119439  0.33168902  0.69305098  1
  O  O358  1  0.70922889  0.83122146  0.19277457  1
  O  O359  1  0.71065640  0.83727519  0.69537414  1
  O  O360  1  0.21181662  0.41637074  0.19260719  1
  O  O361  1  0.21043654  0.41266544  0.69382323  1
  O  O362  1  0.21430709  0.91001650  0.19252419  1
  O  O363  1  0.21352428  0.91523157  0.69990885  1
  O  O364  1  0.54353965  0.41336668  0.19274440  1
  O  O365  1  0.54331688  0.41489461  0.69893097  1
  O  O366  1  0.53954011  0.92022003  0.19332642  1
  O  O367  1  0.54725373  0.92017643  0.69639209  1
  O  O368  1  0.86458641  0.42324530  0.18931276  1
  O  O369  1  0.87679626  0.41623722  0.69723910  1
  O  O370  1  0.86620998  0.91256388  0.19237215  1
  O  O371  1  0.87599537  0.91801227  0.69697867  1
  O  O372  1  0.04438110  0.16565100  0.19238084  1
  O  O373  1  0.04094359  0.16663958  0.69746920  1
  O  O374  1  0.04161840  0.66842430  0.19436139  1
  O  O375  1  0.04476526  0.66581681  0.69539463  1
  O  O376  1  0.37817467  0.16737389  0.19230303  1
  O  O377  1  0.37648109  0.16347313  0.69668163  1
  O  O378  1  0.37990761  0.66671596  0.19716209  1
  O  O379  1  0.37666027  0.67036145  0.69282636  1
  O  O380  1  0.70835671  0.16708666  0.19321741  1
  O  O381  1  0.71069024  0.16499942  0.69548602  1
  O  O382  1  0.71278438  0.67191570  0.19314111  1
  O  O383  1  0.71331648  0.66769660  0.70217702  1
  O  O384  1  0.12008664  0.09227026  0.31065370  1
  O  O385  1  0.12351582  0.08430983  0.80532653  1
  O  O386  1  0.12307907  0.58402699  0.30423145  1
  O  O387  1  0.12209121  0.58454824  0.80742598  1
  O  O388  1  0.45658957  0.08553258  0.30459804  1
  O  O389  1  0.46130543  0.08481009  0.80723405  1
  O  O390  1  0.45689289  0.58087432  0.30491468  1
  O  O391  1  0.45458134  0.58218320  0.79663646  1
  O  O392  1  0.78474496  0.08969524  0.30769878  1
  O  O393  1  0.78980902  0.08381539  0.80607729  1
  O  O394  1  0.79290063  0.58410615  0.30703177  1
  O  O395  1  0.78978304  0.58131962  0.80670458  1
  O  O396  1  0.29328991  0.33533683  0.30553651  1
  O  O397  1  0.29083909  0.32927734  0.80690946  1
  O  O398  1  0.29536083  0.83305131  0.30546368  1
  O  O399  1  0.29094933  0.83452572  0.80656859  1
  O  O400  1  0.62324715  0.33203392  0.30534269  1
  O  O401  1  0.62176846  0.33002935  0.80221111  1
  O  O402  1  0.62051450  0.83153900  0.30477343  1
  O  O403  1  0.62633924  0.83396920  0.80649300  1
  O  O404  1  0.95884702  0.32495826  0.31390673  1
  O  O405  1  0.95400260  0.33173488  0.80129827  1
  O  O406  1  0.94982055  0.82703351  0.30429828  1
  O  O407  1  0.95620700  0.83674946  0.80767082  1
  O  O408  1  0.13573004  0.41904020  0.30494089  1
  O  O409  1  0.12417520  0.41607610  0.80095677  1
  O  O410  1  0.13068303  0.90486355  0.31009584  1
  O  O411  1  0.11916148  0.91434030  0.80469830  1
  O  O412  1  0.45685995  0.41572967  0.30133918  1
  O  O413  1  0.45345424  0.41249427  0.80525330  1
  O  O414  1  0.45819651  0.91729460  0.30172346  1
  O  O415  1  0.45723211  0.91710512  0.80032284  1
  O  O416  1  0.78850150  0.41659888  0.30041389  1
  O  O417  1  0.78486963  0.41503100  0.80476600  1
  O  O418  1  0.79068848  0.91621186  0.30771659  1
  O  O419  1  0.78994554  0.91883767  0.80580943  1
  O  O420  1  0.28996205  0.16766651  0.29916306  1
  O  O421  1  0.29152193  0.16347176  0.80522059  1
  O  O422  1  0.28741291  0.66670997  0.29774242  1
  O  O423  1  0.29173103  0.67014049  0.80454946  1
  O  O424  1  0.62125085  0.16752487  0.30343756  1
  O  O425  1  0.62553146  0.16740872  0.80445648  1
  O  O426  1  0.61868276  0.66888338  0.29569872  1
  O  O427  1  0.62088802  0.66632495  0.80494823  1
  O  O428  1  0.95539200  0.16733572  0.30019805  1
  O  O429  1  0.95787686  0.16201740  0.80814916  1
  O  O430  1  0.95709714  0.66800659  0.30520161  1
  O  O431  1  0.95386273  0.66749346  0.79981892  1
  F  F432  1  0.03442903  0.01201161  0.19064231  1
  F  F433  1  0.03559426  0.00057404  0.70026591  1
  F  F434  1  0.04794636  0.51083028  0.19681511  1
  F  F435  1  0.04334021  0.49987288  0.70402399  1
  F  F436  1  0.38039460  0.00261497  0.19916531  1
  F  F437  1  0.38192393  0.00389301  0.70078434  1
  F  F438  1  0.37950622  0.49875215  0.19964637  1
  F  F439  1  0.37560779  0.49555486  0.69983441  1
  F  F440  1  0.70135256  0.00498357  0.19411083  1
  F  F441  1  0.71297767  0.00169070  0.70318327  1
  F  F442  1  0.70858636  0.50065152  0.19893349  1
  F  F443  1  0.71291265  0.49913321  0.70197820  1
  F  F444  1  0.21387241  0.25316335  0.19987516  1
  F  F445  1  0.21142097  0.24845882  0.70443394  1
  F  F446  1  0.21177637  0.75134125  0.19914163  1
  F  F447  1  0.21211018  0.75114238  0.70280061  1
  F  F448  1  0.54468017  0.24979448  0.20089431  1
  F  F449  1  0.54472872  0.24664296  0.70029566  1
  F  F450  1  0.54322248  0.75357800  0.19526399  1
  F  F451  1  0.54696243  0.75289861  0.70360572  1
  F  F452  1  0.87658846  0.24805491  0.19870437  1
  F  F453  1  0.87754579  0.24615931  0.70308994  1
  F  F454  1  0.87685718  0.74793118  0.20071920  1
  F  F455  1  0.87665552  0.75371395  0.70283322  1
  F  F456  1  0.30196815  -0.00061007  0.29948735  1
  F  F457  1  0.29641122  0.00172694  0.80156830  1
  F  F458  1  0.28771386  0.50100831  0.29294404  1
  F  F459  1  0.29057712  0.49659246  0.79779538  1
  F  F460  1  0.61682010  0.00820597  0.30013485  1
  F  F461  1  0.62439404  0.00188605  0.79954359  1
  F  F462  1  0.61794180  0.49325404  0.29802606  1
  F  F463  1  0.62106485  0.50057740  0.79619211  1
  F  F464  1  0.95102291  0.01189847  0.30631055  1
  F  F465  1  0.95331631  0.00025792  0.80018933  1
  F  F466  1  0.94883749  0.51042892  0.29900445  1
  F  F467  1  0.95306899  0.50006735  0.79933065  1
  F  F468  1  0.12692411  0.25005521  0.29935774  1
  F  F469  1  0.12308688  0.24651407  0.79968213  1
  F  F470  1  0.12240330  0.74753436  0.29626927  1
  F  F471  1  0.12112599  0.75170285  0.79646792  1
  F  F472  1  0.45497029  0.25039705  0.29640749  1
  F  F473  1  0.45517096  0.24888502  0.79652964  1
  F  F474  1  0.45614016  0.75331934  0.29401090  1
  F  F475  1  0.45496508  0.75094781  0.79647370  1
  F  F476  1  0.78411878  0.24631537  0.29997882  1
  F  F477  1  0.78598206  0.24788297  0.79751882  1
  F  F478  1  0.78557982  0.75098418  0.29839611  1
  F  F479  1  0.78940682  0.75434182  0.80035352  1
