# generated using pymatgen
data_K24Na3Li5Mg64Fe17Si79(O5F)48
_symmetry_space_group_name_H-M   'P 1'
_cell_length_a   16.09180140
_cell_length_b   18.58440938
_cell_length_c   20.56001455
_cell_angle_alpha   89.99326413
_cell_angle_beta   100.00702921
_cell_angle_gamma   90.02631806
_symmetry_Int_Tables_number   1
_chemical_formula_structural   K24Na3Li5Mg64Fe17Si79(O5F)48
_chemical_formula_sum   'K24 Na3 Li5 Mg64 Fe17 Si79 O240 F48'
_cell_volume   6055.06570284
_cell_formula_units_Z   1
loop_
 _symmetry_equiv_pos_site_id
 _symmetry_equiv_pos_as_xyz
  1  'x, y, z'
loop_
 _atom_site_type_symbol
 _atom_site_label
 _atom_site_symmetry_multiplicity
 _atom_site_fract_x
 _atom_site_fract_y
 _atom_site_fract_z
 _atom_site_occupancy
  K  K0  1  -0.00987521  0.00941245  -0.00309968  1
  K  K1  1  -0.00444194  0.00378153  0.50353204  1
  K  K2  1  -0.01083535  0.49224910  0.00049514  1
  K  K3  1  0.00037792  0.49942214  0.50410153  1
  K  K4  1  0.33582925  0.00506172  0.00157254  1
  K  K5  1  0.35325764  -0.00578706  0.50323653  1
  K  K6  1  0.33441356  0.49387382  -0.00134422  1
  K  K7  1  0.32476698  0.49600984  0.50311191  1
  K  K8  1  0.67293524  -0.00269309  -0.00203180  1
  K  K9  1  0.65109642  0.00793089  0.50210471  1
  K  K10  1  0.67624346  0.48876700  0.00452633  1
  K  K11  1  0.67732588  0.49609186  0.50514016  1
  K  K12  1  0.16712859  0.24504188  -0.00209090  1
  K  K13  1  0.16686577  0.25668389  0.50271321  1
  K  K14  1  0.16986119  0.75277871  0.00224460  1
  K  K15  1  0.16592051  0.75336630  0.50020378  1
  K  K16  1  0.50590824  0.25009951  -0.00191367  1
  K  K17  1  0.51242129  0.24627795  0.50848588  1
  K  K18  1  0.49933404  0.75134968  -0.00009193  1
  K  K19  1  0.50623734  0.76321500  0.49916856  1
  K  K20  1  0.83429640  0.24976637  -0.00403997  1
  K  K21  1  0.82326405  0.24866348  0.50741689  1
  K  K22  1  0.83049124  0.75042622  0.00588384  1
  K  K23  1  0.83270064  0.74614163  0.49818219  1
  Na  Na24  1  -0.00146231  0.24907212  0.24854321  1
  Na  Na25  1  0.66790135  0.41645033  0.75529331  1
  Na  Na26  1  -0.00381238  0.08162732  0.75862447  1
  Li  Li27  1  -0.00067293  0.75091127  0.24814335  1
  Li  Li28  1  0.33469913  0.75048854  0.74530439  1
  Li  Li29  1  0.83164234  0.33218181  0.75902957  1
  Li  Li30  1  0.50674303  0.33182082  0.74984771  1
  Li  Li31  1  0.67298366  0.08997559  0.76095415  1
  Mg  Mg32  1  0.50547603  0.00205358  0.75024597  1
  Mg  Mg33  1  0.50060707  -0.00070238  0.25010858  1
  Mg  Mg34  1  0.83410889  0.50056892  0.24934983  1
  Mg  Mg35  1  0.16871056  0.00017296  0.24840349  1
  Mg  Mg36  1  0.83480292  0.49674282  0.74945419  1
  Mg  Mg37  1  0.83079466  0.00140353  0.75505139  1
  Mg  Mg38  1  0.49950737  0.50176796  0.25184931  1
  Mg  Mg39  1  0.00342193  0.74871207  0.74524178  1
  Mg  Mg40  1  -0.00759285  0.24959164  0.75155575  1
  Mg  Mg41  1  0.66751970  0.75019699  0.74729317  1
  Mg  Mg42  1  0.50050707  0.49717861  0.74947301  1
  Mg  Mg43  1  0.16337156  0.50083982  0.24657123  1
  Mg  Mg44  1  0.16660641  -0.00012628  0.74909756  1
  Mg  Mg45  1  0.66588612  0.25129102  0.75446602  1
  Mg  Mg46  1  0.33535452  0.24992762  0.24972478  1
  Mg  Mg47  1  0.33226085  0.74975543  0.24863606  1
  Mg  Mg48  1  0.33380935  0.25171039  0.74637327  1
  Mg  Mg49  1  0.83427167  0.00027026  0.25123423  1
  Mg  Mg50  1  0.66863580  0.75104061  0.25126781  1
  Mg  Mg51  1  0.66682171  0.24763244  0.25076290  1
  Mg  Mg52  1  0.16863854  0.49899081  0.74508678  1
  Mg  Mg53  1  0.16428491  0.33421036  0.74741955  1
  Mg  Mg54  1  0.83488461  0.83271760  0.24857239  1
  Mg  Mg55  1  0.16142819  0.66676316  0.24638435  1
  Mg  Mg56  1  0.00346184  0.58410129  0.74419582  1
  Mg  Mg57  1  0.66968981  0.58494505  0.25176883  1
  Mg  Mg58  1  0.00083209  0.08396820  0.25101118  1
  Mg  Mg59  1  0.16473415  0.33334821  0.24915005  1
  Mg  Mg60  1  0.16940363  0.66780653  0.74253673  1
  Mg  Mg61  1  0.49863514  0.66655624  0.24985954  1
  Mg  Mg62  1  0.33375976  0.41477207  0.74535067  1
  Mg  Mg63  1  0.50428226  0.16915503  0.75142463  1
  Mg  Mg64  1  0.66748576  0.58247582  0.74909016  1
  Mg  Mg65  1  0.32752629  0.58459911  0.24583316  1
  Mg  Mg66  1  0.83489293  0.83359679  0.74909605  1
  Mg  Mg67  1  0.66643543  0.91796790  0.75128074  1
  Mg  Mg68  1  0.83575274  0.66418292  0.74645028  1
  Mg  Mg69  1  -0.00187313  0.41366719  0.74966797  1
  Mg  Mg70  1  0.00011736  0.91510556  0.24887566  1
  Mg  Mg71  1  0.83096887  0.16818568  0.75584597  1
  Mg  Mg72  1  0.50128962  0.16463324  0.25272566  1
  Mg  Mg73  1  0.33604057  0.91478043  0.74632279  1
  Mg  Mg74  1  0.33678207  0.08547939  0.25161587  1
  Mg  Mg75  1  0.66634502  0.91458359  0.24958976  1
  Mg  Mg76  1  0.16269084  0.16564254  0.75068848  1
  Mg  Mg77  1  0.16875374  0.16708494  0.25123447  1
  Mg  Mg78  1  -0.00382851  0.41515884  0.24767446  1
  Mg  Mg79  1  0.49878283  0.66684885  0.74760865  1
  Mg  Mg80  1  0.83179444  0.16589921  0.25250108  1
  Mg  Mg81  1  0.66414704  0.08487572  0.25287009  1
  Mg  Mg82  1  0.83564982  0.66711189  0.24931126  1
  Mg  Mg83  1  0.49805135  0.83505736  0.24862579  1
  Mg  Mg84  1  0.33529616  0.91462146  0.24976070  1
  Mg  Mg85  1  0.17040660  0.83301930  0.74560453  1
  Mg  Mg86  1  0.50002526  0.33490132  0.25310721  1
  Mg  Mg87  1  -0.00228024  0.58763947  0.24664341  1
  Mg  Mg88  1  0.33067920  0.41718403  0.24819971  1
  Mg  Mg89  1  0.83203069  0.33408393  0.24913033  1
  Mg  Mg90  1  0.49824461  0.83340570  0.74690736  1
  Mg  Mg91  1  0.33444152  0.08465599  0.74925074  1
  Mg  Mg92  1  0.66802186  0.41623462  0.25308263  1
  Mg  Mg93  1  0.16511864  0.83249205  0.24970510  1
  Mg  Mg94  1  0.33302531  0.58566203  0.74447090  1
  Mg  Mg95  1  0.00071208  0.91616827  0.74903208  1
  Fe  Fe96  1  0.69306115  0.83526411  0.11022715  1
  Fe  Fe97  1  0.80707105  0.07715759  0.89716586  1
  Fe  Fe98  1  0.85985869  0.41448344  0.10867836  1
  Fe  Fe99  1  0.97628839  0.33923302  0.89316172  1
  Fe  Fe100  1  0.18734689  0.41455367  0.60625115  1
  Fe  Fe101  1  0.35630485  0.82965307  0.10890429  1
  Fe  Fe102  1  0.52824673  0.91566438  0.61008589  1
  Fe  Fe103  1  0.35964176  0.16936554  0.11023427  1
  Fe  Fe104  1  0.81321642  0.58515796  0.39003382  1
  Fe  Fe105  1  0.52548907  0.07944861  0.10998955  1
  Fe  Fe106  1  0.97727936  0.16810705  0.89800131  1
  Fe  Fe107  1  0.47392778  0.91527902  0.39056330  1
  Fe  Fe108  1  0.69547239  0.16374816  0.11211593  1
  Fe  Fe109  1  0.18484057  0.58151631  0.10666885  1
  Fe  Fe110  1  0.63856757  0.17227758  0.89426835  1
  Fe  Fe111  1  0.64404380  0.16924319  0.39531424  1
  Fe  Fe112  1  0.02524936  0.67263879  0.60478946  1
  Si  Si113  1  0.35821242  0.65997993  0.11021231  1
  Si  Si114  1  0.86653879  0.08541041  0.11610619  1
  Si  Si115  1  0.85594247  0.41338713  0.61517586  1
  Si  Si116  1  0.63852769  0.66431415  0.38803555  1
  Si  Si117  1  0.02150551  0.67388357  0.11039839  1
  Si  Si118  1  0.31071967  0.83296191  0.88125003  1
  Si  Si119  1  0.35650978  0.16777289  0.61264217  1
  Si  Si120  1  0.63839084  0.66549072  0.88278889  1
  Si  Si121  1  0.18835304  0.41390152  0.11342642  1
  Si  Si122  1  0.85827388  0.92046265  0.61556193  1
  Si  Si123  1  0.80959561  0.58929812  0.88473022  1
  Si  Si124  1  0.97440946  0.16182686  0.38766755  1
  Si  Si125  1  0.69494988  0.66286622  0.61335616  1
  Si  Si126  1  0.30780139  0.33118155  0.88318098  1
  Si  Si127  1  0.47042969  0.41752222  0.88381084  1
  Si  Si128  1  0.80606413  0.42457556  0.88894785  1
  Si  Si129  1  0.81265526  0.07782942  0.39227891  1
  Si  Si130  1  0.64191810  0.34138443  0.39064549  1
  Si  Si131  1  0.47175810  0.42120078  0.38682545  1
  Si  Si132  1  0.97210658  0.32899880  0.38603362  1
  Si  Si133  1  0.63958434  0.33903493  0.88928201  1
  Si  Si134  1  0.13631570  0.58047281  0.38376008  1
  Si  Si135  1  0.35510581  0.33893643  0.11436317  1
  Si  Si136  1  0.84996608  0.08337861  0.61730546  1
  Si  Si137  1  0.47264658  0.58188009  0.88262566  1
  Si  Si138  1  0.52724503  0.58282385  0.61199734  1
  Si  Si139  1  0.46805628  0.08369288  0.88573358  1
  Si  Si140  1  0.52300634  0.08718797  0.61440487  1
  Si  Si141  1  0.86367719  0.91998542  0.11316000  1
  Si  Si142  1  0.02713334  0.83818869  0.11574160  1
  Si  Si143  1  0.30988062  0.66870126  0.87979494  1
  Si  Si144  1  0.19010924  0.91808312  0.11330668  1
  Si  Si145  1  0.52222434  0.41933593  0.11796138  1
  Si  Si146  1  0.14617350  0.91249467  0.88366300  1
  Si  Si147  1  0.69064197  0.17087642  0.61829765  1
  Si  Si148  1  0.13568962  0.41519035  0.38418552  1
  Si  Si149  1  0.98040359  0.66347884  0.88228167  1
  Si  Si150  1  0.36341213  0.66492771  0.61179333  1
  Si  Si151  1  0.98051717  0.82788519  0.88268922  1
  Si  Si152  1  0.14261403  0.08442278  0.38713411  1
  Si  Si153  1  0.52330363  0.91398991  0.11087963  1
  Si  Si154  1  0.30564190  0.33702961  0.38494426  1
  Si  Si155  1  0.64595592  0.83115248  0.38860549  1
  Si  Si156  1  0.30048876  0.66399508  0.38395362  1
  Si  Si157  1  0.46849974  0.58736397  0.38515536  1
  Si  Si158  1  0.69130084  0.33275449  0.61828278  1
  Si  Si159  1  0.30349628  0.17140419  0.38746981  1
  Si  Si160  1  0.46916621  0.08768916  0.39397398  1
  Si  Si161  1  0.47487626  0.91757116  0.88369787  1
  Si  Si162  1  0.52536460  0.41710884  0.61444738  1
  Si  Si163  1  0.02310253  0.84265376  0.61023748  1
  Si  Si164  1  0.19540288  0.58689575  0.60606691  1
  Si  Si165  1  0.03302275  0.16228163  0.11850818  1
  Si  Si166  1  0.14517116  0.07708583  0.88683395  1
  Si  Si167  1  0.14837851  0.58488216  0.88052807  1
  Si  Si168  1  0.35611834  0.83099994  0.61032051  1
  Si  Si169  1  0.69991883  0.82909984  0.61200109  1
  Si  Si170  1  0.97885604  0.83610559  0.38356816  1
  Si  Si171  1  0.18980224  0.08540428  0.61311214  1
  Si  Si172  1  0.14132024  0.91998880  0.38555497  1
  Si  Si173  1  0.19290182  0.08098355  0.11472642  1
  Si  Si174  1  0.14644025  0.42153278  0.88519154  1
  Si  Si175  1  0.81365796  0.91220255  0.38707522  1
  Si  Si176  1  0.68839081  0.66556381  0.11300278  1
  Si  Si177  1  0.01823967  0.32724453  0.61018933  1
  Si  Si178  1  0.85752612  0.58772957  0.11051357  1
  Si  Si179  1  0.97916585  0.67232271  0.38505350  1
  Si  Si180  1  0.36015439  0.33360470  0.60886224  1
  Si  Si181  1  0.52676617  0.58326428  0.11680487  1
  Si  Si182  1  0.30045587  0.82893185  0.38775052  1
  Si  Si183  1  0.01981122  0.16294435  0.61608628  1
  Si  Si184  1  0.03207775  0.32861236  0.11404868  1
  Si  Si185  1  0.68385976  0.33363880  0.11454119  1
  Si  Si186  1  0.81323565  0.41570158  0.38934674  1
  Si  Si187  1  0.81124218  0.90394099  0.88828723  1
  Si  Si188  1  0.30258646  0.16526574  0.88296635  1
  Si  Si189  1  0.19341581  0.91912420  0.61209408  1
  Si  Si190  1  0.63862680  0.82951570  0.88381179  1
  Si  Si191  1  0.85930775  0.57803206  0.61074168  1
  O  O192  1  0.27175575  0.10172862  0.08002372  1
  O  O193  1  0.26384535  0.12933359  0.58289678  1
  O  O194  1  0.29066757  0.59778868  0.08081680  1
  O  O195  1  0.28444744  0.61261775  0.58122225  1
  O  O196  1  0.62560245  0.08957797  0.07890144  1
  O  O197  1  0.59949800  0.13235898  0.58779955  1
  O  O198  1  0.61168479  0.60614240  0.08786661  1
  O  O199  1  0.60676856  0.62025474  0.58338584  1
  O  O200  1  0.95715367  0.10524838  0.09243828  1
  O  O201  1  0.93348426  0.11556582  0.58853122  1
  O  O202  1  0.93378490  0.62950891  0.08101950  1
  O  O203  1  0.93163253  0.61256752  0.57493096  1
  O  O204  1  0.12256957  0.34729001  0.08862183  1
  O  O205  1  0.08933819  0.36091206  0.57191120  1
  O  O206  1  0.11065216  0.86306137  0.08511059  1
  O  O207  1  0.10295787  0.88109244  0.58194292  1
  O  O208  1  0.43934013  0.37099898  0.08737589  1
  O  O209  1  0.44159924  0.37009551  0.58073799  1
  O  O210  1  0.45934631  0.84778617  0.08251309  1
  O  O211  1  0.42785289  0.86565646  0.57401708  1
  O  O212  1  0.76063836  0.36208944  0.07930574  1
  O  O213  1  0.76666953  0.37248955  0.58548116  1
  O  O214  1  0.79096061  0.86591727  0.07781109  1
  O  O215  1  0.78377354  0.86275517  0.58572731  1
  O  O216  1  0.27963171  0.39841597  0.08934588  1
  O  O217  1  0.27729314  0.37482297  0.56942024  1
  O  O218  1  0.26767218  0.89537081  0.07721171  1
  O  O219  1  0.26600010  0.87447436  0.58189434  1
  O  O220  1  0.60440832  0.39178419  0.08914717  1
  O  O221  1  0.60529021  0.37966306  0.58626304  1
  O  O222  1  0.60934281  0.90219813  0.07962697  1
  O  O223  1  0.61744307  0.87127289  0.57626641  1
  O  O224  1  0.95597920  0.37871608  0.07792396  1
  O  O225  1  0.92836658  0.36999279  0.58287534  1
  O  O226  1  0.95210909  0.89584137  0.08757283  1
  O  O227  1  0.94355730  0.89838930  0.58606624  1
  O  O228  1  0.11510462  0.13701121  0.08672824  1
  O  O229  1  0.09724088  0.12256883  0.58407886  1
  O  O230  1  0.09763376  0.64766439  0.07324026  1
  O  O231  1  0.12430546  0.64525931  0.57494459  1
  O  O232  1  0.45080203  0.14999670  0.07115221  1
  O  O233  1  0.43170316  0.12742939  0.58230938  1
  O  O234  1  0.45003957  0.63793743  0.08691251  1
  O  O235  1  0.44457360  0.63227755  0.58115247  1
  O  O236  1  0.79931963  0.14445765  0.08409698  1
  O  O237  1  0.76576627  0.13041356  0.58478109  1
  O  O238  1  0.77177597  0.63620052  0.08453203  1
  O  O239  1  0.76908379  0.62041768  0.58377031  1
  O  O240  1  0.06271995  0.11789102  0.41742008  1
  O  O241  1  0.06623352  0.09871543  0.92009942  1
  O  O242  1  0.06413116  0.62348356  0.41492593  1
  O  O243  1  0.06438063  0.61404038  0.90932810  1
  O  O244  1  0.38706813  0.12712470  0.42023144  1
  O  O245  1  0.38012038  0.11053941  0.91019406  1
  O  O246  1  0.39051199  0.62482070  0.41469029  1
  O  O247  1  0.39683219  0.62457640  0.91168922  1
  O  O248  1  0.73980559  0.11115189  0.42804503  1
  O  O249  1  0.71788413  0.10813394  0.93411464  1
  O  O250  1  0.71486784  0.61370001  0.42300914  1
  O  O251  1  0.73253547  0.63267605  0.91245340  1
  O  O252  1  0.22737664  0.37663516  0.41348571  1
  O  O253  1  0.23074999  0.37054318  0.91270674  1
  O  O254  1  0.22151819  0.86902844  0.41633121  1
  O  O255  1  0.22926745  0.86264614  0.91268368  1
  O  O256  1  0.56180840  0.38323237  0.41741088  1
  O  O257  1  0.55871697  0.37956446  0.91710647  1
  O  O258  1  0.57606412  0.86838724  0.42485261  1
  O  O259  1  0.56380667  0.87431803  0.91203548  1
  O  O260  1  0.89147864  0.35868668  0.41799344  1
  O  O261  1  0.88435241  0.37965083  0.92898202  1
  O  O262  1  0.89900061  0.86508363  0.41697874  1
  O  O263  1  0.89719049  0.85308888  0.91241955  1
  O  O264  1  0.06145648  0.37282845  0.41536011  1
  O  O265  1  0.07033957  0.40226775  0.92277479  1
  O  O266  1  0.05857520  0.88973350  0.41415529  1
  O  O267  1  0.06451849  0.87721293  0.91193877  1
  O  O268  1  0.39340943  0.38102525  0.41530025  1
  O  O269  1  0.39424985  0.37595109  0.91409049  1
  O  O270  1  0.38731996  0.86464890  0.42338209  1
  O  O271  1  0.39691655  0.87770727  0.91296942  1
  O  O272  1  0.72705265  0.39037318  0.41736914  1
  O  O273  1  0.71727483  0.39795250  0.91170876  1
  O  O274  1  0.73745693  0.87150805  0.41615487  1
  O  O275  1  0.73256348  0.86025143  0.91486711  1
  O  O276  1  0.22377395  0.13538026  0.41712821  1
  O  O277  1  0.22451699  0.13225952  0.91549857  1
  O  O278  1  0.22865313  0.61680375  0.41309727  1
  O  O279  1  0.22870141  0.63752172  0.91074476  1
  O  O280  1  0.55048999  0.13398245  0.42875739  1
  O  O281  1  0.53979588  0.13628320  0.92191160  1
  O  O282  1  0.55226681  0.63472954  0.41452988  1
  O  O283  1  0.56465102  0.61994201  0.91174484  1
  O  O284  1  0.90172060  0.12223046  0.42220126  1
  O  O285  1  0.89687544  0.12962304  0.94187190  1
  O  O286  1  0.90273875  0.64868270  0.42227655  1
  O  O287  1  0.89878136  0.63303311  0.91279256  1
  O  O288  1  0.15713996  -0.00010443  0.09059920  1
  O  O289  1  0.18820977  0.00249054  0.58331123  1
  O  O290  1  0.14947187  0.48767391  0.07942410  1
  O  O291  1  0.17214142  0.50885631  0.57222689  1
  O  O292  1  0.47698440  -0.01121736  0.08467498  1
  O  O293  1  0.51797305  0.00993608  0.57736673  1
  O  O294  1  0.50057960  0.50163500  0.08953255  1
  O  O295  1  0.51475867  0.50047993  0.58168275  1
  O  O296  1  0.84384997  0.00313996  0.08741298  1
  O  O297  1  0.83365814  0.00112689  0.58531187  1
  O  O298  1  0.84300034  0.50992050  0.07558022  1
  O  O299  1  0.84447381  0.49498233  0.58254055  1
  O  O300  1  0.00881887  0.24415233  0.09292189  1
  O  O301  1  0.00335928  0.24311315  0.58202605  1
  O  O302  1  -0.00109758  0.75819800  0.08590028  1
  O  O303  1  0.00031808  0.76733999  0.57235867  1
  O  O304  1  0.32507501  0.26385327  0.07981551  1
  O  O305  1  0.35206253  0.24911385  0.58131481  1
  O  O306  1  0.32704215  0.73609475  0.07584199  1
  O  O307  1  0.34145908  0.74671103  0.58321897  1
  O  O308  1  0.65001726  0.25568759  0.08757850  1
  O  O309  1  0.68114343  0.25189936  0.58348336  1
  O  O310  1  0.66106660  0.74136090  0.07714220  1
  O  O311  1  0.69160013  0.74487232  0.58355204  1
  O  O312  1  0.15944042  0.00192757  0.41624813  1
  O  O313  1  0.17010224  -0.00697487  0.91315229  1
  O  O314  1  0.14085449  0.49771272  0.41350886  1
  O  O315  1  0.17681490  0.50496839  0.90913582  1
  O  O316  1  0.47469309  0.00776883  0.42640735  1
  O  O317  1  0.48265580  -0.00074454  0.91318454  1
  O  O318  1  0.47678003  0.50458530  0.41496487  1
  O  O319  1  0.47389510  0.50084292  0.91435232  1
  O  O320  1  0.83057940  -0.00662905  0.41881774  1
  O  O321  1  0.82678206  -0.02152365  0.92675095  1
  O  O322  1  0.84290193  0.49206997  0.42322856  1
  O  O323  1  0.81618335  0.50999851  0.91817410  1
  O  O324  1  0.31244006  0.25509202  0.41550902  1
  O  O325  1  0.31903134  0.24814655  0.91198677  1
  O  O326  1  0.29812265  0.74482007  0.41500500  1
  O  O327  1  0.32659585  0.75047197  0.90931301  1
  O  O328  1  0.65618008  0.26516175  0.42812864  1
  O  O329  1  0.66029301  0.26600784  0.93181199  1
  O  O330  1  0.65664925  0.74703992  0.41612223  1
  O  O331  1  0.63499848  0.74701978  0.91310978  1
  O  O332  1  0.98884236  0.24564762  0.41405244  1
  O  O333  1  1.01057941  0.25537442  0.93790282  1
  O  O334  1  1.00644089  0.75535550  0.41082005  1
  O  O335  1  1.00248271  0.74543276  0.91122814  1
  O  O336  1  0.21263050  0.08332663  0.19628493  1
  O  O337  1  0.20918253  0.08375361  0.69317247  1
  O  O338  1  0.20752498  0.58358204  0.19892068  1
  O  O339  1  0.21141756  0.58450244  0.68769916  1
  O  O340  1  0.54291770  0.08203947  0.20363124  1
  O  O341  1  0.53395256  0.08417465  0.69365489  1
  O  O342  1  0.54372082  0.58366281  0.19761718  1
  O  O343  1  0.54380634  0.58444912  0.69223761  1
  O  O344  1  0.87946637  0.08248617  0.19746187  1
  O  O345  1  0.86586908  0.08034271  0.69581244  1
  O  O346  1  0.87692110  0.58539488  0.19141343  1
  O  O347  1  0.87863813  0.58315797  0.69156733  1
  O  O348  1  0.04866743  0.33955362  0.19377918  1
  O  O349  1  0.04219555  0.33216860  0.69050407  1
  O  O350  1  0.04691602  0.83795201  0.19557278  1
  O  O351  1  0.04420308  0.83506166  0.69094651  1
  O  O352  1  0.37633224  0.33662717  0.19582813  1
  O  O353  1  0.36909185  0.33386603  0.68845328  1
  O  O354  1  0.37512710  0.83032655  0.20077969  1
  O  O355  1  0.37740014  0.83517755  0.69034247  1
  O  O356  1  0.70553156  0.33599712  0.19658540  1
  O  O357  1  0.71008695  0.32833367  0.69623008  1
  O  O358  1  0.71299434  0.83271302  0.20227458  1
  O  O359  1  0.71355984  0.82940859  0.69285791  1
  O  O360  1  0.20868994  0.41699662  0.19508040  1
  O  O361  1  0.21084156  0.41563670  0.69783014  1
  O  O362  1  0.21016722  0.91539730  0.19477592  1
  O  O363  1  0.21166238  0.91776255  0.69228282  1
  O  O364  1  0.54052162  0.41872062  0.19873055  1
  O  O365  1  0.53535727  0.42144126  0.69255216  1
  O  O366  1  0.54521679  0.91348611  0.19336263  1
  O  O367  1  0.54557816  0.91505630  0.70112529  1
  O  O368  1  0.87606384  0.41733999  0.20055039  1
  O  O369  1  0.87938225  0.42023340  0.69383941  1
  O  O370  1  0.87808738  0.91774246  0.19434555  1
  O  O371  1  0.87733947  0.91564686  0.69566485  1
  O  O372  1  0.05293466  0.15844287  0.19818038  1
  O  O373  1  0.04628952  0.16935988  0.69451272  1
  O  O374  1  0.04308713  0.66596902  0.19039730  1
  O  O375  1  0.04620896  0.66782267  0.69664425  1
  O  O376  1  0.37955692  0.16837587  0.20350560  1
  O  O377  1  0.37213843  0.16629578  0.69262787  1
  O  O378  1  0.37602496  0.66406636  0.19228545  1
  O  O379  1  0.38194137  0.66336893  0.69148394  1
  O  O380  1  0.71322152  0.16443764  0.20485258  1
  O  O381  1  0.71122721  0.17057459  0.69692353  1
  O  O382  1  0.70681890  0.66754662  0.19394420  1
  O  O383  1  0.71097394  0.66572029  0.69378300  1
  O  O384  1  0.12596178  0.08292336  0.30717703  1
  O  O385  1  0.13510017  0.07911637  0.80691384  1
  O  O386  1  0.11980754  0.58236294  0.30377303  1
  O  O387  1  0.12831938  0.58475297  0.80019582  1
  O  O388  1  0.45426070  0.08544090  0.31301041  1
  O  O389  1  0.45389158  0.08244397  0.80473096  1
  O  O390  1  0.45243109  0.58462679  0.30473079  1
  O  O391  1  0.45546936  0.58405467  0.80249231  1
  O  O392  1  0.79410061  0.07988296  0.31177381  1
  O  O393  1  0.79323667  0.08116810  0.80632866  1
  O  O394  1  0.79015405  0.58421215  0.29826628  1
  O  O395  1  0.79207155  0.58778646  0.80441464  1
  O  O396  1  0.29024066  0.33644261  0.30485896  1
  O  O397  1  0.29030848  0.33225244  0.80302545  1
  O  O398  1  0.28550427  0.83142305  0.30720328  1
  O  O399  1  0.29017279  0.83711993  0.80177436  1
  O  O400  1  0.62208548  0.33822938  0.30978885  1
  O  O401  1  0.61791548  0.32750956  0.81112448  1
  O  O402  1  0.62420391  0.83201292  0.30796442  1
  O  O403  1  0.62389414  0.82918895  0.80363707  1
  O  O404  1  0.95303607  0.33808868  0.30744038  1
  O  O405  1  0.96089018  0.33569208  0.80216251  1
  O  O406  1  0.95629270  0.83851757  0.30423967  1
  O  O407  1  0.96113046  0.82865606  0.80218010  1
  O  O408  1  0.12083323  0.41621636  0.30423304  1
  O  O409  1  0.12522135  0.41831923  0.80428080  1
  O  O410  1  0.12498327  0.91875256  0.30545475  1
  O  O411  1  0.12621619  0.91285625  0.80321628  1
  O  O412  1  0.45419116  0.41970604  0.30648065  1
  O  O413  1  0.45095763  0.42072607  0.80440440  1
  O  O414  1  0.45595564  0.91658224  0.29947981  1
  O  O415  1  0.45552747  0.91555851  0.80359010  1
  O  O416  1  0.79055576  0.41697956  0.30859024  1
  O  O417  1  0.80102421  0.42588140  0.81058852  1
  O  O418  1  0.79503330  0.91549555  0.30705193  1
  O  O419  1  0.79028314  0.90808544  0.80750675  1
  O  O420  1  0.28833744  0.16861801  0.30747941  1
  O  O421  1  0.28648912  0.16678758  0.80244531  1
  O  O422  1  0.28765105  0.66588703  0.30391605  1
  O  O423  1  0.28997243  0.66470146  0.80027636  1
  O  O424  1  0.62157437  0.16921335  0.30459672  1
  O  O425  1  0.61995846  0.16867620  0.80391507  1
  O  O426  1  0.62210694  0.66471868  0.30701148  1
  O  O427  1  0.62297933  0.66717047  0.80241608  1
  O  O428  1  0.95314493  0.15768553  0.30862826  1
  O  O429  1  0.95080985  0.17527706  0.80800142  1
  O  O430  1  0.95735083  0.66567163  0.30524338  1
  O  O431  1  0.95843786  0.66524463  0.80206698  1
  F  F432  1  0.04708303  -0.00023910  0.20462244  1
  F  F433  1  0.05038816  -0.00844633  0.69898748  1
  F  F434  1  0.04249659  0.50110866  0.20144826  1
  F  F435  1  0.04692325  0.49884772  0.69913183  1
  F  F436  1  0.37668016  0.00193653  0.20450818  1
  F  F437  1  0.37845203  0.00038516  0.70015615  1
  F  F438  1  0.37907244  0.50046570  0.20350739  1
  F  F439  1  0.37879629  0.50143397  0.69866709  1
  F  F440  1  0.71455859  -0.00046983  0.20771246  1
  F  F441  1  0.71579402  -0.01066127  0.70082836  1
  F  F442  1  0.70869833  0.49878613  0.20303973  1
  F  F443  1  0.71754077  0.51045697  0.69820900  1
  F  F444  1  0.21431177  0.25074783  0.20344545  1
  F  F445  1  0.21050455  0.24884594  0.69999347  1
  F  F446  1  0.21140318  0.74992371  0.20081162  1
  F  F447  1  0.20987052  0.75216651  0.69647676  1
  F  F448  1  0.54326395  0.25462394  0.20660947  1
  F  F449  1  0.54386723  0.24857415  0.69855554  1
  F  F450  1  0.54614989  0.74832975  0.20568516  1
  F  F451  1  0.54699490  0.74865388  0.69817566  1
  F  F452  1  0.86579263  0.24933153  0.20210620  1
  F  F453  1  0.87834685  0.24231483  0.69710688  1
  F  F454  1  0.87537650  0.75004751  0.20134754  1
  F  F455  1  0.87973460  0.74928655  0.69991645  1
  F  F456  1  0.28733499  -0.00057402  0.29903724  1
  F  F457  1  0.28933376  -0.00159102  0.79434735  1
  F  F458  1  0.28691220  0.49921912  0.29868550  1
  F  F459  1  0.28985980  0.50307531  0.79430509  1
  F  F460  1  0.62339980  -0.00419061  0.30120384  1
  F  F461  1  0.62097759  -0.00538008  0.80306933  1
  F  F462  1  0.61997602  0.50128883  0.30015299  1
  F  F463  1  0.61527346  0.51339475  0.80209899  1
  F  F464  1  0.95744644  -0.00142370  0.29935932  1
  F  F465  1  0.95074391  -0.01625981  0.80403144  1
  F  F466  1  0.95667415  0.50346313  0.29755040  1
  F  F467  1  0.95872525  0.50471464  0.79497489  1
  F  F468  1  0.13501021  0.25099464  0.30396077  1
  F  F469  1  0.12258412  0.25127275  0.79653115  1
  F  F470  1  0.12549389  0.74913204  0.29787101  1
  F  F471  1  0.12474386  0.75172132  0.79568021  1
  F  F472  1  0.45322359  0.25656198  0.30340252  1
  F  F473  1  0.44729432  0.24618013  0.79672814  1
  F  F474  1  0.45328045  0.74588325  0.29998596  1
  F  F475  1  0.46017859  0.74977355  0.79621562  1
  F  F476  1  0.78829374  0.25319896  0.30313564  1
  F  F477  1  0.78503669  0.24907727  0.80384537  1
  F  F478  1  0.79013330  0.74801614  0.30066538  1
  F  F479  1  0.78996984  0.74737627  0.79565846  1
