# generated using pymatgen
data_K24Na3Li5Mg64Fe17Si79(O5F)48
_symmetry_space_group_name_H-M   'P 1'
_cell_length_a   16.08237088
_cell_length_b   18.57588721
_cell_length_c   20.53732320
_cell_angle_alpha   90.00029331
_cell_angle_beta   100.00943659
_cell_angle_gamma   89.98942613
_symmetry_Int_Tables_number   1
_chemical_formula_structural   K24Na3Li5Mg64Fe17Si79(O5F)48
_chemical_formula_sum   'K24 Na3 Li5 Mg64 Fe17 Si79 O240 F48'
_cell_volume   6042.02209975
_cell_formula_units_Z   1
loop_
 _symmetry_equiv_pos_site_id
 _symmetry_equiv_pos_as_xyz
  1  'x, y, z'
loop_
 _atom_site_type_symbol
 _atom_site_label
 _atom_site_symmetry_multiplicity
 _atom_site_fract_x
 _atom_site_fract_y
 _atom_site_fract_z
 _atom_site_occupancy
  K  K0  1  0.00198720  -0.00067826  0.00360551  1
  K  K1  1  0.00043604  -0.00100687  0.50125587  1
  K  K2  1  0.00316402  0.49875272  -0.00109714  1
  K  K3  1  0.00545620  0.50155089  0.50232132  1
  K  K4  1  0.33091343  0.00315303  0.00004249  1
  K  K5  1  0.32519567  -0.00317165  0.49611928  1
  K  K6  1  0.33884429  0.51103807  0.00717341  1
  K  K7  1  0.32615292  0.49861218  0.49802623  1
  K  K8  1  0.67431868  -0.00887644  -0.00479592  1
  K  K9  1  0.66225046  -0.00344055  0.50185660  1
  K  K10  1  0.66084677  0.50231796  -0.00259546  1
  K  K11  1  0.66927523  0.50024114  0.50188323  1
  K  K12  1  0.16568176  0.25713280  0.00177029  1
  K  K13  1  0.16656049  0.24758035  0.50371097  1
  K  K14  1  0.16562580  0.74505789  0.00836965  1
  K  K15  1  0.16334324  0.74501045  0.49677733  1
  K  K16  1  0.50094911  0.25398324  0.00499006  1
  K  K17  1  0.49650952  0.25769782  0.49544480  1
  K  K18  1  0.50605635  0.74780613  0.00362270  1
  K  K19  1  0.50068418  0.74148394  0.49600512  1
  K  K20  1  0.83520419  0.24805708  -0.00285848  1
  K  K21  1  0.82787188  0.25722892  0.50586341  1
  K  K22  1  0.83284088  0.75393085  -0.00136054  1
  K  K23  1  0.83279522  0.75121455  0.50157174  1
  Na  Na24  1  0.33226520  0.75140366  0.24086223  1
  Na  Na25  1  0.16423819  0.33184979  0.74482298  1
  Na  Na26  1  0.49873095  0.17033673  0.25124776  1
  Li  Li27  1  -0.00453511  0.74798279  0.74646096  1
  Li  Li28  1  0.16695234  -0.00084653  0.24613823  1
  Li  Li29  1  0.33166206  0.41579972  0.25372515  1
  Li  Li30  1  0.66913221  0.42478629  0.75452292  1
  Li  Li31  1  0.66951694  0.57855035  0.74986055  1
  Mg  Mg32  1  0.33115813  0.24917297  0.74781827  1
  Mg  Mg33  1  0.16777821  0.50035419  0.74644624  1
  Mg  Mg34  1  0.83333979  -0.00104254  0.75367849  1
  Mg  Mg35  1  0.49973704  -0.00007208  0.24978274  1
  Mg  Mg36  1  0.33510442  0.74869645  0.74649535  1
  Mg  Mg37  1  0.16993303  0.49695540  0.25089378  1
  Mg  Mg38  1  0.00092296  0.75232855  0.24968735  1
  Mg  Mg39  1  0.83302866  0.49827741  0.25431570  1
  Mg  Mg40  1  -0.00064683  0.25159540  0.75061187  1
  Mg  Mg41  1  0.66508113  0.25139173  0.25278702  1
  Mg  Mg42  1  0.83532630  0.00004859  0.25139820  1
  Mg  Mg43  1  0.50677173  0.49929466  0.75146323  1
  Mg  Mg44  1  0.49726511  0.50101633  0.24813268  1
  Mg  Mg45  1  0.50100530  0.00143474  0.75425451  1
  Mg  Mg46  1  0.16493915  -0.00299840  0.74527928  1
  Mg  Mg47  1  0.00179001  0.24922099  0.24802327  1
  Mg  Mg48  1  0.66705068  0.74766707  0.75399164  1
  Mg  Mg49  1  0.66627365  0.75050371  0.25161605  1
  Mg  Mg50  1  0.33309002  0.25221729  0.25203571  1
  Mg  Mg51  1  0.66864115  0.25487124  0.75544621  1
  Mg  Mg52  1  0.82895886  0.50097006  0.75059612  1
  Mg  Mg53  1  0.00016202  0.41631742  0.75020933  1
  Mg  Mg54  1  0.16469092  0.83589702  0.24525648  1
  Mg  Mg55  1  -0.00146720  0.58596791  0.74772915  1
  Mg  Mg56  1  0.83445378  0.33424870  0.25362426  1
  Mg  Mg57  1  0.33344206  0.58322511  0.74640820  1
  Mg  Mg58  1  0.66624404  0.58330486  0.25124476  1
  Mg  Mg59  1  0.50570861  0.66307189  0.74960981  1
  Mg  Mg60  1  0.50316961  0.83385387  0.75322288  1
  Mg  Mg61  1  0.33444083  0.58206595  0.24486421  1
  Mg  Mg62  1  0.33149279  0.08351854  0.24827751  1
  Mg  Mg63  1  0.66665355  0.08508259  0.25167047  1
  Mg  Mg64  1  0.66579379  0.41583857  0.25184171  1
  Mg  Mg65  1  -0.00228926  0.08304639  0.74741492  1
  Mg  Mg66  1  0.33295453  0.91537315  0.74835144  1
  Mg  Mg67  1  0.83490814  0.16608663  0.75571145  1
  Mg  Mg68  1  0.50065667  0.16733867  0.75249845  1
  Mg  Mg69  1  0.16469693  0.66635781  0.74614562  1
  Mg  Mg70  1  0.00259764  0.58379129  0.25218819  1
  Mg  Mg71  1  0.32914332  0.08380095  0.74723050  1
  Mg  Mg72  1  0.33005775  0.91773444  0.24609101  1
  Mg  Mg73  1  0.00453439  0.08255424  0.24587477  1
  Mg  Mg74  1  0.83436927  0.33754718  0.75333771  1
  Mg  Mg75  1  0.49982620  0.66548599  0.24756432  1
  Mg  Mg76  1  0.16802022  0.66613446  0.24532995  1
  Mg  Mg77  1  0.83488555  0.66600368  0.25344344  1
  Mg  Mg78  1  0.66919079  0.91421784  0.75548098  1
  Mg  Mg79  1  -0.00414086  0.91175929  0.74733663  1
  Mg  Mg80  1  0.83539998  0.16606470  0.24942070  1
  Mg  Mg81  1  0.33223083  0.41571768  0.74788294  1
  Mg  Mg82  1  0.50197552  0.33479204  0.75238007  1
  Mg  Mg83  1  0.00263901  0.91542776  0.24877075  1
  Mg  Mg84  1  0.83104366  0.66574985  0.75154592  1
  Mg  Mg85  1  0.00251052  0.41517884  0.25237336  1
  Mg  Mg86  1  0.49566174  0.33631352  0.25221883  1
  Mg  Mg87  1  0.83563074  0.83512576  0.25275279  1
  Mg  Mg88  1  0.16886490  0.33519622  0.25009346  1
  Mg  Mg89  1  0.50023259  0.83307022  0.24818388  1
  Mg  Mg90  1  0.16684644  0.16490393  0.24682099  1
  Mg  Mg91  1  0.16210369  0.16328332  0.74232254  1
  Mg  Mg92  1  0.67003925  0.08552181  0.75640202  1
  Mg  Mg93  1  0.16295670  0.83035614  0.74617866  1
  Mg  Mg94  1  0.66793873  0.91638480  0.25344696  1
  Mg  Mg95  1  0.83365404  0.83196031  0.75052864  1
  Fe  Fe96  1  0.19208585  0.58577399  0.60692793  1
  Fe  Fe97  1  0.98256835  0.33676062  0.89323527  1
  Fe  Fe98  1  0.97356181  0.83682359  0.39182700  1
  Fe  Fe99  1  0.01904661  0.33336484  0.60694212  1
  Fe  Fe100  1  0.85344237  0.91534954  0.61007527  1
  Fe  Fe101  1  0.63999590  0.83032880  0.89452049  1
  Fe  Fe102  1  0.19035003  0.07797533  0.60585222  1
  Fe  Fe103  1  0.02189559  0.16851361  0.10568188  1
  Fe  Fe104  1  0.81153081  0.08566860  0.89485209  1
  Fe  Fe105  1  0.13791613  0.41505765  0.39226370  1
  Fe  Fe106  1  0.35765452  0.67163720  0.10328011  1
  Fe  Fe107  1  0.30728485  0.33042834  0.39146155  1
  Fe  Fe108  1  0.52760198  0.58284118  0.10823192  1
  Fe  Fe109  1  0.80736853  0.41010907  0.39246249  1
  Fe  Fe110  1  0.02695655  0.83215993  0.10623548  1
  Fe  Fe111  1  0.63875394  0.83358758  0.39003899  1
  Fe  Fe112  1  0.68622831  0.66583184  0.61456336  1
  Si  Si113  1  0.85516380  0.42053553  0.11661330  1
  Si  Si114  1  0.81201498  0.58125130  0.38856471  1
  Si  Si115  1  0.81525857  0.91360537  0.89317064  1
  Si  Si116  1  0.69151153  0.33692521  0.61973785  1
  Si  Si117  1  0.46763918  0.08840794  0.88655777  1
  Si  Si118  1  0.46918444  0.92152241  0.88902335  1
  Si  Si119  1  0.85341139  0.42250456  0.61332737  1
  Si  Si120  1  0.52482003  0.57575702  0.61351605  1
  Si  Si121  1  0.02174756  0.66658608  0.61225988  1
  Si  Si122  1  0.30767283  0.66899635  0.38064686  1
  Si  Si123  1  0.97201426  0.32646013  0.38709228  1
  Si  Si124  1  0.64608973  0.66420970  0.38778644  1
  Si  Si125  1  0.53128982  0.08950278  0.61876052  1
  Si  Si126  1  0.19733830  0.41527995  0.60941457  1
  Si  Si127  1  0.63620265  0.17000399  0.89196617  1
  Si  Si128  1  0.98376934  0.16712578  0.88809450  1
  Si  Si129  1  0.69394299  0.17314037  0.61944972  1
  Si  Si130  1  0.30169461  0.83576733  0.38093932  1
  Si  Si131  1  0.63351813  0.33222822  0.39038032  1
  Si  Si132  1  0.14618828  0.58871905  0.88449598  1
  Si  Si133  1  0.36206653  0.84546341  0.10859404  1
  Si  Si134  1  0.19185666  0.90556454  0.61042879  1
  Si  Si135  1  0.35746848  0.32849580  0.11437456  1
  Si  Si136  1  0.47546301  0.07587933  0.38493357  1
  Si  Si137  1  0.97622561  0.66327237  0.88566047  1
  Si  Si138  1  0.85333419  0.08029065  0.11271573  1
  Si  Si139  1  0.01567192  0.16291944  0.60786906  1
  Si  Si140  1  0.35889232  0.16467836  0.11379406  1
  Si  Si141  1  0.30655758  0.83422045  0.88266361  1
  Si  Si142  1  0.36671287  0.83475356  0.61477607  1
  Si  Si143  1  0.46863138  0.91313628  0.38636509  1
  Si  Si144  1  0.47540550  0.58595535  0.38497306  1
  Si  Si145  1  0.19570333  0.92113130  0.10879721  1
  Si  Si146  1  0.85132136  0.08383100  0.61472955  1
  Si  Si147  1  0.36328676  0.16610588  0.61351229  1
  Si  Si148  1  0.64172322  0.16513761  0.38715305  1
  Si  Si149  1  0.14024143  0.91196746  0.88249457  1
  Si  Si150  1  0.69243095  0.16801419  0.11502771  1
  Si  Si151  1  0.69284238  0.33231500  0.11600371  1
  Si  Si152  1  0.97661111  0.82851985  0.88424627  1
  Si  Si153  1  0.47140891  0.41465101  0.88659636  1
  Si  Si154  1  0.97760705  0.66615729  0.38732656  1
  Si  Si155  1  0.02448622  0.83088474  0.61303926  1
  Si  Si156  1  0.31127282  0.67061655  0.88264140  1
  Si  Si157  1  0.69359796  0.83310305  0.11668691  1
  Si  Si158  1  0.85889419  0.58345565  0.11837315  1
  Si  Si159  1  0.52647577  0.92524081  0.61803543  1
  Si  Si160  1  0.14166658  0.91815383  0.38568528  1
  Si  Si161  1  0.19456373  0.08700097  0.10926586  1
  Si  Si162  1  0.81110334  0.58186042  0.88840967  1
  Si  Si163  1  0.98162350  0.16396925  0.38371124  1
  Si  Si164  1  0.53018271  0.92072235  0.11260360  1
  Si  Si165  1  0.13960785  0.07676854  0.88212677  1
  Si  Si166  1  0.85504148  0.91718390  0.11335326  1
  Si  Si167  1  0.81199451  0.08973867  0.38675756  1
  Si  Si168  1  0.63900162  0.33617313  0.88855439  1
  Si  Si169  1  0.19120322  0.41337207  0.11338211  1
  Si  Si170  1  0.14826265  0.42662570  0.88740121  1
  Si  Si171  1  0.01889722  0.33891351  0.11105899  1
  Si  Si172  1  0.80859339  0.41631831  0.89133704  1
  Si  Si173  1  0.31373735  0.16212355  0.38736668  1
  Si  Si174  1  0.30799701  0.33276105  0.88430112  1
  Si  Si175  1  0.14586463  0.58579007  0.38486610  1
  Si  Si176  1  0.52305624  0.41153320  0.11269676  1
  Si  Si177  1  0.14597946  0.08196392  0.38192346  1
  Si  Si178  1  0.68311781  0.83262357  0.61444704  1
  Si  Si179  1  0.52393736  0.41362871  0.61781118  1
  Si  Si180  1  0.36732052  0.66855667  0.61081076  1
  Si  Si181  1  0.52901616  0.08425157  0.11446485  1
  Si  Si182  1  0.85621791  0.58711108  0.61364421  1
  Si  Si183  1  0.02284267  0.65938116  0.11199636  1
  Si  Si184  1  0.30018954  0.16732474  0.88395652  1
  Si  Si185  1  0.36258742  0.33114227  0.61527390  1
  Si  Si186  1  0.64080909  0.66125340  0.89067483  1
  Si  Si187  1  0.47196598  0.42189122  0.38691718  1
  Si  Si188  1  0.69852166  0.66749406  0.11545704  1
  Si  Si189  1  0.19041694  0.57875435  0.10923885  1
  Si  Si190  1  0.80368515  0.92444476  0.38995789  1
  Si  Si191  1  0.47241096  0.58013656  0.88452333  1
  O  O192  1  0.28017560  0.11359490  0.07908668  1
  O  O193  1  0.28984496  0.11317511  0.57795986  1
  O  O194  1  0.25794591  0.61731836  0.07116037  1
  O  O195  1  0.28084241  0.63255934  0.57392045  1
  O  O196  1  0.60373293  0.12689214  0.08378645  1
  O  O197  1  0.61371823  0.11985833  0.58970605  1
  O  O198  1  0.62724052  0.61430360  0.07810666  1
  O  O199  1  0.60399311  0.59677458  0.57887852  1
  O  O200  1  0.92940396  0.10598999  0.07661244  1
  O  O201  1  0.93515513  0.10685397  0.58423869  1
  O  O202  1  0.94213547  0.60428596  0.08709717  1
  O  O203  1  0.94305396  0.61065144  0.58584995  1
  O  O204  1  0.10207211  0.37145316  0.08283285  1
  O  O205  1  0.12370396  0.35760200  0.58264365  1
  O  O206  1  0.12006520  0.86981254  0.07158305  1
  O  O207  1  0.11492724  0.84789422  0.58637979  1
  O  O208  1  0.43789794  0.36226526  0.08413273  1
  O  O209  1  0.44741769  0.35737381  0.58719320  1
  O  O210  1  0.44472539  0.87817807  0.07837687  1
  O  O211  1  0.43982279  0.88136337  0.58653839  1
  O  O212  1  0.77173782  0.37060455  0.08700682  1
  O  O213  1  0.76858854  0.37141566  0.58722625  1
  O  O214  1  0.77251784  0.86525921  0.08533675  1
  O  O215  1  0.76278552  0.85339498  0.57904107  1
  O  O216  1  0.26917022  0.37221043  0.08417313  1
  O  O217  1  0.28579915  0.38477270  0.58566135  1
  O  O218  1  0.28452618  0.90219464  0.08116747  1
  O  O219  1  0.27577588  0.87126993  0.58429859  1
  O  O220  1  0.60322456  0.37104748  0.08499803  1
  O  O221  1  0.60709573  0.38429763  0.58894682  1
  O  O222  1  0.61025734  0.88200414  0.08599203  1
  O  O223  1  0.60797469  0.89503787  0.58977432  1
  O  O224  1  0.93825453  0.39531787  0.08613217  1
  O  O225  1  0.92741564  0.39609123  0.57482245  1
  O  O226  1  0.93129887  0.89148330  0.07718530  1
  O  O227  1  0.95370253  0.88804051  0.57944097  1
  O  O228  1  0.11839200  0.13779247  0.07275894  1
  O  O229  1  0.09413854  0.13272440  0.57460368  1
  O  O230  1  0.09880957  0.61831390  0.08211918  1
  O  O231  1  0.09806984  0.64372207  0.57429385  1
  O  O232  1  0.44228341  0.13009156  0.08679895  1
  O  O233  1  0.45300502  0.14294320  0.58906265  1
  O  O234  1  0.44242513  0.63770536  0.06029906  1
  O  O235  1  0.44539497  0.62938182  0.58255262  1
  O  O236  1  0.76927985  0.13068384  0.08520206  1
  O  O237  1  0.77672157  0.14546252  0.59038776  1
  O  O238  1  0.78724610  0.64363625  0.09002926  1
  O  O239  1  0.78383346  0.64217435  0.57947046  1
  O  O240  1  0.06191726  0.11058780  0.41187166  1
  O  O241  1  0.05879937  0.10534029  0.91246705  1
  O  O242  1  0.05988865  0.61341569  0.41202333  1
  O  O243  1  0.06488779  0.61937175  0.91577570  1
  O  O244  1  0.39418310  0.10669546  0.41519866  1
  O  O245  1  0.38816233  0.12475161  0.91581448  1
  O  O246  1  0.39439278  0.62327897  0.41313666  1
  O  O247  1  0.39528607  0.62254689  0.91227880  1
  O  O248  1  0.73268420  0.12530453  0.41821563  1
  O  O249  1  0.71532285  0.12296031  0.92744262  1
  O  O250  1  0.72595762  0.60929374  0.41476093  1
  O  O251  1  0.73126318  0.61840066  0.91732223  1
  O  O252  1  0.21745785  0.35102760  0.43319342  1
  O  O253  1  0.23468838  0.37732743  0.91312961  1
  O  O254  1  0.22267802  0.86442688  0.41539653  1
  O  O255  1  0.22366224  0.86282911  0.91184290  1
  O  O256  1  0.55158037  0.36717931  0.41692464  1
  O  O257  1  0.56165129  0.37634835  0.91862422  1
  O  O258  1  0.54019820  0.85879788  0.42273448  1
  O  O259  1  0.55032771  0.87877239  0.92668405  1
  O  O260  1  0.88352680  0.33406911  0.41438622  1
  O  O261  1  0.88769834  0.36938771  0.92903647  1
  O  O262  1  0.87820189  0.87105280  0.42404967  1
  O  O263  1  0.89924728  0.86133130  0.91721490  1
  O  O264  1  0.03611828  0.38846334  0.42010205  1
  O  O265  1  0.07505081  0.39821149  0.92588430  1
  O  O266  1  0.06548827  0.89704329  0.42426776  1
  O  O267  1  0.06204444  0.87677882  0.91316649  1
  O  O268  1  0.39473520  0.39697136  0.42228658  1
  O  O269  1  0.39964520  0.36896244  0.91786759  1
  O  O270  1  0.38043152  0.88939733  0.41192008  1
  O  O271  1  0.38334361  0.88930682  0.91318776  1
  O  O272  1  0.71427311  0.37610598  0.42821934  1
  O  O273  1  0.72376526  0.38251564  0.91798922  1
  O  O274  1  0.71700499  0.90741109  0.41737461  1
  O  O275  1  0.73998577  0.87981561  0.92768785  1
  O  O276  1  0.22879969  0.13067601  0.41404849  1
  O  O277  1  0.22402696  0.12533471  0.91239596  1
  O  O278  1  0.22547530  0.64168841  0.41236340  1
  O  O279  1  0.22849681  0.64103094  0.91167435  1
  O  O280  1  0.56353520  0.12191018  0.41319825  1
  O  O281  1  0.54990971  0.13760379  0.91673767  1
  O  O282  1  0.56069402  0.63318679  0.41405904  1
  O  O283  1  0.56452844  0.61352195  0.91687390  1
  O  O284  1  0.89771030  0.13715151  0.41403972  1
  O  O285  1  0.90317949  0.14694268  0.92265372  1
  O  O286  1  0.89273967  0.63552789  0.41399030  1
  O  O287  1  0.89960719  0.62653332  0.91968489  1
  O  O288  1  0.17512776  0.00426327  0.08135555  1
  O  O289  1  0.17196084  -0.01771688  0.57402620  1
  O  O290  1  0.18138803  0.49457020  0.08104362  1
  O  O291  1  0.17689804  0.49243959  0.57227303  1
  O  O292  1  0.52139029  0.00312176  0.08091066  1
  O  O293  1  0.51081584  0.00810942  0.58912650  1
  O  O294  1  0.50975346  0.48723533  0.07448405  1
  O  O295  1  0.49594840  0.49306788  0.58704522  1
  O  O296  1  0.82320969  -0.00138986  0.08776216  1
  O  O297  1  0.81610193  0.00878689  0.58115640  1
  O  O298  1  0.82909542  0.50260788  0.08963297  1
  O  O299  1  0.82826038  0.50508793  0.58682597  1
  O  O300  1  -0.00718713  0.26312964  0.07466499  1
  O  O301  1  -0.01450233  0.24019007  0.57577240  1
  O  O302  1  0.00351914  0.73620426  0.07520233  1
  O  O303  1  -0.00671692  0.74936856  0.58739926  1
  O  O304  1  0.34575087  0.24645989  0.08130088  1
  O  O305  1  0.34315286  0.24907228  0.58691204  1
  O  O306  1  0.33651576  0.76871314  0.07431716  1
  O  O307  1  0.37008369  0.75349126  0.58551567  1
  O  O308  1  0.68432125  0.25031855  0.08518403  1
  O  O309  1  0.67237404  0.25428490  0.58883259  1
  O  O310  1  0.67742286  0.75087627  0.08866203  1
  O  O311  1  0.64197633  0.75703521  0.58559189  1
  O  O312  1  0.17045385  0.00097793  0.41101230  1
  O  O313  1  0.15977487  -0.00572617  0.91157242  1
  O  O314  1  0.17212008  0.50958410  0.41921950  1
  O  O315  1  0.17345872  0.50937364  0.91622039  1
  O  O316  1  0.49288236  -0.00510933  0.41700001  1
  O  O317  1  0.47690960  0.00625161  0.91592434  1
  O  O318  1  0.49533704  0.50496630  0.41583999  1
  O  O319  1  0.47140637  0.49757157  0.91435802  1
  O  O320  1  0.83056861  0.00834568  0.41520598  1
  O  O321  1  0.83939177  -0.00770131  0.92599273  1
  O  O322  1  0.83780298  0.50400723  0.42238388  1
  O  O323  1  0.81993338  0.50021659  0.92087093  1
  O  O324  1  0.34187616  0.23694274  0.42393698  1
  O  O325  1  0.30759310  0.24959174  0.91423452  1
  O  O326  1  0.32536512  0.75278497  0.40755691  1
  O  O327  1  0.32995203  0.75290934  0.91170370  1
  O  O328  1  0.64122110  0.24701094  0.41764508  1
  O  O329  1  0.64570428  0.25394358  0.92077960  1
  O  O330  1  0.67083222  0.74096744  0.42285136  1
  O  O331  1  0.64714638  0.73682095  0.93108292  1
  O  O332  1  1.00923108  0.24465927  0.41078396  1
  O  O333  1  1.02197202  0.24339487  0.91790950  1
  O  O334  1  1.00047849  0.74272315  0.42286676  1
  O  O335  1  0.99228101  0.74614663  0.91443809  1
  O  O336  1  0.21246339  0.08904596  0.18931304  1
  O  O337  1  0.21094873  0.07866041  0.69786434  1
  O  O338  1  0.20876744  0.58119759  0.18994260  1
  O  O339  1  0.21347230  0.58497609  0.69905435  1
  O  O340  1  0.54966888  0.07848182  0.19352676  1
  O  O341  1  0.54646892  0.08632517  0.69952002  1
  O  O342  1  0.54815175  0.58245110  0.20040884  1
  O  O343  1  0.53888363  0.58056469  0.69369279  1
  O  O344  1  0.87395660  0.08371675  0.19378621  1
  O  O345  1  0.87350747  0.08348390  0.69578672  1
  O  O346  1  0.87700567  0.58249202  0.19886792  1
  O  O347  1  0.87534615  0.58543651  0.69458686  1
  O  O348  1  0.03828297  0.33436685  0.19169476  1
  O  O349  1  0.03174606  0.33351513  0.69680660  1
  O  O350  1  0.04332963  0.83315599  0.19716002  1
  O  O351  1  0.04446186  0.83491269  0.69334894  1
  O  O352  1  0.37824807  0.32795408  0.19345068  1
  O  O353  1  0.37926493  0.33111994  0.69603560  1
  O  O354  1  0.38441889  0.84571231  0.18862619  1
  O  O355  1  0.38112493  0.83504161  0.69559171  1
  O  O356  1  0.71035575  0.33233331  0.19608253  1
  O  O357  1  0.71164983  0.33237072  0.69920759  1
  O  O358  1  0.71267997  0.83513118  0.19691554  1
  O  O359  1  0.70711073  0.83497449  0.69602696  1
  O  O360  1  0.20602999  0.41573371  0.19246683  1
  O  O361  1  0.21719244  0.42411081  0.68993269  1
  O  O362  1  0.21121493  0.91489289  0.18868855  1
  O  O363  1  0.21150477  0.91236611  0.69177322  1
  O  O364  1  0.54308479  0.41525363  0.19351824  1
  O  O365  1  0.53908664  0.41424363  0.69737400  1
  O  O366  1  0.54570903  0.92054303  0.19283069  1
  O  O367  1  0.54113024  0.92172602  0.69843969  1
  O  O368  1  0.87611945  0.41695455  0.19676535  1
  O  O369  1  0.87327530  0.41962027  0.69407420  1
  O  O370  1  0.87342777  0.91719912  0.19426856  1
  O  O371  1  0.87414336  0.91665865  0.70210667  1
  O  O372  1  0.04343464  0.16729937  0.19718104  1
  O  O373  1  0.03845392  0.16290444  0.68974248  1
  O  O374  1  0.04076444  0.66380033  0.19292136  1
  O  O375  1  0.04513484  0.66372270  0.69261755  1
  O  O376  1  0.36814582  0.16721712  0.19275380  1
  O  O377  1  0.37946958  0.16460519  0.69483910  1
  O  O378  1  0.38421655  0.65827250  0.19283599  1
  O  O379  1  0.38022021  0.66699988  0.69209440  1
  O  O380  1  0.70918791  0.16726128  0.19533274  1
  O  O381  1  0.70773536  0.17054199  0.69973459  1
  O  O382  1  0.71304215  0.66660303  0.19651419  1
  O  O383  1  0.71018458  0.66750078  0.70500161  1
  O  O384  1  0.12476543  0.08542134  0.30245412  1
  O  O385  1  0.12269306  0.07824499  0.80197111  1
  O  O386  1  0.12526774  0.58458546  0.30365969  1
  O  O387  1  0.12424028  0.58683234  0.80457240  1
  O  O388  1  0.45464375  0.07547450  0.30559841  1
  O  O389  1  0.45309546  0.08585377  0.80599008  1
  O  O390  1  0.45711367  0.58390549  0.30510711  1
  O  O391  1  0.45579627  0.58256163  0.80431035  1
  O  O392  1  0.79126281  0.08713838  0.30596257  1
  O  O393  1  0.78904325  0.08382246  0.80280589  1
  O  O394  1  0.79193290  0.58232430  0.30705930  1
  O  O395  1  0.79776982  0.58211001  0.80930458  1
  O  O396  1  0.28642529  0.33124823  0.30092431  1
  O  O397  1  0.29877370  0.33168602  0.80510392  1
  O  O398  1  0.28317569  0.84030298  0.30160659  1
  O  O399  1  0.29056820  0.83357354  0.80217290  1
  O  O400  1  0.62272200  0.33320469  0.30939331  1
  O  O401  1  0.61933332  0.33061010  0.80931097  1
  O  O402  1  0.62158745  0.83422621  0.29813154  1
  O  O403  1  0.62080161  0.83382918  0.80269529  1
  O  O404  1  0.95693523  0.32996608  0.30499913  1
  O  O405  1  0.95486011  0.33534187  0.80224691  1
  O  O406  1  0.95421960  0.83453249  0.30015599  1
  O  O407  1  0.95734012  0.83210481  0.80498724  1
  O  O408  1  0.12148110  0.41557199  0.29957280  1
  O  O409  1  0.12370156  0.42718186  0.80775794  1
  O  O410  1  0.12107401  0.91389236  0.30585113  1
  O  O411  1  0.12355941  0.91365961  0.80216817  1
  O  O412  1  0.46090708  0.42051959  0.30679305  1
  O  O413  1  0.45539844  0.41433208  0.80657581  1
  O  O414  1  0.45628889  0.91547709  0.30541625  1
  O  O415  1  0.45550750  0.91899644  0.80793722  1
  O  O416  1  0.78663983  0.41516865  0.30047866  1
  O  O417  1  0.79614764  0.41687621  0.81148695  1
  O  O418  1  0.79058103  0.92076911  0.30801736  1
  O  O419  1  0.79084116  0.91554222  0.81173463  1
  O  O420  1  0.29324487  0.16459673  0.30638012  1
  O  O421  1  0.28899833  0.16592209  0.80413775  1
  O  O422  1  0.28683348  0.66099142  0.30167908  1
  O  O423  1  0.29395362  0.66882189  0.80252544  1
  O  O424  1  0.63291018  0.16680533  0.30786435  1
  O  O425  1  0.62173974  0.16858196  0.81089656  1
  O  O426  1  0.62803622  0.66660027  0.30678147  1
  O  O427  1  0.61890773  0.67004292  0.81135498  1
  O  O428  1  0.95731012  0.16397724  0.30325667  1
  O  O429  1  0.95949405  0.16463484  0.80644963  1
  O  O430  1  0.95813527  0.66692250  0.30586733  1
  O  O431  1  0.95559508  0.66189139  0.80633060  1
  F  F432  1  0.04006244  -0.00135428  0.19860434  1
  F  F433  1  0.04322175  -0.00234674  0.70053333  1
  F  F434  1  0.04349887  0.50118356  0.20203400  1
  F  F435  1  0.04564016  0.50152561  0.70149200  1
  F  F436  1  0.38120663  0.00248590  0.19862235  1
  F  F437  1  0.38084744  0.00003577  0.70315140  1
  F  F438  1  0.38098910  0.50006852  0.19766784  1
  F  F439  1  0.38261349  0.49876225  0.70347238  1
  F  F440  1  0.71316305  0.00138265  0.20474368  1
  F  F441  1  0.70766496  -0.00056160  0.70695334  1
  F  F442  1  0.71198093  0.50022537  0.20221905  1
  F  F443  1  0.71333313  0.49811681  0.70368287  1
  F  F444  1  0.21079116  0.24949409  0.19998962  1
  F  F445  1  0.21833500  0.23775815  0.69516175  1
  F  F446  1  0.19633011  0.74965554  0.19309679  1
  F  F447  1  0.21562269  0.75042131  0.69856052  1
  F  F448  1  0.55085217  0.26053189  0.20039783  1
  F  F449  1  0.54667009  0.24948786  0.70528326  1
  F  F450  1  0.54804647  0.74932411  0.19742388  1
  F  F451  1  0.54265753  0.74992028  0.70343162  1
  F  F452  1  0.87660871  0.25047383  0.20158501  1
  F  F453  1  0.87362743  0.24804955  0.70561519  1
  F  F454  1  0.87655912  0.74816449  0.20244441  1
  F  F455  1  0.87318200  0.74872673  0.70387811  1
  F  F456  1  0.29014033  0.00054554  0.29367904  1
  F  F457  1  0.28840054  -0.00320568  0.79774001  1
  F  F458  1  0.28821082  0.50381594  0.29575619  1
  F  F459  1  0.29154994  0.49940626  0.79872380  1
  F  F460  1  0.62144428  0.00168189  0.29921499  1
  F  F461  1  0.61974401  0.00234190  0.80363988  1
  F  F462  1  0.62220503  0.49800717  0.29908697  1
  F  F463  1  0.61738258  0.49931479  0.80571351  1
  F  F464  1  0.95500981  0.00183345  0.29654215  1
  F  F465  1  0.95792196  -0.00006751  0.79858814  1
  F  F466  1  0.95568050  0.49977665  0.29885492  1
  F  F467  1  0.95454747  0.50176052  0.79594023  1
  F  F468  1  0.12200971  0.25017057  0.29572935  1
  F  F469  1  0.11951713  0.23651097  0.79709758  1
  F  F470  1  0.12251234  0.74722455  0.29661148  1
  F  F471  1  0.13054203  0.74906524  0.79776701  1
  F  F472  1  0.45133657  0.25940536  0.30376076  1
  F  F473  1  0.45351814  0.24862812  0.79944115  1
  F  F474  1  0.46711630  0.75019799  0.29792993  1
  F  F475  1  0.45330584  0.74970997  0.79799428  1
  F  F476  1  0.78785266  0.24824954  0.29707299  1
  F  F477  1  0.78800180  0.25070769  0.80366476  1
  F  F478  1  0.78878329  0.75056414  0.29900719  1
  F  F479  1  0.78896189  0.75226903  0.80359085  1
