# generated using pymatgen
data_K24Na3Li5Mg64Fe17Si79(O5F)48
_symmetry_space_group_name_H-M   'P 1'
_cell_length_a   16.09795425
_cell_length_b   18.60556830
_cell_length_c   20.56266092
_cell_angle_alpha   89.98622850
_cell_angle_beta   100.01881302
_cell_angle_gamma   90.00361175
_symmetry_Int_Tables_number   1
_chemical_formula_structural   K24Na3Li5Mg64Fe17Si79(O5F)48
_chemical_formula_sum   'K24 Na3 Li5 Mg64 Fe17 Si79 O240 F48'
_cell_volume   6064.83822119
_cell_formula_units_Z   1
loop_
 _symmetry_equiv_pos_site_id
 _symmetry_equiv_pos_as_xyz
  1  'x, y, z'
loop_
 _atom_site_type_symbol
 _atom_site_label
 _atom_site_symmetry_multiplicity
 _atom_site_fract_x
 _atom_site_fract_y
 _atom_site_fract_z
 _atom_site_occupancy
  K  K0  1  -0.00103483  -0.00627050  0.00117034  1
  K  K1  1  -0.00458309  -0.00700019  0.49884710  1
  K  K2  1  0.01213614  0.49638356  0.00022336  1
  K  K3  1  0.00559047  0.50311365  0.50464890  1
  K  K4  1  0.33209198  0.00086000  0.00147596  1
  K  K5  1  0.33095808  -0.00285481  0.49783133  1
  K  K6  1  0.32832341  0.50307192  0.00012925  1
  K  K7  1  0.33390543  0.50550941  0.49949398  1
  K  K8  1  0.66842763  -0.00516875  -0.00004573  1
  K  K9  1  0.66666100  0.00516514  0.50151842  1
  K  K10  1  0.67013618  0.50252376  -0.00169968  1
  K  K11  1  0.64811322  0.50916939  0.50215049  1
  K  K12  1  0.16564212  0.25549013  -0.00569506  1
  K  K13  1  0.15960044  0.25916341  0.50565822  1
  K  K14  1  0.15650475  0.74654284  0.00550749  1
  K  K15  1  0.15196616  0.74877555  0.49198161  1
  K  K16  1  0.50124423  0.25034656  -0.00570278  1
  K  K17  1  0.50973568  0.25816833  0.50661832  1
  K  K18  1  0.50552950  0.74144930  0.01085347  1
  K  K19  1  0.49904949  0.74680847  0.49535754  1
  K  K20  1  0.83811589  0.25299579  -0.00421562  1
  K  K21  1  0.83415545  0.25123415  0.51128541  1
  K  K22  1  0.84043883  0.75232999  0.00432268  1
  K  K23  1  0.84074623  0.74761166  0.49257074  1
  Na  Na24  1  0.66590220  0.74942777  0.25483107  1
  Na  Na25  1  0.49731562  0.82917358  0.74742360  1
  Na  Na26  1  0.00375453  0.42183940  0.75274520  1
  Li  Li27  1  0.17134847  0.50279647  0.75161427  1
  Li  Li28  1  0.50346535  -0.00522417  0.25487552  1
  Li  Li29  1  0.00268207  0.58589279  0.25336339  1
  Li  Li30  1  -0.00215933  0.90864435  0.25009596  1
  Li  Li31  1  0.32805225  0.58029339  0.75116850  1
  Mg  Mg32  1  0.16403972  -0.00364295  0.24870415  1
  Mg  Mg33  1  0.33076614  0.25082648  0.75006792  1
  Mg  Mg34  1  0.83633419  -0.00346017  0.25255766  1
  Mg  Mg35  1  0.33253592  0.75065912  0.25183509  1
  Mg  Mg36  1  0.49821292  -0.00033835  0.74866057  1
  Mg  Mg37  1  0.83285749  0.50049026  0.75333409  1
  Mg  Mg38  1  0.50028544  0.50293675  0.25107103  1
  Mg  Mg39  1  0.33509777  0.24837126  0.24724647  1
  Mg  Mg40  1  0.83790464  0.50036216  0.25147895  1
  Mg  Mg41  1  0.66893345  0.24877254  0.24877698  1
  Mg  Mg42  1  0.66578615  0.25226327  0.74537657  1
  Mg  Mg43  1  0.66513993  0.74963869  0.75057668  1
  Mg  Mg44  1  0.00331648  0.24955163  0.24545366  1
  Mg  Mg45  1  -0.00163941  0.74939708  0.25292367  1
  Mg  Mg46  1  0.16564409  0.00180829  0.75047088  1
  Mg  Mg47  1  0.49519678  0.50028677  0.74624540  1
  Mg  Mg48  1  0.00061807  0.75096956  0.75448077  1
  Mg  Mg49  1  0.16632266  0.49985053  0.24620028  1
  Mg  Mg50  1  0.83252526  0.00204374  0.75028879  1
  Mg  Mg51  1  0.33295911  0.74762040  0.75025057  1
  Mg  Mg52  1  -0.00056026  0.25084106  0.74957496  1
  Mg  Mg53  1  0.50238804  0.83499677  0.25406882  1
  Mg  Mg54  1  0.49660509  0.33606395  0.74655368  1
  Mg  Mg55  1  0.50159575  0.33327536  0.24803184  1
  Mg  Mg56  1  0.16704852  0.16391053  0.24703100  1
  Mg  Mg57  1  0.16577460  0.33696149  0.74817283  1
  Mg  Mg58  1  0.00022741  0.91579430  0.75267447  1
  Mg  Mg59  1  0.66426108  0.91647171  0.75114938  1
  Mg  Mg60  1  0.33286475  0.91560232  0.74886664  1
  Mg  Mg61  1  0.33369646  0.41566994  0.24807933  1
  Mg  Mg62  1  0.16568473  0.16780349  0.75004845  1
  Mg  Mg63  1  0.49809644  0.16608472  0.74721686  1
  Mg  Mg64  1  0.66593893  0.08613230  0.74816269  1
  Mg  Mg65  1  0.66693614  0.08185095  0.25022035  1
  Mg  Mg66  1  0.00422135  0.41645203  0.24678311  1
  Mg  Mg67  1  0.50145088  0.66558873  0.25081123  1
  Mg  Mg68  1  0.33107483  0.08479285  0.74892736  1
  Mg  Mg69  1  0.16196629  0.83410347  0.25160955  1
  Mg  Mg70  1  0.16987196  0.66287628  0.75231527  1
  Mg  Mg71  1  0.33279299  0.58580542  0.25027171  1
  Mg  Mg72  1  0.83415537  0.83464502  0.75386737  1
  Mg  Mg73  1  0.83444861  0.33696543  0.74988990  1
  Mg  Mg74  1  0.83741212  0.33374481  0.24759103  1
  Mg  Mg75  1  0.83251582  0.16788624  0.74732503  1
  Mg  Mg76  1  0.66595688  0.58441323  0.25230733  1
  Mg  Mg77  1  0.32830535  0.42108728  0.74982353  1
  Mg  Mg78  1  0.33655536  0.08050933  0.24878414  1
  Mg  Mg79  1  0.83560613  0.66606358  0.75525777  1
  Mg  Mg80  1  0.66481667  0.41710259  0.74730077  1
  Mg  Mg81  1  0.83579820  0.16502612  0.24865161  1
  Mg  Mg82  1  0.00508733  0.58329992  0.75435443  1
  Mg  Mg83  1  0.83542065  0.66510561  0.25452774  1
  Mg  Mg84  1  0.00053986  0.07966734  0.24758371  1
  Mg  Mg85  1  0.66444036  0.58460852  0.75089727  1
  Mg  Mg86  1  0.33520654  0.91757849  0.25108671  1
  Mg  Mg87  1  0.50192008  0.16227940  0.24894576  1
  Mg  Mg88  1  0.16762133  0.83366868  0.75210750  1
  Mg  Mg89  1  0.16246839  0.66507797  0.25074170  1
  Mg  Mg90  1  0.66849449  0.41534694  0.24894634  1
  Mg  Mg91  1  -0.00050656  0.08656729  0.74807574  1
  Mg  Mg92  1  0.66648173  0.91663742  0.25619802  1
  Mg  Mg93  1  0.83474511  0.83345552  0.25261388  1
  Mg  Mg94  1  0.49518196  0.66554616  0.74826933  1
  Mg  Mg95  1  0.16689119  0.33460476  0.24615808  1
  Fe  Fe96  1  0.51873559  0.41841151  0.60773645  1
  Fe  Fe97  1  0.02450558  0.33175303  0.10582136  1
  Fe  Fe98  1  0.13913787  0.58152759  0.38790793  1
  Fe  Fe99  1  0.14503077  0.41960505  0.88785180  1
  Fe  Fe100  1  0.69370139  0.16639357  0.60768761  1
  Fe  Fe101  1  0.52444301  0.58113862  0.10787218  1
  Fe  Fe102  1  0.20152014  0.41724166  0.10712114  1
  Fe  Fe103  1  0.30925901  0.16730318  0.88885356  1
  Fe  Fe104  1  0.02749765  0.17028368  0.60714873  1
  Fe  Fe105  1  0.02164756  0.83272013  0.11137481  1
  Fe  Fe106  1  0.80451760  0.41415043  0.89015364  1
  Fe  Fe107  1  0.64596361  0.66440568  0.39730262  1
  Fe  Fe108  1  0.97709093  0.83893220  0.89243834  1
  Fe  Fe109  1  0.97126697  0.83182767  0.39170072  1
  Fe  Fe110  1  0.46950796  0.58443148  0.39166808  1
  Fe  Fe111  1  0.97548587  0.16134606  0.88881226  1
  Fe  Fe112  1  0.64296754  0.83890879  0.39724667  1
  Si  Si113  1  0.85565049  0.08123693  0.11448809  1
  Si  Si114  1  0.14697135  0.41258918  0.38714461  1
  Si  Si115  1  0.02573409  0.83087409  0.61654548  1
  Si  Si116  1  0.63860538  0.83169191  0.88499452  1
  Si  Si117  1  0.86175259  0.07613108  0.60805733  1
  Si  Si118  1  0.47453508  0.91633363  0.88377247  1
  Si  Si119  1  0.35535158  0.67145133  0.61332491  1
  Si  Si120  1  0.85843818  0.58820311  0.61752572  1
  Si  Si121  1  0.69393433  0.33918343  0.60683794  1
  Si  Si122  1  0.31219541  0.33413937  0.88714932  1
  Si  Si123  1  0.02050924  0.66391195  0.11556318  1
  Si  Si124  1  0.35605481  0.67428701  0.11278151  1
  Si  Si125  1  0.36297355  0.83936612  0.11697108  1
  Si  Si126  1  0.14294679  0.08013020  0.88781312  1
  Si  Si127  1  0.47469199  0.58434443  0.88257139  1
  Si  Si128  1  0.47628551  0.41084746  0.38523135  1
  Si  Si129  1  0.46875598  0.42043160  0.88273838  1
  Si  Si130  1  0.52153239  0.91736650  0.61456386  1
  Si  Si131  1  0.02794188  0.66564378  0.61797454  1
  Si  Si132  1  0.47610731  0.08368128  0.38429575  1
  Si  Si133  1  0.69359350  0.83459428  0.11753743  1
  Si  Si134  1  0.80646722  0.57322589  0.38916533  1
  Si  Si135  1  0.64460328  0.33053886  0.38374970  1
  Si  Si136  1  0.35783968  0.16286883  0.61314300  1
  Si  Si137  1  0.30604289  0.83815084  0.38543996  1
  Si  Si138  1  0.79962278  0.08540333  0.88736411  1
  Si  Si139  1  0.96897175  0.66065924  0.39117206  1
  Si  Si140  1  0.69639899  0.33254067  0.11377099  1
  Si  Si141  1  0.19514348  0.91675629  0.11324745  1
  Si  Si142  1  0.97901841  0.16693070  0.38234514  1
  Si  Si143  1  0.31001252  0.16379808  0.38378602  1
  Si  Si144  1  0.31082923  0.67000899  0.88566336  1
  Si  Si145  1  0.14186627  0.91822868  0.38794375  1
  Si  Si146  1  0.80687101  0.92546212  0.39216334  1
  Si  Si147  1  0.81346485  0.40974754  0.38450124  1
  Si  Si148  1  0.85906652  0.42369148  0.61513548  1
  Si  Si149  1  0.02176746  0.15976635  0.11145482  1
  Si  Si150  1  0.52935549  0.41042112  0.11238155  1
  Si  Si151  1  0.64346921  0.16533796  0.38434066  1
  Si  Si152  1  0.02367863  0.33882065  0.61056362  1
  Si  Si153  1  0.52209801  0.08159707  0.61005544  1
  Si  Si154  1  0.69162610  0.66855077  0.61763270  1
  Si  Si155  1  0.85180421  0.91905980  0.11349689  1
  Si  Si156  1  0.97427477  0.32973818  0.88716258  1
  Si  Si157  1  0.18873988  0.91663412  0.61372081  1
  Si  Si158  1  0.30142930  0.67328426  0.38856780  1
  Si  Si159  1  0.15068006  0.91884540  0.88738905  1
  Si  Si160  1  0.85743966  0.42000733  0.11231288  1
  Si  Si161  1  0.63236861  0.16728367  0.88312373  1
  Si  Si162  1  0.19248015  0.08217402  0.11400044  1
  Si  Si163  1  0.80888548  0.58625853  0.88963129  1
  Si  Si164  1  0.35218981  0.83403721  0.61319401  1
  Si  Si165  1  0.35100067  0.32818169  0.61032178  1
  Si  Si166  1  0.69314439  0.16751264  0.11320165  1
  Si  Si167  1  0.47370703  0.07772346  0.88598226  1
  Si  Si168  1  0.19186830  0.59016828  0.11236597  1
  Si  Si169  1  0.19250225  0.41838277  0.61314862  1
  Si  Si170  1  0.47023236  0.91818624  0.38919231  1
  Si  Si171  1  0.19438497  0.58448499  0.61692898  1
  Si  Si172  1  0.97936615  0.33044001  0.38336317  1
  Si  Si173  1  0.63131016  0.33303096  0.88549229  1
  Si  Si174  1  0.14681011  0.58883470  0.88989036  1
  Si  Si175  1  0.52993929  0.91736806  0.11712506  1
  Si  Si176  1  0.69854924  0.66624492  0.11484828  1
  Si  Si177  1  0.31242238  0.83311121  0.88628424  1
  Si  Si178  1  0.85848288  0.58299006  0.11858094  1
  Si  Si179  1  0.68838385  0.83389408  0.61623429  1
  Si  Si180  1  0.14365303  0.08256746  0.38392804  1
  Si  Si181  1  0.52078837  0.58963469  0.61282303  1
  Si  Si182  1  0.36053817  0.16221265  0.11340809  1
  Si  Si183  1  0.19414525  0.08136837  0.61065300  1
  Si  Si184  1  0.64034532  0.66734291  0.88634871  1
  Si  Si185  1  0.81257759  0.08873800  0.38425573  1
  Si  Si186  1  0.30981780  0.32709092  0.38356685  1
  Si  Si187  1  0.79998434  0.91893749  0.88873903  1
  Si  Si188  1  0.85646406  0.91125005  0.61555870  1
  Si  Si189  1  0.97827902  0.66716650  0.88995728  1
  Si  Si190  1  0.52950212  0.08278260  0.11407750  1
  Si  Si191  1  0.36939834  0.32740789  0.11199256  1
  O  O192  1  0.27329425  0.11784543  0.08541859  1
  O  O193  1  0.28300298  0.10492124  0.58561366  1
  O  O194  1  0.26377075  0.63832245  0.08322927  1
  O  O195  1  0.27021443  0.62425395  0.58394177  1
  O  O196  1  0.60682892  0.12205182  0.08247898  1
  O  O197  1  0.59684175  0.11050633  0.57432525  1
  O  O198  1  0.61784866  0.62187751  0.07540307  1
  O  O199  1  0.60547023  0.62430282  0.58857603  1
  O  O200  1  0.94141642  0.10388376  0.08669768  1
  O  O201  1  0.94289021  0.10225113  0.57705234  1
  O  O202  1  0.94368845  0.60523027  0.08966484  1
  O  O203  1  0.93714263  0.62650815  0.58833508  1
  O  O204  1  0.11526276  0.35794423  0.06821086  1
  O  O205  1  0.10120269  0.38135199  0.58161216  1
  O  O206  1  0.11730071  0.86872097  0.07792834  1
  O  O207  1  0.10138747  0.87168193  0.58576962  1
  O  O208  1  0.46044166  0.34559841  0.08899291  1
  O  O209  1  0.42661866  0.35681767  0.57458074  1
  O  O210  1  0.44159370  0.87556959  0.08618773  1
  O  O211  1  0.43539666  0.86977008  0.58789182  1
  O  O212  1  0.77626139  0.36567314  0.08508563  1
  O  O213  1  0.77728329  0.37583028  0.58116751  1
  O  O214  1  0.76670601  0.87173500  0.08136841  1
  O  O215  1  0.76879784  0.86733880  0.58696945  1
  O  O216  1  0.29977094  0.38252399  0.07699738  1
  O  O217  1  0.26411805  0.37378722  0.57996895  1
  O  O218  1  0.28147508  0.88951990  0.08667313  1
  O  O219  1  0.26745376  0.88172580  0.58216944  1
  O  O220  1  0.61445770  0.38143826  0.08464289  1
  O  O221  1  0.61322332  0.38721403  0.57335521  1
  O  O222  1  0.60467292  0.87698731  0.08504506  1
  O  O223  1  0.60203635  0.87996037  0.58673038  1
  O  O224  1  0.93341140  0.39557519  0.07623747  1
  O  O225  1  0.94084257  0.39188228  0.58642345  1
  O  O226  1  0.92903761  0.89366052  0.07871113  1
  O  O227  1  0.93512357  0.87042741  0.58837625  1
  O  O228  1  0.10558700  0.12609605  0.08487780  1
  O  O229  1  0.12235430  0.13427009  0.57340248  1
  O  O230  1  0.10300935  0.63328843  0.08617741  1
  O  O231  1  0.10336127  0.62569426  0.58658867  1
  O  O232  1  0.43925449  0.12349377  0.08431853  1
  O  O233  1  0.43887838  0.13263896  0.58240965  1
  O  O234  1  0.42749104  0.63768957  0.07686544  1
  O  O235  1  0.43894434  0.64227643  0.58518680  1
  O  O236  1  0.77523249  0.13507811  0.08504883  1
  O  O237  1  0.77961067  0.12079727  0.57216368  1
  O  O238  1  0.78339198  0.63918906  0.08522508  1
  O  O239  1  0.77179793  0.63408040  0.58816036  1
  O  O240  1  0.06201335  0.11727023  0.41181169  1
  O  O241  1  0.05642865  0.08871418  0.91724909  1
  O  O242  1  0.04263171  0.60444976  0.42306766  1
  O  O243  1  0.06224114  0.61836876  0.91873524  1
  O  O244  1  0.39619182  0.11904089  0.41461652  1
  O  O245  1  0.39528920  0.09921386  0.92086739  1
  O  O246  1  0.37431295  0.61908771  0.42410401  1
  O  O247  1  0.39517413  0.61998191  0.91280171  1
  O  O248  1  0.73037683  0.12106287  0.41325558  1
  O  O249  1  0.71554744  0.11968635  0.91301661  1
  O  O250  1  0.72763401  0.59052629  0.42482578  1
  O  O251  1  0.72808494  0.62572987  0.91698263  1
  O  O252  1  0.22843412  0.35778651  0.41298814  1
  O  O253  1  0.23187622  0.35380511  0.92105331  1
  O  O254  1  0.22620329  0.86898677  0.41744768  1
  O  O255  1  0.23107083  0.86439675  0.91525634  1
  O  O256  1  0.56267986  0.36178578  0.41156505  1
  O  O257  1  0.54600888  0.36450184  0.91132022  1
  O  O258  1  0.54370579  0.86911044  0.42973436  1
  O  O259  1  0.55425737  0.86265367  0.91094542  1
  O  O260  1  0.89619024  0.35881476  0.41302199  1
  O  O261  1  0.88933124  0.34790525  0.91868332  1
  O  O262  1  0.88332181  0.87498485  0.42823137  1
  O  O263  1  0.88224740  0.87580829  0.92387233  1
  O  O264  1  0.06377610  0.37661837  0.41430638  1
  O  O265  1  0.04208464  0.39346706  0.91213152  1
  O  O266  1  0.06739464  0.89001236  0.42438180  1
  O  O267  1  0.07214950  0.89701317  0.92226026  1
  O  O268  1  0.39780662  0.36907199  0.41262692  1
  O  O269  1  0.38638929  0.39586604  0.91318933  1
  O  O270  1  0.38188348  0.89451123  0.41544541  1
  O  O271  1  0.39377340  0.88544888  0.91507974  1
  O  O272  1  0.73175807  0.37489783  0.41294303  1
  O  O273  1  0.70907301  0.37935006  0.92363734  1
  O  O274  1  0.72259068  0.91327566  0.42354762  1
  O  O275  1  0.71786676  0.88334843  0.91689670  1
  O  O276  1  0.22927627  0.12970546  0.41275167  1
  O  O277  1  0.21213256  0.13901640  0.92135400  1
  O  O278  1  0.21624353  0.65605151  0.41801572  1
  O  O279  1  0.22882254  0.64359371  0.91724192  1
  O  O280  1  0.56334429  0.12977043  0.41307294  1
  O  O281  1  0.55462782  0.13057435  0.91380765  1
  O  O282  1  0.55655790  0.63723378  0.43842288  1
  O  O283  1  0.56047224  0.63092658  0.91475108  1
  O  O284  1  0.89513442  0.14009590  0.41131376  1
  O  O285  1  0.87884657  0.13110738  0.92372353  1
  O  O286  1  0.88377798  0.62820348  0.41768368  1
  O  O287  1  0.89362127  0.63532804  0.91580660  1
  O  O288  1  0.18224172  0.00052423  0.08464093  1
  O  O289  1  0.17519694  -0.00218987  0.58290411  1
  O  O290  1  0.18540247  0.51275349  0.07688595  1
  O  O291  1  0.18816694  0.50220271  0.58564401  1
  O  O292  1  0.52266589  0.00009773  0.08524404  1
  O  O293  1  0.50045074  -0.00202568  0.58255206  1
  O  O294  1  0.50146947  0.48537153  0.07608590  1
  O  O295  1  0.49969465  0.51350993  0.57642124  1
  O  O296  1  0.82530964  0.00219419  0.08557870  1
  O  O297  1  0.84564530  -0.00917475  0.58280438  1
  O  O298  1  0.82726869  0.50244764  0.08941639  1
  O  O299  1  0.84644522  0.50704314  0.58607178  1
  O  O300  1  -0.00580319  0.23563618  0.07781890  1
  O  O301  1  0.00509890  0.26371810  0.56952391  1
  O  O302  1  -0.00578876  0.73935072  0.07770820  1
  O  O303  1  0.02054158  0.74855176  0.58758135  1
  O  O304  1  0.34894538  0.24388386  0.08459287  1
  O  O305  1  0.33075703  0.24334386  0.58421438  1
  O  O306  1  0.34739979  0.75882909  0.08563109  1
  O  O307  1  0.33814151  0.75330465  0.58128119  1
  O  O308  1  0.67883153  0.24992912  0.08456347  1
  O  O309  1  0.68273241  0.25969220  0.57254250  1
  O  O310  1  0.68287025  0.75152445  0.09021755  1
  O  O311  1  0.67562141  0.75114196  0.58956763  1
  O  O312  1  0.16333521  0.00249879  0.41547004  1
  O  O313  1  0.18500820  -0.00039400  0.91052926  1
  O  O314  1  0.17029575  0.48799547  0.42387278  1
  O  O315  1  0.17260634  0.51244394  0.92390473  1
  O  O316  1  0.48804146  0.00302172  0.41550844  1
  O  O317  1  0.50308546  -0.00400827  0.91443897  1
  O  O318  1  0.48915797  0.48708586  0.42103839  1
  O  O319  1  0.49274607  0.50212554  0.91204412  1
  O  O320  1  0.83699002  0.00998009  0.41496239  1
  O  O321  1  0.80353232  0.00215179  0.91620250  1
  O  O322  1  0.83702934  0.48974326  0.41402764  1
  O  O323  1  0.82238681  0.50884045  0.92462478  1
  O  O324  1  0.32420713  0.24503745  0.41368803  1
  O  O325  1  0.35234945  0.25772244  0.91737975  1
  O  O326  1  0.33042926  0.75730312  0.41359491  1
  O  O327  1  0.33482884  0.75210749  0.91590171  1
  O  O328  1  0.65785356  0.24778680  0.41271221  1
  O  O329  1  0.64124088  0.24879257  0.91359201  1
  O  O330  1  0.68455172  0.75237605  0.43383463  1
  O  O331  1  0.65162626  0.75005382  0.91589056  1
  O  O332  1  0.99959012  0.24814595  0.41169930  1
  O  O333  1  1.01159918  0.25255544  0.91906445  1
  O  O334  1  0.98795421  0.73851761  0.42802697  1
  O  O335  1  0.99730760  0.74529670  0.92392064  1
  O  O336  1  0.21171660  0.08293672  0.19449466  1
  O  O337  1  0.20836860  0.08055935  0.69135511  1
  O  O338  1  0.21312631  0.58636510  0.19312090  1
  O  O339  1  0.21157066  0.58859342  0.69529847  1
  O  O340  1  0.54899542  0.08804686  0.19316598  1
  O  O341  1  0.54051104  0.08285250  0.69127891  1
  O  O342  1  0.54599563  0.58023757  0.19856638  1
  O  O343  1  0.54070768  0.58528788  0.69361057  1
  O  O344  1  0.87460603  0.08375792  0.19479891  1
  O  O345  1  0.87378123  0.07920901  0.68950085  1
  O  O346  1  0.87416440  0.58220896  0.19829805  1
  O  O347  1  0.87539528  0.58789023  0.69763251  1
  O  O348  1  0.04634056  0.33067697  0.19873996  1
  O  O349  1  0.04580239  0.32732247  0.68931427  1
  O  O350  1  0.04569980  0.83112915  0.20111624  1
  O  O351  1  0.04535374  0.83375366  0.69659485  1
  O  O352  1  0.38105580  0.32838815  0.19330981  1
  O  O353  1  0.37304123  0.33066265  0.69099505  1
  O  O354  1  0.37765279  0.83720243  0.19704426  1
  O  O355  1  0.36325425  0.83347662  0.69243677  1
  O  O356  1  0.71263801  0.33050180  0.19440484  1
  O  O357  1  0.70649517  0.33508720  0.68817700  1
  O  O358  1  0.71440344  0.84263223  0.19627861  1
  O  O359  1  0.70829881  0.83510307  0.69674882  1
  O  O360  1  0.21523501  0.41443400  0.19958434  1
  O  O361  1  0.21377149  0.41300624  0.69179479  1
  O  O362  1  0.21087519  0.91726842  0.19414422  1
  O  O363  1  0.20783123  0.91633485  0.69415359  1
  O  O364  1  0.54706212  0.41291655  0.19357502  1
  O  O365  1  0.54317283  0.41689677  0.69925914  1
  O  O366  1  0.54608741  0.91791797  0.19615904  1
  O  O367  1  0.54512396  0.92298256  0.69379285  1
  O  O368  1  0.87662877  0.41470884  0.19324480  1
  O  O369  1  0.86863299  0.42178256  0.69408613  1
  O  O370  1  0.86898814  0.91866142  0.19338839  1
  O  O371  1  0.87372449  0.91512406  0.69587744  1
  O  O372  1  0.04324440  0.16254761  0.19273981  1
  O  O373  1  0.04690512  0.16599686  0.69844114  1
  O  O374  1  0.04192780  0.67004733  0.19531257  1
  O  O375  1  0.04427837  0.67025244  0.69791317  1
  O  O376  1  0.37908290  0.16320692  0.19392287  1
  O  O377  1  0.37807014  0.16402120  0.69340862  1
  O  O378  1  0.37325912  0.67043156  0.19343185  1
  O  O379  1  0.37595720  0.67315935  0.69266336  1
  O  O380  1  0.71066974  0.16647924  0.19361914  1
  O  O381  1  0.70947399  0.16631189  0.69943378  1
  O  O382  1  0.71553548  0.65795547  0.19421118  1
  O  O383  1  0.71170313  0.66753354  0.69817476  1
  O  O384  1  0.12520133  0.08341326  0.30366696  1
  O  O385  1  0.12555796  0.08198969  0.80590333  1
  O  O386  1  0.12561341  0.57969121  0.29769264  1
  O  O387  1  0.12400216  0.59158057  0.81005592  1
  O  O388  1  0.45635917  0.08665492  0.30472084  1
  O  O389  1  0.45620504  0.08135676  0.80478325  1
  O  O390  1  0.45122931  0.58320052  0.29945224  1
  O  O391  1  0.46052003  0.58376827  0.80314328  1
  O  O392  1  0.79123695  0.08767905  0.30390986  1
  O  O393  1  0.78713918  0.08307122  0.80632150  1
  O  O394  1  0.78914501  0.57668702  0.30824204  1
  O  O395  1  0.78732973  0.58633082  0.80842741  1
  O  O396  1  0.29300682  0.32775479  0.30321273  1
  O  O397  1  0.29386464  0.33311325  0.80556063  1
  O  O398  1  0.28801614  0.83722385  0.30490631  1
  O  O399  1  0.29234804  0.83435379  0.80572647  1
  O  O400  1  0.62666589  0.33038756  0.30313340  1
  O  O401  1  0.62006492  0.33193925  0.80468954  1
  O  O402  1  0.61692548  0.84257587  0.30661486  1
  O  O403  1  0.63022606  0.83217911  0.80580144  1
  O  O404  1  0.95820826  0.32998251  0.30323918  1
  O  O405  1  0.95102337  0.32510763  0.80623267  1
  O  O406  1  0.95325444  0.83238655  0.30178300  1
  O  O407  1  0.95526149  0.83519557  0.80059372  1
  O  O408  1  0.12691993  0.41325780  0.30681557  1
  O  O409  1  0.13639434  0.41882761  0.80034208  1
  O  O410  1  0.12907053  0.91900923  0.30810210  1
  O  O411  1  0.12724786  0.91592666  0.80603389  1
  O  O412  1  0.45817883  0.41192116  0.30405342  1
  O  O413  1  0.45324766  0.41770399  0.80254361  1
  O  O414  1  0.45308896  0.91574869  0.30903824  1
  O  O415  1  0.45145863  0.92196932  0.80456385  1
  O  O416  1  0.79230123  0.41038384  0.30410998  1
  O  O417  1  0.78347548  0.41755549  0.79826008  1
  O  O418  1  0.79140228  0.92078884  0.31070341  1
  O  O419  1  0.78673152  0.91781618  0.80751913  1
  O  O420  1  0.29237038  0.16386962  0.30331331  1
  O  O421  1  0.28832499  0.16548824  0.79679273  1
  O  O422  1  0.28866162  0.66991220  0.30704449  1
  O  O423  1  0.28883387  0.67210620  0.80638823  1
  O  O424  1  0.62555929  0.16634874  0.30398559  1
  O  O425  1  0.61693570  0.16659459  0.80279488  1
  O  O426  1  0.61728498  0.65742701  0.30683216  1
  O  O427  1  0.62287579  0.66728765  0.80599993  1
  O  O428  1  0.95987235  0.16644432  0.30193679  1
  O  O429  1  0.95067978  0.16402115  0.79679777  1
  O  O430  1  0.95476613  0.66639349  0.31082275  1
  O  O431  1  0.95850417  0.66927765  0.80866605  1
  F  F432  1  0.04855392  0.00409542  0.19892877  1
  F  F433  1  0.04514297  -0.00273405  0.70295352  1
  F  F434  1  0.04936461  0.49083108  0.19630269  1
  F  F435  1  0.04345165  0.51622181  0.69485702  1
  F  F436  1  0.37562774  -0.00023890  0.20070706  1
  F  F437  1  0.37688042  -0.00025541  0.69962817  1
  F  F438  1  0.37964703  0.49679616  0.20063033  1
  F  F439  1  0.37929134  0.49541256  0.69579050  1
  F  F440  1  0.71377545  0.00196569  0.20386135  1
  F  F441  1  0.71096991  -0.00062440  0.70288892  1
  F  F442  1  0.71455122  0.49589115  0.20411684  1
  F  F443  1  0.70970243  0.50605698  0.70114337  1
  F  F444  1  0.21474024  0.24577386  0.20032602  1
  F  F445  1  0.21163587  0.25104598  0.69941510  1
  F  F446  1  0.21199466  0.75176977  0.20430020  1
  F  F447  1  0.20985807  0.75178811  0.70285766  1
  F  F448  1  0.54805499  0.24751486  0.20164714  1
  F  F449  1  0.54294988  0.24972619  0.69885566  1
  F  F450  1  0.53011752  0.75171430  0.19862869  1
  F  F451  1  0.55037213  0.74052434  0.69820347  1
  F  F452  1  0.87869260  0.24797618  0.20021258  1
  F  F453  1  0.87468658  0.25237548  0.69755879  1
  F  F454  1  0.87632811  0.74733275  0.20169285  1
  F  F455  1  0.87718305  0.74944824  0.70388837  1
  F  F456  1  0.28700903  0.00171131  0.29784965  1
  F  F457  1  0.28771838  -0.00089047  0.79492583  1
  F  F458  1  0.29075306  0.49947604  0.29694573  1
  F  F459  1  0.29500023  0.50122413  0.79973264  1
  F  F460  1  0.62492246  0.00536923  0.30021623  1
  F  F461  1  0.61951676  0.00190012  0.79745093  1
  F  F462  1  0.62211228  0.49191990  0.29913032  1
  F  F463  1  0.61935834  0.50260832  0.79748789  1
  F  F464  1  0.95347295  0.00730829  0.29994058  1
  F  F465  1  0.95257364  -0.00020761  0.79581760  1
  F  F466  1  0.95437146  0.48901929  0.29926230  1
  F  F467  1  0.94767095  0.51333132  0.80361962  1
  F  F468  1  0.12504560  0.24515045  0.29684471  1
  F  F469  1  0.12315521  0.25225754  0.79667660  1
  F  F470  1  0.12270735  0.74910649  0.30104705  1
  F  F471  1  0.12288335  0.75239252  0.79982954  1
  F  F472  1  0.45737526  0.24740744  0.29625598  1
  F  F473  1  0.45468127  0.24971504  0.79404543  1
  F  F474  1  0.45150667  0.75110619  0.29941900  1
  F  F475  1  0.45055275  0.74175905  0.80193041  1
  F  F476  1  0.79032701  0.24870732  0.29647511  1
  F  F477  1  0.78393745  0.25229979  0.79512746  1
  F  F478  1  0.79978875  0.74967767  0.30273793  1
  F  F479  1  0.78717116  0.75106205  0.79968021  1
