# generated using pymatgen
data_K24Na3Li5Mg64Fe17Si79(O5F)48
_symmetry_space_group_name_H-M   'P 1'
_cell_length_a   16.11214750
_cell_length_b   18.60411079
_cell_length_c   20.56505971
_cell_angle_alpha   90.01185525
_cell_angle_beta   99.99085762
_cell_angle_gamma   89.97545139
_symmetry_Int_Tables_number   1
_chemical_formula_structural   K24Na3Li5Mg64Fe17Si79(O5F)48
_chemical_formula_sum   'K24 Na3 Li5 Mg64 Fe17 Si79 O240 F48'
_cell_volume   6070.94012430
_cell_formula_units_Z   1
loop_
 _symmetry_equiv_pos_site_id
 _symmetry_equiv_pos_as_xyz
  1  'x, y, z'
loop_
 _atom_site_type_symbol
 _atom_site_label
 _atom_site_symmetry_multiplicity
 _atom_site_fract_x
 _atom_site_fract_y
 _atom_site_fract_z
 _atom_site_occupancy
  K  K0  1  0.00555472  0.01281549  0.01006739  1
  K  K1  1  -0.00227568  0.00677781  0.48580974  1
  K  K2  1  0.02106559  0.49603284  0.00588966  1
  K  K3  1  0.00547044  0.49148093  0.50121396  1
  K  K4  1  0.32949460  0.00165087  0.00274776  1
  K  K5  1  0.34328445  0.00791712  0.49873302  1
  K  K6  1  0.33091438  0.48979619  -0.00051189  1
  K  K7  1  0.34230123  0.49258311  0.49905575  1
  K  K8  1  0.66581511  0.01371917  0.00703453  1
  K  K9  1  0.65778307  0.00408114  0.49471381  1
  K  K10  1  0.65892208  0.50144467  0.00225814  1
  K  K11  1  0.64589047  0.48672317  0.49468530  1
  K  K12  1  0.18454679  0.25063472  0.00455329  1
  K  K13  1  0.16101196  0.24683344  0.49311458  1
  K  K14  1  0.18138274  0.75173526  0.00413971  1
  K  K15  1  0.17554172  0.75620810  0.49729499  1
  K  K16  1  0.49698585  0.24271118  0.00223834  1
  K  K17  1  0.49418598  0.24923776  0.49466050  1
  K  K18  1  0.49144556  0.75195080  -0.00352081  1
  K  K19  1  0.49452789  0.75556883  0.50133341  1
  K  K20  1  0.83227922  0.24208887  0.00806177  1
  K  K21  1  0.83838434  0.26028669  0.49476728  1
  K  K22  1  0.83464609  0.74822614  0.00468536  1
  K  K23  1  0.82413864  0.75778280  0.49301059  1
  Na  Na24  1  -0.00126813  0.24861573  0.24813623  1
  Na  Na25  1  -0.00443750  0.08077781  0.25509982  1
  Na  Na26  1  0.33437206  0.58033473  0.75693922  1
  Li  Li27  1  0.49725940  0.00530162  0.74548522  1
  Li  Li28  1  0.83021240  0.00507158  0.25907045  1
  Li  Li29  1  0.49509292  0.16085979  0.75064143  1
  Li  Li30  1  0.33502225  0.58104494  0.24624732  1
  Li  Li31  1  0.67442010  0.08146441  0.25533010  1
  Mg  Mg32  1  0.33497806  0.24486142  0.75340337  1
  Mg  Mg33  1  0.33256698  0.75064646  0.75400633  1
  Mg  Mg34  1  0.50347733  0.00162717  0.25436358  1
  Mg  Mg35  1  0.83517721  0.49957575  0.24897988  1
  Mg  Mg36  1  0.17302606  0.50078291  0.24377548  1
  Mg  Mg37  1  0.82913131  0.00019785  0.74919993  1
  Mg  Mg38  1  -0.00230768  0.74981430  0.74982336  1
  Mg  Mg39  1  0.67052345  0.75263031  0.25136275  1
  Mg  Mg40  1  0.00272165  0.74935326  0.24679241  1
  Mg  Mg41  1  0.66603717  0.24791570  0.25458934  1
  Mg  Mg42  1  0.66349437  0.75119058  0.74859416  1
  Mg  Mg43  1  0.16593138  0.49752208  0.75046505  1
  Mg  Mg44  1  0.83142002  0.49942366  0.74767259  1
  Mg  Mg45  1  0.16644410  -0.00053905  0.75335655  1
  Mg  Mg46  1  0.16538346  0.00223308  0.24914128  1
  Mg  Mg47  1  0.49826963  0.49912666  0.24951811  1
  Mg  Mg48  1  0.66306082  0.24873850  0.74743157  1
  Mg  Mg49  1  0.33481693  0.24955566  0.24976185  1
  Mg  Mg50  1  0.49802502  0.49735800  0.74969795  1
  Mg  Mg51  1  0.33483544  0.74844300  0.24901661  1
  Mg  Mg52  1  -0.00047060  0.25001161  0.74841198  1
  Mg  Mg53  1  0.65721308  0.08508075  0.74882878  1
  Mg  Mg54  1  0.66351588  0.41476027  0.74624402  1
  Mg  Mg55  1  0.67166017  0.92159971  0.25359301  1
  Mg  Mg56  1  0.16617868  0.33333780  0.75163905  1
  Mg  Mg57  1  0.83666163  0.83800473  0.25183492  1
  Mg  Mg58  1  0.66721070  0.58471771  0.24781385  1
  Mg  Mg59  1  0.33393507  0.91666200  0.24997179  1
  Mg  Mg60  1  0.82897656  0.83463402  0.74798183  1
  Mg  Mg61  1  0.83251968  0.33406578  0.74701607  1
  Mg  Mg62  1  -0.00184051  0.08363467  0.74987311  1
  Mg  Mg63  1  0.49887263  0.33052170  0.74707098  1
  Mg  Mg64  1  0.82967833  0.16577576  0.74764397  1
  Mg  Mg65  1  0.16918200  0.83377045  0.75437361  1
  Mg  Mg66  1  0.33514248  0.41816440  0.24721165  1
  Mg  Mg67  1  0.16866643  0.66566876  0.75452907  1
  Mg  Mg68  1  0.16811952  0.16439671  0.75147016  1
  Mg  Mg69  1  -0.00015472  0.58345692  0.75083402  1
  Mg  Mg70  1  0.66171790  0.58384309  0.74843853  1
  Mg  Mg71  1  0.49841395  0.83775087  0.75051305  1
  Mg  Mg72  1  0.33761120  0.08210941  0.75157015  1
  Mg  Mg73  1  0.00111401  0.41411246  0.74890120  1
  Mg  Mg74  1  0.66583476  0.41535105  0.25121849  1
  Mg  Mg75  1  0.82981865  0.16357091  0.25415203  1
  Mg  Mg76  1  0.83677408  0.66664338  0.24706359  1
  Mg  Mg77  1  0.16531863  0.83470040  0.24613995  1
  Mg  Mg78  1  0.00363156  0.58470187  0.24474581  1
  Mg  Mg79  1  0.50438251  0.16375266  0.25448730  1
  Mg  Mg80  1  -0.00085597  0.91527466  0.75188741  1
  Mg  Mg81  1  0.16907472  0.66543073  0.24390268  1
  Mg  Mg82  1  0.33863247  0.91652171  0.75525270  1
  Mg  Mg83  1  0.65969313  0.91923576  0.74821341  1
  Mg  Mg84  1  0.16773145  0.33336250  0.24674221  1
  Mg  Mg85  1  0.33367654  0.08383634  0.25136136  1
  Mg  Mg86  1  0.33369218  0.41271025  0.75080982  1
  Mg  Mg87  1  -0.00188774  0.91752450  0.25131306  1
  Mg  Mg88  1  0.50246543  0.33558364  0.24918242  1
  Mg  Mg89  1  0.82988608  0.66593097  0.74841605  1
  Mg  Mg90  1  0.16462526  0.16497474  0.25076672  1
  Mg  Mg91  1  0.83398052  0.33193654  0.25179708  1
  Mg  Mg92  1  0.50024332  0.66541818  0.24977382  1
  Mg  Mg93  1  0.00214564  0.41609571  0.24698063  1
  Mg  Mg94  1  0.49700441  0.66566815  0.75048392  1
  Mg  Mg95  1  0.50345692  0.83465111  0.25291018  1
  Fe  Fe96  1  0.81363464  0.91595069  0.39248712  1
  Fe  Fe97  1  0.52129363  0.92283016  0.60969713  1
  Fe  Fe98  1  0.48495997  0.07725313  0.88958688  1
  Fe  Fe99  1  0.46833876  0.41464539  0.39025115  1
  Fe  Fe100  1  0.97132850  0.17310579  0.39511028  1
  Fe  Fe101  1  0.18466470  0.08637863  0.10999079  1
  Fe  Fe102  1  0.47829812  0.58133921  0.89158467  1
  Fe  Fe103  1  0.02785634  0.33121941  0.60838840  1
  Fe  Fe104  1  0.47683447  0.08338130  0.39257146  1
  Fe  Fe105  1  0.02382144  0.66644531  0.10554301  1
  Fe  Fe106  1  0.31211797  0.83706963  0.89352937  1
  Fe  Fe107  1  0.19460716  0.41434881  0.10726392  1
  Fe  Fe108  1  0.31141409  0.15841284  0.89214706  1
  Fe  Fe109  1  0.53167099  0.41913130  0.10822897  1
  Fe  Fe110  1  0.14041850  0.41581192  0.88990328  1
  Fe  Fe111  1  0.64720542  0.33159617  0.39250902  1
  Fe  Fe112  1  0.52291305  0.41451734  0.60930195  1
  Si  Si113  1  0.01948968  0.16950152  0.11105705  1
  Si  Si114  1  0.18839464  0.91508315  0.61620995  1
  Si  Si115  1  0.52715939  0.59033612  0.11164514  1
  Si  Si116  1  0.13834747  0.42051025  0.38147475  1
  Si  Si117  1  0.47954176  0.41132398  0.88630325  1
  Si  Si118  1  0.02187421  0.15963704  0.61260286  1
  Si  Si119  1  0.96494282  0.33256026  0.88579251  1
  Si  Si120  1  0.18992773  0.91421539  0.11274948  1
  Si  Si121  1  0.69254356  0.16718134  0.11902496  1
  Si  Si122  1  0.98224933  0.82824916  0.38713077  1
  Si  Si123  1  0.80336016  0.91794126  0.88360456  1
  Si  Si124  1  0.64681812  0.16542970  0.39172454  1
  Si  Si125  1  0.64577236  0.82986097  0.88481128  1
  Si  Si126  1  0.14153886  0.08113606  0.38870644  1
  Si  Si127  1  0.30393453  0.16644537  0.38892008  1
  Si  Si128  1  0.85479414  0.58592696  0.61377907  1
  Si  Si129  1  0.02388910  0.33489801  0.11057369  1
  Si  Si130  1  0.31403422  0.33035076  0.88806481  1
  Si  Si131  1  0.52976540  0.91667528  0.11758143  1
  Si  Si132  1  0.52040901  0.58788183  0.61079997  1
  Si  Si133  1  0.97475839  0.34435206  0.38629715  1
  Si  Si134  1  0.30420690  0.66750217  0.89112996  1
  Si  Si135  1  0.69222396  0.83415140  0.61175868  1
  Si  Si136  1  0.30830581  0.66861381  0.38199866  1
  Si  Si137  1  0.81025587  0.42525727  0.38733629  1
  Si  Si138  1  0.36471312  0.67198122  0.11537371  1
  Si  Si139  1  0.98238819  0.66494371  0.38315323  1
  Si  Si140  1  0.14366958  0.91613981  0.38454454  1
  Si  Si141  1  0.36120564  0.83662192  0.11626413  1
  Si  Si142  1  0.47498151  0.91055513  0.38729144  1
  Si  Si143  1  0.64141057  0.83127519  0.38803402  1
  Si  Si144  1  0.64541438  0.66816817  0.88649755  1
  Si  Si145  1  0.85529550  0.07832780  0.61439035  1
  Si  Si146  1  0.69213479  0.16691680  0.61307115  1
  Si  Si147  1  0.48576974  0.91160923  0.89210383  1
  Si  Si148  1  0.96689318  0.83335393  0.88477245  1
  Si  Si149  1  0.29763748  0.33221359  0.38564518  1
  Si  Si150  1  0.86062153  0.92094035  0.11533303  1
  Si  Si151  1  0.36282722  0.16128968  0.11480845  1
  Si  Si152  1  0.64294768  0.33171684  0.88353469  1
  Si  Si153  1  0.52102587  0.09300561  0.61187312  1
  Si  Si154  1  0.80623214  0.58137565  0.88311885  1
  Si  Si155  1  0.35055735  0.16729989  0.61472042  1
  Si  Si156  1  0.80438553  0.08270574  0.88337003  1
  Si  Si157  1  0.96688141  0.16683146  0.88299580  1
  Si  Si158  1  0.02315663  0.66610300  0.61469617  1
  Si  Si159  1  0.13225873  0.08365455  0.88712056  1
  Si  Si160  1  0.64649525  0.17067438  0.88664142  1
  Si  Si161  1  0.53092810  0.08188436  0.11988423  1
  Si  Si162  1  0.02496024  0.83217020  0.61579016  1
  Si  Si163  1  0.18884469  0.58443454  0.61645988  1
  Si  Si164  1  0.30638432  0.83232751  0.38370228  1
  Si  Si165  1  0.85376766  0.08502847  0.11811956  1
  Si  Si166  1  0.13338400  0.91654073  0.88914847  1
  Si  Si167  1  0.80194327  0.41695464  0.88254885  1
  Si  Si168  1  0.85942881  0.91352308  0.61542169  1
  Si  Si169  1  0.19795733  0.58857398  0.10771781  1
  Si  Si170  1  0.36606674  0.32716165  0.11064198  1
  Si  Si171  1  0.19604438  0.41835061  0.61126273  1
  Si  Si172  1  0.69897392  0.33283405  0.61194670  1
  Si  Si173  1  0.69896396  0.33169477  0.11343179  1
  Si  Si174  1  0.35460769  0.67020922  0.61639027  1
  Si  Si175  1  0.85509324  0.57832360  0.11008573  1
  Si  Si176  1  0.47739170  0.58717359  0.38554238  1
  Si  Si177  1  0.13747298  0.58828001  0.88798738  1
  Si  Si178  1  0.69637676  0.83549983  0.11502609  1
  Si  Si179  1  0.64499269  0.66612021  0.38447634  1
  Si  Si180  1  0.69553646  0.67013285  0.11359142  1
  Si  Si181  1  0.35395533  0.83324313  0.61290856  1
  Si  Si182  1  0.35499577  0.32933000  0.61312023  1
  Si  Si183  1  0.96875832  0.66771989  0.88413937  1
  Si  Si184  1  0.02076054  0.83585311  0.11148142  1
  Si  Si185  1  0.18995928  0.07892981  0.61490178  1
  Si  Si186  1  0.68860483  0.66842792  0.61304251  1
  Si  Si187  1  0.86077779  0.42092129  0.61226795  1
  Si  Si188  1  0.81423350  0.58904616  0.38350316  1
  Si  Si189  1  0.14718015  0.58194930  0.38203507  1
  Si  Si190  1  0.85969525  0.41453050  0.11438699  1
  Si  Si191  1  0.80785844  0.08496809  0.39365149  1
  O  O192  1  0.28242025  0.11540897  0.07920564  1
  O  O193  1  0.26898026  0.11425115  0.58471737  1
  O  O194  1  0.28404044  0.62296506  0.08403886  1
  O  O195  1  0.26801898  0.62333274  0.58886906  1
  O  O196  1  0.60726418  0.12041466  0.08872884  1
  O  O197  1  0.60039991  0.13281761  0.58251561  1
  O  O198  1  0.60765572  0.62918152  0.08434166  1
  O  O199  1  0.60062496  0.62745009  0.58251536  1
  O  O200  1  0.93064614  0.12247566  0.08598979  1
  O  O201  1  0.93819926  0.10805674  0.58711901  1
  O  O202  1  0.93071162  0.60465228  0.07370150  1
  O  O203  1  0.93490934  0.62264779  0.58505749  1
  O  O204  1  0.09843120  0.35905390  0.07176489  1
  O  O205  1  0.11707906  0.37242344  0.57311016  1
  O  O206  1  0.10819748  0.86131125  0.08579451  1
  O  O207  1  0.10270353  0.86821574  0.58559285  1
  O  O208  1  0.44654743  0.35336442  0.07875903  1
  O  O209  1  0.43457651  0.35071664  0.57893767  1
  O  O210  1  0.44087648  0.87398008  0.08815706  1
  O  O211  1  0.42509596  0.86599953  0.57513312  1
  O  O212  1  0.78659472  0.35601716  0.08628629  1
  O  O213  1  0.78061571  0.36864463  0.58520178  1
  O  O214  1  0.77383507  0.87401250  0.08470496  1
  O  O215  1  0.77995169  0.86149566  0.58713057  1
  O  O216  1  0.28477527  0.37291346  0.07511655  1
  O  O217  1  0.28023303  0.38821250  0.58474914  1
  O  O218  1  0.27371963  0.87916101  0.08650313  1
  O  O219  1  0.26373369  0.87568093  0.58578511  1
  O  O220  1  0.62693999  0.38457601  0.07530192  1
  O  O221  1  0.61826710  0.37860919  0.57880677  1
  O  O222  1  0.60628741  0.87635774  0.08668949  1
  O  O223  1  0.61444915  0.88122150  0.57591256  1
  O  O224  1  0.94281856  0.39029484  0.08391343  1
  O  O225  1  0.93889577  0.39630648  0.57849581  1
  O  O226  1  0.94211192  0.89207023  0.08305156  1
  O  O227  1  0.94009485  0.87895799  0.58702677  1
  O  O228  1  0.08848461  0.13925225  0.06790922  1
  O  O229  1  0.10203054  0.12144543  0.58514446  1
  O  O230  1  0.12137190  0.64135415  0.07308791  1
  O  O231  1  0.10067742  0.62880512  0.58401685  1
  O  O232  1  0.44569137  0.12639493  0.08836126  1
  O  O233  1  0.43443664  0.14156555  0.58516794  1
  O  O234  1  0.44751635  0.64490353  0.08567587  1
  O  O235  1  0.43465183  0.63733550  0.58508771  1
  O  O236  1  0.76709525  0.12897684  0.08422114  1
  O  O237  1  0.76823597  0.12195464  0.58574292  1
  O  O238  1  0.77087800  0.62915559  0.08331913  1
  O  O239  1  0.76961856  0.63276782  0.58501946  1
  O  O240  1  0.06561705  0.11076742  0.42323318  1
  O  O241  1  0.04736878  0.11661643  0.91165581  1
  O  O242  1  0.06381853  0.61254457  0.41133940  1
  O  O243  1  0.05296086  0.62269350  0.91364201  1
  O  O244  1  0.38568601  0.12310393  0.42624343  1
  O  O245  1  0.39312994  0.09488440  0.93060759  1
  O  O246  1  0.39921967  0.63160068  0.41195106  1
  O  O247  1  0.37480706  0.60668793  0.91732123  1
  O  O248  1  0.71635465  0.10164183  0.41759394  1
  O  O249  1  0.72879148  0.11771017  0.91613644  1
  O  O250  1  0.73346908  0.62231562  0.41311691  1
  O  O251  1  0.72694238  0.61416675  0.91339567  1
  O  O252  1  0.21041484  0.36179571  0.41051690  1
  O  O253  1  0.23484627  0.35958974  0.92037434  1
  O  O254  1  0.22918545  0.86930035  0.41444055  1
  O  O255  1  0.21503981  0.87322680  0.92460583  1
  O  O256  1  0.55582918  0.35805277  0.43088851  1
  O  O257  1  0.55716371  0.35263846  0.91150978  1
  O  O258  1  0.55210138  0.85291346  0.41235856  1
  O  O259  1  0.56202443  0.84902952  0.91527918  1
  O  O260  1  0.89495466  0.37851830  0.41740579  1
  O  O261  1  0.87874221  0.36213864  0.91183020  1
  O  O262  1  0.90707030  0.85297664  0.42446469  1
  O  O263  1  0.88605071  0.86797912  0.91284422  1
  O  O264  1  0.05284114  0.40251201  0.41105589  1
  O  O265  1  0.04268021  0.38099827  0.91979562  1
  O  O266  1  0.06793943  0.87622234  0.41533654  1
  O  O267  1  0.04945911  0.88090167  0.91443974  1
  O  O268  1  0.37181479  0.38303256  0.42303045  1
  O  O269  1  0.39485947  0.38512898  0.91370232  1
  O  O270  1  0.39301689  0.87443755  0.41448314  1
  O  O271  1  0.40853311  0.88959026  0.93046760  1
  O  O272  1  0.73363821  0.40103708  0.42278185  1
  O  O273  1  0.71780760  0.39108626  0.91130333  1
  O  O274  1  0.71810241  0.87859694  0.42638267  1
  O  O275  1  0.72377389  0.88541811  0.91389698  1
  O  O276  1  0.22515297  0.12958285  0.41904588  1
  O  O277  1  0.21042077  0.13038012  0.92229002  1
  O  O278  1  0.23063089  0.63034460  0.41305446  1
  O  O279  1  0.21363436  0.64454351  0.91483533  1
  O  O280  1  0.56583209  0.14410794  0.42627850  1
  O  O281  1  0.57090245  0.14654460  0.92320505  1
  O  O282  1  0.56601199  0.63272931  0.41492735  1
  O  O283  1  0.56924038  0.64653138  0.92377234  1
  O  O284  1  0.87705041  0.14303673  0.43095700  1
  O  O285  1  0.88848157  0.13007923  0.91266991  1
  O  O286  1  0.89831017  0.63830753  0.41286220  1
  O  O287  1  0.88874524  0.63135317  0.91181731  1
  O  O288  1  0.16879391  -0.00945171  0.07716194  1
  O  O289  1  0.17656818  -0.00363732  0.58500207  1
  O  O290  1  0.18284199  0.50928240  0.07490742  1
  O  O291  1  0.18115478  0.50327700  0.58483176  1
  O  O292  1  0.52242173  -0.00104836  0.08866184  1
  O  O293  1  0.50476350  0.01615906  0.57430596  1
  O  O294  1  0.50926196  0.51418866  0.07516687  1
  O  O295  1  0.50495699  0.51021657  0.57644523  1
  O  O296  1  0.84262701  0.00263632  0.08562647  1
  O  O297  1  0.84101256  -0.00493930  0.58728973  1
  O  O298  1  0.82875213  0.49514769  0.08570272  1
  O  O299  1  0.83742544  0.50446864  0.58570610  1
  O  O300  1  -0.00870788  0.25309149  0.08675316  1
  O  O301  1  0.00353788  0.23669477  0.57751977  1
  O  O302  1  -0.00888488  0.76018063  0.07596168  1
  O  O303  1  0.01138486  0.74943078  0.58646860  1
  O  O304  1  0.35044241  0.24297520  0.08499265  1
  O  O305  1  0.32258693  0.24811374  0.58564173  1
  O  O306  1  0.34882172  0.75489250  0.08613758  1
  O  O307  1  0.33429784  0.75028537  0.58332153  1
  O  O308  1  0.68046248  0.24836697  0.08602062  1
  O  O309  1  0.69559619  0.24905919  0.58547010  1
  O  O310  1  0.69007518  0.75289540  0.08415333  1
  O  O311  1  0.68083714  0.75035340  0.58394665  1
  O  O312  1  0.15959563  -0.00357802  0.41645890  1
  O  O313  1  0.13691968  0.00014970  0.91483428  1
  O  O314  1  0.16716374  0.50102448  0.41234920  1
  O  O315  1  0.15587987  0.51097200  0.92205828  1
  O  O316  1  0.49483383  -0.01326022  0.42332704  1
  O  O317  1  0.52948392  -0.01376718  0.92033245  1
  O  O318  1  0.48589360  0.51095152  0.42260199  1
  O  O319  1  0.51126005  0.48716176  0.92028537  1
  O  O320  1  0.83794983  0.00697746  0.42786320  1
  O  O321  1  0.82126942  -0.00004183  0.91195883  1
  O  O322  1  0.83615345  0.50893406  0.41317678  1
  O  O323  1  0.82441795  0.49907923  0.91090334  1
  O  O324  1  0.30926204  0.25017379  0.41621795  1
  O  O325  1  0.34277445  0.25258665  0.91967664  1
  O  O326  1  0.31423503  0.75037521  0.41442572  1
  O  O327  1  0.33087475  0.74363848  0.92836965  1
  O  O328  1  0.68683955  0.24093810  0.42351583  1
  O  O329  1  0.67744652  0.25316995  0.91309541  1
  O  O330  1  0.66062554  0.74725318  0.41483309  1
  O  O331  1  0.68000905  0.74972466  0.91135948  1
  O  O332  1  1.00153507  0.26939794  0.42309724  1
  O  O333  1  0.97662446  0.24843781  0.91238865  1
  O  O334  1  1.00934368  0.74465465  0.41337591  1
  O  O335  1  0.97733885  0.75051301  0.91266734  1
  O  O336  1  0.21293785  0.08234631  0.20133927  1
  O  O337  1  0.20464777  0.07891011  0.69496226  1
  O  O338  1  0.20792421  0.58659116  0.18826402  1
  O  O339  1  0.19773971  0.58420321  0.69557766  1
  O  O340  1  0.54433119  0.08089656  0.19898263  1
  O  O341  1  0.54494141  0.08733338  0.69089284  1
  O  O342  1  0.54656714  0.58778393  0.19261545  1
  O  O343  1  0.54365368  0.58680767  0.69125619  1
  O  O344  1  0.86535960  0.08402316  0.19613354  1
  O  O345  1  0.87408166  0.08081524  0.69518596  1
  O  O346  1  0.87617261  0.58336561  0.19107507  1
  O  O347  1  0.87461903  0.58612655  0.69436288  1
  O  O348  1  0.04789497  0.34203341  0.19018156  1
  O  O349  1  0.04247586  0.33080720  0.69980345  1
  O  O350  1  0.04148060  0.83268671  0.19254196  1
  O  O351  1  0.04111238  0.83242604  0.69625126  1
  O  O352  1  0.37863885  0.33054339  0.19184729  1
  O  O353  1  0.37347192  0.32982104  0.69389083  1
  O  O354  1  0.37923440  0.83444175  0.19667496  1
  O  O355  1  0.37479328  0.83380920  0.69341172  1
  O  O356  1  0.71242461  0.33648644  0.19379909  1
  O  O357  1  0.71330263  0.33359813  0.69308346  1
  O  O358  1  0.71229345  0.83193990  0.19483901  1
  O  O359  1  0.70895999  0.83347330  0.69293107  1
  O  O360  1  0.21413228  0.41573478  0.19867219  1
  O  O361  1  0.20881805  0.41581870  0.69178310  1
  O  O362  1  0.21101910  0.91481578  0.19368940  1
  O  O363  1  0.20220285  0.91574827  0.69606049  1
  O  O364  1  0.54829836  0.42098520  0.19920673  1
  O  O365  1  0.54486865  0.41644101  0.70056155  1
  O  O366  1  0.54575916  0.91403235  0.19760055  1
  O  O367  1  0.54327153  0.91606844  0.70018778  1
  O  O368  1  0.87756681  0.41770531  0.19481067  1
  O  O369  1  0.87698749  0.41937634  0.69359458  1
  O  O370  1  0.88111472  0.91139430  0.19388871  1
  O  O371  1  0.87695066  0.91494801  0.69608408  1
  O  O372  1  0.05302391  0.16405102  0.18856432  1
  O  O373  1  0.04043988  0.16252356  0.69384204  1
  O  O374  1  0.04547340  0.66726600  0.19758199  1
  O  O375  1  0.03923283  0.66688039  0.69502604  1
  O  O376  1  0.37750118  0.16419234  0.19548989  1
  O  O377  1  0.36734067  0.16520431  0.69376006  1
  O  O378  1  0.38224187  0.67231455  0.19505068  1
  O  O379  1  0.37659556  0.67417641  0.69537689  1
  O  O380  1  0.70948913  0.16972706  0.19810458  1
  O  O381  1  0.71008889  0.16545310  0.69372070  1
  O  O382  1  0.71328613  0.66902627  0.19412103  1
  O  O383  1  0.70804950  0.66718396  0.69375850  1
  O  O384  1  0.13156452  0.08065961  0.30937504  1
  O  O385  1  0.11794534  0.08182168  0.80572099  1
  O  O386  1  0.12760080  0.58361361  0.30214819  1
  O  O387  1  0.11882324  0.58568412  0.80656804  1
  O  O388  1  0.45397372  0.08174682  0.30125400  1
  O  O389  1  0.45520997  0.08027460  0.80049176  1
  O  O390  1  0.46436821  0.58572294  0.30563864  1
  O  O391  1  0.47035087  0.58196529  0.80161690  1
  O  O392  1  0.79286055  0.08592984  0.31382363  1
  O  O393  1  0.78906511  0.08310638  0.80312658  1
  O  O394  1  0.79396201  0.58761111  0.30306903  1
  O  O395  1  0.78871316  0.58342747  0.80246428  1
  O  O396  1  0.28998079  0.33243803  0.30534941  1
  O  O397  1  0.29084650  0.33031260  0.80621707  1
  O  O398  1  0.28948526  0.83243320  0.30344646  1
  O  O399  1  0.28796122  0.83491699  0.80116797  1
  O  O400  1  0.62397848  0.33407987  0.30047897  1
  O  O401  1  0.62738553  0.33218675  0.80334173  1
  O  O402  1  0.62610006  0.83139361  0.30706814  1
  O  O403  1  0.62771093  0.83232167  0.80445267  1
  O  O404  1  0.95298238  0.34531730  0.30644959  1
  O  O405  1  0.95028196  0.33278592  0.80468103  1
  O  O406  1  0.96169907  0.82789750  0.30639825  1
  O  O407  1  0.95145085  0.83277484  0.80399863  1
  O  O408  1  0.12218328  0.42117609  0.30158324  1
  O  O409  1  0.11900490  0.41708266  0.79830411  1
  O  O410  1  0.12616058  0.91396508  0.30446819  1
  O  O411  1  0.11837585  0.91474895  0.80769609  1
  O  O412  1  0.45389858  0.41660655  0.29874635  1
  O  O413  1  0.45849710  0.41292822  0.80552411  1
  O  O414  1  0.45578955  0.91335678  0.30646124  1
  O  O415  1  0.45583687  0.90788101  0.81205321  1
  O  O416  1  0.79114367  0.42219245  0.30627273  1
  O  O417  1  0.78775656  0.41761186  0.80187358  1
  O  O418  1  0.78869876  0.91117348  0.30258647  1
  O  O419  1  0.78840177  0.91608321  0.80314366  1
  O  O420  1  0.29192457  0.16614469  0.30829459  1
  O  O421  1  0.28613637  0.16173066  0.79991624  1
  O  O422  1  0.28778046  0.67079473  0.30269440  1
  O  O423  1  0.28399200  0.67545882  0.81058487  1
  O  O424  1  0.62207762  0.16945673  0.31126695  1
  O  O425  1  0.63215549  0.16849653  0.80671455  1
  O  O426  1  0.62750881  0.66694069  0.30399192  1
  O  O427  1  0.62689794  0.66743290  0.80530784  1
  O  O428  1  0.94469024  0.17047329  0.30849030  1
  O  O429  1  0.95128212  0.16614899  0.80222658  1
  O  O430  1  0.95956898  0.66482738  0.30303468  1
  O  O431  1  0.95191401  0.66776890  0.80332582  1
  F  F432  1  0.04987703  -0.01083036  0.19917958  1
  F  F433  1  0.04256830  -0.00244904  0.70377027  1
  F  F434  1  0.04660237  0.50205861  0.19844635  1
  F  F435  1  0.04062646  0.50331376  0.70029281  1
  F  F436  1  0.38040422  -0.00427485  0.20197964  1
  F  F437  1  0.36636929  -0.00403290  0.69997860  1
  F  F438  1  0.38105851  0.50097465  0.19818771  1
  F  F439  1  0.38049366  0.48923461  0.69913761  1
  F  F440  1  0.70420254  -0.00221350  0.19986360  1
  F  F441  1  0.71237098  -0.00026065  0.69920228  1
  F  F442  1  0.71488662  0.50323892  0.20205387  1
  F  F443  1  0.71185804  0.50232458  0.69913090  1
  F  F444  1  0.21595539  0.24873386  0.20072700  1
  F  F445  1  0.20775479  0.24962898  0.70306270  1
  F  F446  1  0.21424252  0.75238060  0.19899407  1
  F  F447  1  0.20631489  0.74896931  0.70219289  1
  F  F448  1  0.54554633  0.24662644  0.20317775  1
  F  F449  1  0.54961347  0.25496307  0.69715800  1
  F  F450  1  0.54864975  0.75118602  0.20394769  1
  F  F451  1  0.54506248  0.74986887  0.70220060  1
  F  F452  1  0.86302929  0.25059366  0.19939665  1
  F  F453  1  0.87735505  0.24872539  0.69990271  1
  F  F454  1  0.87948319  0.75012628  0.20148162  1
  F  F455  1  0.87650739  0.75015021  0.70006202  1
  F  F456  1  0.28925534  -0.00474542  0.29936001  1
  F  F457  1  0.28375843  -0.00282926  0.80002137  1
  F  F458  1  0.28870153  0.50182151  0.29703070  1
  F  F459  1  0.28091580  0.48760910  0.80057201  1
  F  F460  1  0.61682718  -0.00973382  0.30602957  1
  F  F461  1  0.63487792  0.00181261  0.80125389  1
  F  F462  1  0.62521844  0.50597607  0.29845366  1
  F  F463  1  0.62674928  0.50061339  0.79670651  1
  F  F464  1  0.95883141  -0.01608621  0.31009893  1
  F  F465  1  0.95082390  -0.00104137  0.79803514  1
  F  F466  1  0.95680932  0.50459774  0.29413262  1
  F  F467  1  0.95105270  0.50144502  0.79660221  1
  F  F468  1  0.13396401  0.25163902  0.29897025  1
  F  F469  1  0.11782363  0.24546278  0.79911880  1
  F  F470  1  0.12499127  0.75097003  0.29589913  1
  F  F471  1  0.11517712  0.75049447  0.79839739  1
  F  F472  1  0.45427352  0.25004292  0.29706121  1
  F  F473  1  0.45524621  0.25142287  0.79583056  1
  F  F474  1  0.45653171  0.75031870  0.29897680  1
  F  F475  1  0.45605411  0.75073434  0.79762625  1
  F  F476  1  0.78562988  0.25494490  0.30131769  1
  F  F477  1  0.78798943  0.25014445  0.79472420  1
  F  F478  1  0.79188168  0.74789026  0.29780264  1
  F  F479  1  0.78742855  0.75008712  0.79566482  1
