# generated using pymatgen
data_K24Na3Li5Mg64Fe17Si79(O5F)48
_symmetry_space_group_name_H-M   'P 1'
_cell_length_a   16.09330873
_cell_length_b   18.59575381
_cell_length_c   20.56820321
_cell_angle_alpha   89.99245663
_cell_angle_beta   100.02602532
_cell_angle_gamma   90.02898907
_symmetry_Int_Tables_number   1
_chemical_formula_structural   K24Na3Li5Mg64Fe17Si79(O5F)48
_chemical_formula_sum   'K24 Na3 Li5 Mg64 Fe17 Si79 O240 F48'
_cell_volume   6061.38762558
_cell_formula_units_Z   1
loop_
 _symmetry_equiv_pos_site_id
 _symmetry_equiv_pos_as_xyz
  1  'x, y, z'
loop_
 _atom_site_type_symbol
 _atom_site_label
 _atom_site_symmetry_multiplicity
 _atom_site_fract_x
 _atom_site_fract_y
 _atom_site_fract_z
 _atom_site_occupancy
  K  K0  1  0.00026841  0.00801351  0.00213544  1
  K  K1  1  -0.01706185  0.00907717  0.49374227  1
  K  K2  1  0.00213100  0.49940653  0.00762990  1
  K  K3  1  -0.01189586  0.50479072  0.49454637  1
  K  K4  1  0.33106366  0.00747505  0.01007432  1
  K  K5  1  0.33463255  0.00054607  0.49483170  1
  K  K6  1  0.33896784  0.49811469  0.00608747  1
  K  K7  1  0.32700415  0.48510926  0.49163254  1
  K  K8  1  0.67028918  0.00074764  0.01262448  1
  K  K9  1  0.66150911  0.01590682  0.49072464  1
  K  K10  1  0.67367984  0.50354889  0.01340168  1
  K  K11  1  0.65433207  0.49305922  0.48899362  1
  K  K12  1  0.17547393  0.24541625  0.01159164  1
  K  K13  1  0.16408161  0.24243756  0.48790696  1
  K  K14  1  0.16514722  0.75587948  0.00110430  1
  K  K15  1  0.16183812  0.75254484  0.49126378  1
  K  K16  1  0.49726124  0.25427825  0.01511917  1
  K  K17  1  0.49327229  0.25459517  0.48818331  1
  K  K18  1  0.51269516  0.75379693  0.00952236  1
  K  K19  1  0.50175714  0.75268146  0.48761768  1
  K  K20  1  0.82648319  0.25084885  0.01262685  1
  K  K21  1  0.83631111  0.24236156  0.49032922  1
  K  K22  1  0.83142486  0.74881500  0.00660904  1
  K  K23  1  0.83188882  0.75552506  0.48261113  1
  Na  Na24  1  0.16724078  -0.00073802  0.75748422  1
  Na  Na25  1  0.83242186  0.83160053  0.23950886  1
  Na  Na26  1  0.66216492  0.08156889  0.25517797  1
  Li  Li27  1  0.50547798  0.00899857  0.24826710  1
  Li  Li28  1  0.33567331  0.25290146  0.25168133  1
  Li  Li29  1  0.66622464  0.08487346  0.74202902  1
  Li  Li30  1  0.67200659  0.41262702  0.25293122  1
  Li  Li31  1  0.83164422  0.33500141  0.25733273  1
  Mg  Mg32  1  0.83156907  0.50074419  0.75125922  1
  Mg  Mg33  1  0.49909387  0.50043604  0.75394171  1
  Mg  Mg34  1  0.66659782  0.24514319  0.74592235  1
  Mg  Mg35  1  0.33504047  0.24871344  0.75209718  1
  Mg  Mg36  1  0.83259044  0.49458544  0.24778810  1
  Mg  Mg37  1  0.00081221  0.74930768  0.24594038  1
  Mg  Mg38  1  0.33758041  0.75206567  0.24909516  1
  Mg  Mg39  1  0.16674196  0.49720909  0.75283554  1
  Mg  Mg40  1  0.16815755  0.00166444  0.25105029  1
  Mg  Mg41  1  0.67092187  0.74906213  0.24456924  1
  Mg  Mg42  1  0.66665139  0.25450620  0.25189939  1
  Mg  Mg43  1  0.83063394  0.00088502  0.74841544  1
  Mg  Mg44  1  -0.00260994  0.75073441  0.75650778  1
  Mg  Mg45  1  0.33030732  0.74818489  0.75345908  1
  Mg  Mg46  1  -0.00419939  0.25183559  0.25383151  1
  Mg  Mg47  1  0.50086252  -0.00164773  0.74689527  1
  Mg  Mg48  1  0.00056214  0.24870062  0.75082916  1
  Mg  Mg49  1  0.16746070  0.49871160  0.25291084  1
  Mg  Mg50  1  0.50358697  0.49733537  0.25058290  1
  Mg  Mg51  1  0.83114839  0.00102229  0.24750385  1
  Mg  Mg52  1  0.66500962  0.75107033  0.74852336  1
  Mg  Mg53  1  0.66910012  0.58154591  0.24540971  1
  Mg  Mg54  1  0.50081067  0.33241572  0.75133050  1
  Mg  Mg55  1  0.50293681  0.16199367  0.74609071  1
  Mg  Mg56  1  0.00134497  0.08203959  0.75218261  1
  Mg  Mg57  1  0.82972338  0.16440599  0.74660971  1
  Mg  Mg58  1  0.83489325  0.66644008  0.75339025  1
  Mg  Mg59  1  0.16983314  0.16461421  0.75330042  1
  Mg  Mg60  1  0.17038245  0.33230688  0.75316467  1
  Mg  Mg61  1  0.50367462  0.66563567  0.24835361  1
  Mg  Mg62  1  0.33507930  0.08128656  0.75071635  1
  Mg  Mg63  1  0.00069335  0.91520749  0.75550661  1
  Mg  Mg64  1  0.00046322  0.58386358  0.24639773  1
  Mg  Mg65  1  -0.00019048  0.58437340  0.75383028  1
  Mg  Mg66  1  0.00013693  0.41518705  0.75098261  1
  Mg  Mg67  1  0.66543053  0.91682896  0.24277777  1
  Mg  Mg68  1  0.50471702  0.83824830  0.24669807  1
  Mg  Mg69  1  0.66665703  0.91895881  0.74783709  1
  Mg  Mg70  1  0.33585603  0.41334591  0.75431182  1
  Mg  Mg71  1  0.16771950  0.66626171  0.24940109  1
  Mg  Mg72  1  0.66474953  0.41474664  0.74825513  1
  Mg  Mg73  1  0.83280156  0.17023827  0.25306657  1
  Mg  Mg74  1  0.16703242  0.83414602  0.24807687  1
  Mg  Mg75  1  0.16851321  0.33340442  0.25334504  1
  Mg  Mg76  1  0.49529529  0.16919458  0.24820578  1
  Mg  Mg77  1  0.49989359  0.33483854  0.25100576  1
  Mg  Mg78  1  0.66548217  0.58514785  0.75162060  1
  Mg  Mg79  1  0.83484784  0.83450868  0.75332994  1
  Mg  Mg80  1  -0.00033701  0.41375631  0.25431710  1
  Mg  Mg81  1  0.16567497  0.66332667  0.75388284  1
  Mg  Mg82  1  -0.00139628  0.08623305  0.25293080  1
  Mg  Mg83  1  0.33451265  0.58207548  0.75334379  1
  Mg  Mg84  1  0.33109181  0.91432711  0.75222141  1
  Mg  Mg85  1  0.16459157  0.83381827  0.75537771  1
  Mg  Mg86  1  0.83230202  0.66411079  0.24410961  1
  Mg  Mg87  1  0.16946155  0.16826427  0.25254189  1
  Mg  Mg88  1  0.33481353  0.41318545  0.25136654  1
  Mg  Mg89  1  0.83070951  0.33331563  0.74687649  1
  Mg  Mg90  1  0.33625711  0.58389270  0.25011867  1
  Mg  Mg91  1  -0.00144348  0.91734193  0.24659011  1
  Mg  Mg92  1  0.49828045  0.83274984  0.74767359  1
  Mg  Mg93  1  0.33885703  0.92007119  0.24965699  1
  Mg  Mg94  1  0.49836446  0.66524104  0.75181183  1
  Mg  Mg95  1  0.33651119  0.08658923  0.24998650  1
  Fe  Fe96  1  0.97373595  0.16454536  0.39388957  1
  Fe  Fe97  1  0.47759086  0.08261210  0.38959829  1
  Fe  Fe98  1  0.13698584  0.42146334  0.39418248  1
  Fe  Fe99  1  0.14268577  0.92225377  0.89664618  1
  Fe  Fe100  1  0.47913536  0.58545987  0.89208531  1
  Fe  Fe101  1  0.68996507  0.16596644  0.60611003  1
  Fe  Fe102  1  0.69608549  0.66573943  0.10447002  1
  Fe  Fe103  1  0.30374580  0.32651483  0.39312619  1
  Fe  Fe104  1  0.47361265  0.41655422  0.39159560  1
  Fe  Fe105  1  0.02572274  0.66976686  0.10970293  1
  Fe  Fe106  1  0.64188034  0.17606266  0.38935344  1
  Fe  Fe107  1  0.96717259  0.33676597  0.39565745  1
  Fe  Fe108  1  0.97542673  0.66137430  0.89381551  1
  Fe  Fe109  1  0.31532585  0.33245876  0.89286755  1
  Fe  Fe110  1  0.69226730  0.83982599  0.10158804  1
  Fe  Fe111  1  0.97356276  0.83600564  0.89603918  1
  Fe  Fe112  1  0.35450267  0.16997718  0.10919033  1
  Si  Si113  1  0.02656509  0.83098162  0.61536188  1
  Si  Si114  1  0.64144464  0.83682942  0.88046438  1
  Si  Si115  1  0.64006536  0.67503820  0.88409461  1
  Si  Si116  1  0.02562565  0.33184696  0.61625073  1
  Si  Si117  1  0.52378178  0.41670227  0.11473677  1
  Si  Si118  1  0.64038138  0.32548898  0.88371248  1
  Si  Si119  1  0.47663015  0.07579865  0.88306077  1
  Si  Si120  1  0.02683103  0.16935561  0.11715228  1
  Si  Si121  1  0.68949439  0.33914685  0.61087745  1
  Si  Si122  1  0.14150206  0.41156673  0.88764475  1
  Si  Si123  1  0.36026563  0.33238416  0.61601950  1
  Si  Si124  1  0.13863922  0.07586285  0.38855159  1
  Si  Si125  1  0.97695072  0.83362075  0.38181116  1
  Si  Si126  1  0.36320811  0.66734308  0.11493445  1
  Si  Si127  1  0.64482273  0.33927668  0.38745756  1
  Si  Si128  1  0.14436160  0.91232069  0.38430511  1
  Si  Si129  1  0.86684929  0.93041189  0.10916053  1
  Si  Si130  1  0.69116820  0.66614085  0.61395229  1
  Si  Si131  1  0.19217082  0.91526638  0.61591576  1
  Si  Si132  1  0.80150967  0.91927036  0.88602295  1
  Si  Si133  1  0.35921128  0.83435635  0.11357761  1
  Si  Si134  1  0.85907669  0.40838991  0.11617034  1
  Si  Si135  1  0.02354759  0.83898239  0.11180172  1
  Si  Si136  1  0.80716776  0.07775551  0.38817971  1
  Si  Si137  1  0.30392323  0.66184812  0.88876641  1
  Si  Si138  1  0.86412363  0.57255802  0.10919501  1
  Si  Si139  1  0.02667305  0.66587544  0.61558208  1
  Si  Si140  1  0.30937385  0.82881255  0.88961823  1
  Si  Si141  1  0.31133277  0.67148574  0.38444695  1
  Si  Si142  1  0.64436619  0.83060108  0.38167801  1
  Si  Si143  1  0.18600147  0.08012328  0.11375053  1
  Si  Si144  1  0.68901091  0.33292364  0.11696077  1
  Si  Si145  1  0.14148553  0.57540877  0.88787759  1
  Si  Si146  1  0.86403111  0.08008301  0.61248912  1
  Si  Si147  1  0.85852333  0.58441365  0.61487167  1
  Si  Si148  1  0.69012814  0.16963401  0.11557557  1
  Si  Si149  1  0.14496887  0.09561079  0.89026930  1
  Si  Si150  1  0.52551704  0.58172068  0.11127377  1
  Si  Si151  1  0.80127785  0.41518653  0.88404342  1
  Si  Si152  1  0.80280177  0.42313471  0.38747687  1
  Si  Si153  1  0.69150931  0.83322179  0.61314458  1
  Si  Si154  1  0.35889855  0.16559393  0.61360678  1
  Si  Si155  1  0.35403974  0.83029794  0.61349168  1
  Si  Si156  1  0.64454969  0.66769235  0.38225663  1
  Si  Si157  1  0.31790620  0.16479631  0.88694814  1
  Si  Si158  1  0.19249727  0.91425526  0.11600790  1
  Si  Si159  1  0.52315462  0.42049337  0.61578263  1
  Si  Si160  1  0.19105954  0.42270055  0.11482008  1
  Si  Si161  1  0.85993844  0.91339216  0.61500709  1
  Si  Si162  1  0.47797985  0.58806692  0.38714965  1
  Si  Si163  1  0.97368933  0.17102576  0.88633984  1
  Si  Si164  1  0.81062278  0.58524616  0.38346273  1
  Si  Si165  1  0.81031089  0.08383210  0.88334052  1
  Si  Si166  1  0.19702199  0.58775314  0.11358726  1
  Si  Si167  1  0.85810245  0.09332627  0.11453817  1
  Si  Si168  1  0.02915323  0.33335188  0.11618621  1
  Si  Si169  1  0.19547722  0.08382320  0.61685831  1
  Si  Si170  1  0.97515861  0.66871243  0.38347100  1
  Si  Si171  1  0.48086514  0.91285201  0.38557038  1
  Si  Si172  1  0.52165995  0.08744425  0.10980325  1
  Si  Si173  1  0.31272755  0.83500478  0.38417376  1
  Si  Si174  1  0.52161172  0.92020957  0.10751908  1
  Si  Si175  1  0.85991577  0.41837354  0.61435115  1
  Si  Si176  1  0.19068733  0.57995587  0.61571407  1
  Si  Si177  1  0.14640680  0.59039348  0.38868953  1
  Si  Si178  1  0.80799111  0.91530959  0.38129849  1
  Si  Si179  1  0.48501694  0.41794623  0.88960577  1
  Si  Si180  1  0.30358415  0.15522571  0.38983354  1
  Si  Si181  1  0.52279886  0.58617887  0.61466977  1
  Si  Si182  1  0.79768795  0.58203851  0.88747453  1
  Si  Si183  1  0.35517908  0.33959835  0.11123378  1
  Si  Si184  1  0.19217960  0.41426802  0.61628374  1
  Si  Si185  1  0.47455081  0.91064188  0.88263190  1
  Si  Si186  1  0.02940493  0.16509349  0.61697656  1
  Si  Si187  1  0.35422231  0.66568260  0.61469211  1
  Si  Si188  1  0.51926526  0.07700404  0.61016282  1
  Si  Si189  1  0.97012568  0.33761084  0.88476039  1
  Si  Si190  1  0.64046985  0.16140903  0.88204839  1
  Si  Si191  1  0.52096820  0.91129659  0.61158199  1
  O  O192  1  0.25449296  0.11634920  0.07553388  1
  O  O193  1  0.27055389  0.12262857  0.58408622  1
  O  O194  1  0.28324683  0.61511388  0.08659489  1
  O  O195  1  0.26814459  0.61949331  0.58580761  1
  O  O196  1  0.60865396  0.11926737  0.08402437  1
  O  O197  1  0.59625449  0.10579246  0.57776236  1
  O  O198  1  0.59822120  0.61046410  0.07357180  1
  O  O199  1  0.60125509  0.62452896  0.58451558  1
  O  O200  1  0.93190949  0.13926149  0.08552957  1
  O  O201  1  0.94784229  0.11560916  0.58760967  1
  O  O202  1  0.94732584  0.59818891  0.08043948  1
  O  O203  1  0.93501356  0.62700502  0.58623171  1
  O  O204  1  0.10231663  0.37854177  0.08514579  1
  O  O205  1  0.10470908  0.37013859  0.58840841  1
  O  O206  1  0.11199545  0.86305419  0.08703588  1
  O  O207  1  0.10228987  0.87361420  0.58532957  1
  O  O208  1  0.43660421  0.37420559  0.08123247  1
  O  O209  1  0.43767685  0.37360381  0.58793065  1
  O  O210  1  0.43206025  0.87384209  0.08033222  1
  O  O211  1  0.43585049  0.86213041  0.58402144  1
  O  O212  1  0.77038329  0.36557802  0.08549764  1
  O  O213  1  0.76898403  0.38177210  0.58501489  1
  O  O214  1  0.78590932  0.88610522  0.07292451  1
  O  O215  1  0.76953879  0.87220810  0.58421702  1
  O  O216  1  0.27015439  0.39070814  0.08303490  1
  O  O217  1  0.27220542  0.37671868  0.58934158  1
  O  O218  1  0.27162287  0.87855961  0.08615987  1
  O  O219  1  0.26826895  0.87619406  0.58233260  1
  O  O220  1  0.60355180  0.38025691  0.08414696  1
  O  O221  1  0.60551818  0.39127898  0.58734046  1
  O  O222  1  0.59055861  0.88908580  0.06603705  1
  O  O223  1  0.60082864  0.87317998  0.58307246  1
  O  O224  1  0.93535975  0.36684206  0.08445011  1
  O  O225  1  0.93839576  0.37700515  0.58827186  1
  O  O226  1  0.95443191  0.90196337  0.08491912  1
  O  O227  1  0.93458969  0.86825639  0.58555646  1
  O  O228  1  0.09354184  0.11932929  0.08509243  1
  O  O229  1  0.10874642  0.12879510  0.58799317  1
  O  O230  1  0.12454741  0.64170015  0.07876131  1
  O  O231  1  0.10181510  0.62251407  0.58577676  1
  O  O232  1  0.44313029  0.13305219  0.06886314  1
  O  O233  1  0.43213953  0.12375578  0.58242610  1
  O  O234  1  0.44154274  0.63294907  0.08464370  1
  O  O235  1  0.43565938  0.63155091  0.58628089  1
  O  O236  1  0.76957278  0.13482269  0.08312759  1
  O  O237  1  0.78250357  0.12208053  0.57524928  1
  O  O238  1  0.78244407  0.61608279  0.07206450  1
  O  O239  1  0.76839092  0.62512255  0.58503689  1
  O  O240  1  0.06035560  0.09624406  0.42383707  1
  O  O241  1  0.06339431  0.13309943  0.91910853  1
  O  O242  1  0.06468978  0.62939258  0.41555532  1
  O  O243  1  0.05885906  0.58967206  0.91943239  1
  O  O244  1  0.37518866  0.09705679  0.41989132  1
  O  O245  1  0.39232647  0.10330182  0.91085616  1
  O  O246  1  0.39788711  0.62802693  0.41527622  1
  O  O247  1  0.37726153  0.60715337  0.92142165  1
  O  O248  1  0.72083022  0.10149772  0.41199167  1
  O  O249  1  0.72840527  0.11795093  0.91129416  1
  O  O250  1  0.73080116  0.62244711  0.41292996  1
  O  O251  1  0.71156320  0.61371218  0.91037686  1
  O  O252  1  0.21699082  0.35823440  0.43580202  1
  O  O253  1  0.21142969  0.35437778  0.92025923  1
  O  O254  1  0.22956650  0.86426778  0.41372926  1
  O  O255  1  0.23746609  0.86055994  0.92640285  1
  O  O256  1  0.56723177  0.36018866  0.42584548  1
  O  O257  1  0.55977257  0.35622542  0.91309323  1
  O  O258  1  0.56233798  0.85788228  0.41290500  1
  O  O259  1  0.55534715  0.85784093  0.90870794  1
  O  O260  1  0.87096775  0.36961670  0.42949709  1
  O  O261  1  0.89002981  0.37339012  0.91318251  1
  O  O262  1  0.89635523  0.86889331  0.40998801  1
  O  O263  1  0.86838348  0.86191048  0.92133968  1
  O  O264  1  0.04276306  0.40768487  0.43136504  1
  O  O265  1  0.05156638  0.38893444  0.91272580  1
  O  O266  1  0.06572428  0.87549620  0.41545945  1
  O  O267  1  0.05010152  0.90365896  0.93558953  1
  O  O268  1  0.39290404  0.38209082  0.43646092  1
  O  O269  1  0.40259567  0.39880769  0.92179773  1
  O  O270  1  0.39803937  0.87885815  0.41670494  1
  O  O271  1  0.39707741  0.87581652  0.91362332  1
  O  O272  1  0.71157734  0.40709323  0.40997401  1
  O  O273  1  0.72651972  0.37172174  0.91280778  1
  O  O274  1  0.73187685  0.87412385  0.41267338  1
  O  O275  1  0.70926155  0.89968266  0.90773591  1
  O  O276  1  0.21831359  0.12682429  0.41938206  1
  O  O277  1  0.22896235  0.14777691  0.91379056  1
  O  O278  1  0.22811637  0.64553540  0.41432371  1
  O  O279  1  0.21642119  0.63483016  0.91363149  1
  O  O280  1  0.55534441  0.14747300  0.43241908  1
  O  O281  1  0.56219774  0.12320442  0.91221304  1
  O  O282  1  0.56319291  0.63881088  0.41396499  1
  O  O283  1  0.55645314  0.66144394  0.91520318  1
  O  O284  1  0.88548099  0.12249657  0.43040357  1
  O  O285  1  0.89506117  0.13215776  0.91523236  1
  O  O286  1  0.89645193  0.63318035  0.41477085  1
  O  O287  1  0.87650666  0.62778474  0.92310639  1
  O  O288  1  0.17329856  -0.00448101  0.08698082  1
  O  O289  1  0.18504424  -0.00054202  0.58998013  1
  O  O290  1  0.17642153  0.50507082  0.08499082  1
  O  O291  1  0.18220359  0.49727761  0.58728274  1
  O  O292  1  0.50566647  0.00380520  0.08090149  1
  O  O293  1  0.50001543  -0.00774482  0.58312546  1
  O  O294  1  0.50575342  0.49870101  0.08400366  1
  O  O295  1  0.50807982  0.50352780  0.58715408  1
  O  O296  1  0.85533515  0.01402574  0.07928595  1
  O  O297  1  0.85977969  -0.00488980  0.58553930  1
  O  O298  1  0.84885100  0.48796358  0.08167908  1
  O  O299  1  0.85696913  0.50186072  0.58578738  1
  O  O300  1  0.03096593  0.25106564  0.08591275  1
  O  O301  1  0.01534616  0.24852149  0.58987876  1
  O  O302  1  -0.00798368  0.76292024  0.07924968  1
  O  O303  1  0.02340841  0.74799645  0.58458635  1
  O  O304  1  0.33465984  0.26372749  0.07360677  1
  O  O305  1  0.35102412  0.24979406  0.58724018  1
  O  O306  1  0.34685608  0.75031307  0.08604212  1
  O  O307  1  0.33867707  0.74760205  0.58398250  1
  O  O308  1  0.67443673  0.25144797  0.08218186  1
  O  O309  1  0.67316118  0.26257564  0.57617287  1
  O  O310  1  0.68063115  0.75151665  0.05875199  1
  O  O311  1  0.68352110  0.74918142  0.58466613  1
  O  O312  1  0.16534662  -0.00785745  0.41497227  1
  O  O313  1  0.16970541  0.01912281  0.92408325  1
  O  O314  1  0.16964456  0.51686580  0.42765108  1
  O  O315  1  0.17325178  0.49313496  0.91233285  1
  O  O316  1  0.50481280  -0.01271028  0.42301890  1
  O  O317  1  0.49518661  -0.00711212  0.91047314  1
  O  O318  1  0.49452828  0.51302650  0.42514347  1
  O  O319  1  0.52564348  0.49451078  0.91665530  1
  O  O320  1  0.82384287  -0.00707046  0.41778991  1
  O  O321  1  0.82435326  0.00223773  0.91366911  1
  O  O322  1  0.82609726  0.50670653  0.41846392  1
  O  O323  1  0.80488988  0.49690784  0.91301477  1
  O  O324  1  0.32692849  0.23231712  0.42518965  1
  O  O325  1  0.35539103  0.23990071  0.91831396  1
  O  O326  1  0.32915354  0.75329967  0.41445302  1
  O  O327  1  0.32780325  0.74450641  0.91453310  1
  O  O328  1  0.68807273  0.26558462  0.42014904  1
  O  O329  1  0.65641353  0.24345573  0.91292903  1
  O  O330  1  0.66294458  0.74894157  0.41369424  1
  O  O331  1  0.67587583  0.75680549  0.90573606  1
  O  O332  1  1.00101416  0.25006197  0.43799798  1
  O  O333  1  0.98071191  0.25512866  0.91381797  1
  O  O334  1  0.98555803  0.75152162  0.41396368  1
  O  O335  1  1.01430043  0.74752132  0.92931207  1
  O  O336  1  0.20544419  0.08255533  0.19423546  1
  O  O337  1  0.21612941  0.08812769  0.69621565  1
  O  O338  1  0.21333952  0.58630611  0.19466206  1
  O  O339  1  0.20910665  0.58164484  0.69610975  1
  O  O340  1  0.53196852  0.08987086  0.18818738  1
  O  O341  1  0.53505390  0.07883421  0.69043235  1
  O  O342  1  0.54273295  0.58401372  0.19207586  1
  O  O343  1  0.54383839  0.58566884  0.69475772  1
  O  O344  1  0.87619581  0.08658799  0.19397925  1
  O  O345  1  0.87805708  0.08273498  0.69347676  1
  O  O346  1  0.87793532  0.57816865  0.19051499  1
  O  O347  1  0.87398157  0.58264501  0.69495262  1
  O  O348  1  0.04501565  0.33371186  0.19551740  1
  O  O349  1  0.04334797  0.33328039  0.69696478  1
  O  O350  1  0.04418202  0.83554381  0.19309426  1
  O  O351  1  0.04348809  0.82901047  0.69487019  1
  O  O352  1  0.37585603  0.34025216  0.19046526  1
  O  O353  1  0.37959087  0.33254273  0.69641844  1
  O  O354  1  0.37818519  0.83387689  0.19393074  1
  O  O355  1  0.37336451  0.83023783  0.69369849  1
  O  O356  1  0.70724769  0.33280386  0.19528563  1
  O  O357  1  0.70914933  0.33655068  0.69242821  1
  O  O358  1  0.69897678  0.83154253  0.19128780  1
  O  O359  1  0.70831053  0.83280171  0.69332010  1
  O  O360  1  0.20998273  0.42093289  0.19444922  1
  O  O361  1  0.20897264  0.41632309  0.69664333  1
  O  O362  1  0.21113528  0.91503983  0.19637135  1
  O  O363  1  0.21423219  0.90688719  0.69470319  1
  O  O364  1  0.54074092  0.41803607  0.19374858  1
  O  O365  1  0.54166253  0.41846692  0.69643976  1
  O  O366  1  0.54230880  0.91301843  0.18694337  1
  O  O367  1  0.54085708  0.91192092  0.69178241  1
  O  O368  1  0.88079104  0.41520487  0.19489048  1
  O  O369  1  0.87619972  0.41801686  0.69516677  1
  O  O370  1  0.88356757  0.92849387  0.18897984  1
  O  O371  1  0.87457493  0.91428016  0.69488898  1
  O  O372  1  0.04522299  0.16668731  0.19673059  1
  O  O373  1  0.04561680  0.16617853  0.69744913  1
  O  O374  1  0.04939754  0.66701079  0.20159585  1
  O  O375  1  0.04461725  0.66402604  0.69539078  1
  O  O376  1  0.37236221  0.16914936  0.19857807  1
  O  O377  1  0.37743753  0.16511884  0.69427570  1
  O  O378  1  0.37937505  0.66842367  0.19546695  1
  O  O379  1  0.37230738  0.66666748  0.69479018  1
  O  O380  1  0.71377606  0.17326340  0.19406646  1
  O  O381  1  0.71314678  0.16886101  0.69727421  1
  O  O382  1  0.71187301  0.66499042  0.19661339  1
  O  O383  1  0.70880178  0.66580591  0.69420262  1
  O  O384  1  0.12151937  0.07905691  0.30766101  1
  O  O385  1  0.11896826  0.09473278  0.81020596  1
  O  O386  1  0.12819068  0.58604491  0.30821211  1
  O  O387  1  0.12351829  0.57874922  0.80599914  1
  O  O388  1  0.45494657  0.08369273  0.29981451  1
  O  O389  1  0.45944835  0.07993625  0.80255467  1
  O  O390  1  0.45818346  0.58755040  0.30645403  1
  O  O391  1  0.45487072  0.58369138  0.79900970  1
  O  O392  1  0.80389665  0.08043029  0.30883112  1
  O  O393  1  0.79647741  0.08371812  0.80392829  1
  O  O394  1  0.79435871  0.58327014  0.30391419  1
  O  O395  1  0.78644629  0.58213987  0.80566758  1
  O  O396  1  0.28636267  0.33693196  0.30223295  1
  O  O397  1  0.29098478  0.33174098  0.80033469  1
  O  O398  1  0.29255867  0.83416760  0.30414680  1
  O  O399  1  0.29039740  0.83031251  0.80785079  1
  O  O400  1  0.62059713  0.33589227  0.30736806  1
  O  O401  1  0.62462553  0.33010771  0.80296455  1
  O  O402  1  0.62472284  0.82901349  0.30224523  1
  O  O403  1  0.62121719  0.83458692  0.79951159  1
  O  O404  1  0.95902647  0.33361922  0.30492709  1
  O  O405  1  0.95361529  0.33486334  0.80409987  1
  O  O406  1  0.96735565  0.83256267  0.30301241  1
  O  O407  1  0.95218366  0.83303316  0.80168371  1
  O  O408  1  0.12250295  0.41864127  0.30163166  1
  O  O409  1  0.12203469  0.41338207  0.80604761  1
  O  O410  1  0.12497992  0.91397829  0.30430210  1
  O  O411  1  0.11698085  0.90753999  0.80593276  1
  O  O412  1  0.45443172  0.41985930  0.30000774  1
  O  O413  1  0.46154825  0.41514056  0.80731656  1
  O  O414  1  0.45537825  0.90899252  0.30614826  1
  O  O415  1  0.45583251  0.91254361  0.80180901  1
  O  O416  1  0.79593626  0.42296943  0.30871637  1
  O  O417  1  0.78690740  0.41557510  0.80328347  1
  O  O418  1  0.78796432  0.91998545  0.30265826  1
  O  O419  1  0.78743623  0.91801517  0.80455365  1
  O  O420  1  0.28291607  0.15719446  0.30953747  1
  O  O421  1  0.29550891  0.16472126  0.80558571  1
  O  O422  1  0.29330447  0.66950536  0.30420598  1
  O  O423  1  0.28830861  0.66309021  0.80687225  1
  O  O424  1  0.61344531  0.17815151  0.30035307  1
  O  O425  1  0.62019728  0.16630473  0.80258760  1
  O  O426  1  0.62404494  0.66690649  0.30265589  1
  O  O427  1  0.62209413  0.66966706  0.80240350  1
  O  O428  1  0.95659326  0.16680507  0.30201177  1
  O  O429  1  0.95541607  0.16895701  0.80571600  1
  O  O430  1  0.95711060  0.66654417  0.30392696  1
  O  O431  1  0.95378970  0.66447268  0.79995160  1
  F  F432  1  0.04779707  0.00168047  0.20310314  1
  F  F433  1  0.03365944  -0.00113417  0.70098313  1
  F  F434  1  0.04792859  0.50160012  0.20172856  1
  F  F435  1  0.04406925  0.49932161  0.70296839  1
  F  F436  1  0.36590214  -0.00035325  0.19681198  1
  F  F437  1  0.37759683  -0.00417559  0.69962983  1
  F  F438  1  0.37917076  0.50508623  0.20123343  1
  F  F439  1  0.37692321  0.49695813  0.70202854  1
  F  F440  1  0.71665433  -0.00632910  0.19386419  1
  F  F441  1  0.71397684  -0.00604082  0.69680475  1
  F  F442  1  0.71513369  0.50285034  0.19815736  1
  F  F443  1  0.71085922  0.50129556  0.70103276  1
  F  F444  1  0.20154195  0.25005557  0.20000064  1
  F  F445  1  0.21156962  0.24798174  0.70238870  1
  F  F446  1  0.21570668  0.75124089  0.20229919  1
  F  F447  1  0.21068723  0.74653372  0.70393634  1
  F  F448  1  0.54281867  0.25671518  0.19698409  1
  F  F449  1  0.54402715  0.25063182  0.69958728  1
  F  F450  1  0.54269665  0.74879275  0.19980096  1
  F  F451  1  0.54225102  0.74827730  0.69851564  1
  F  F452  1  0.88195609  0.24492864  0.19676193  1
  F  F453  1  0.88062760  0.25125862  0.70151217  1
  F  F454  1  0.88579904  0.73819502  0.19484892  1
  F  F455  1  0.87410292  0.74880729  0.69934359  1
  F  F456  1  0.28641707  -0.00348434  0.29878833  1
  F  F457  1  0.30344904  -0.00179077  0.80221232  1
  F  F458  1  0.28945234  0.50451060  0.29843863  1
  F  F459  1  0.28780473  0.49815019  0.79800213  1
  F  F460  1  0.61707592  -0.01679426  0.29876533  1
  F  F461  1  0.61759619  -0.00416491  0.79474796  1
  F  F462  1  0.61968459  0.51063199  0.29905036  1
  F  F463  1  0.62287973  0.49925375  0.79612012  1
  F  F464  1  0.95670878  -0.00207805  0.29755944  1
  F  F465  1  0.95084478  0.00159353  0.79898072  1
  F  F466  1  0.95611356  0.50352657  0.29632751  1
  F  F467  1  0.95218206  0.49797415  0.79754806  1
  F  F468  1  0.12028275  0.24916677  0.30002872  1
  F  F469  1  0.12067394  0.25091252  0.79851117  1
  F  F470  1  0.12610541  0.75276133  0.29924653  1
  F  F471  1  0.12110164  0.74563784  0.79845278  1
  F  F472  1  0.45505365  0.25453382  0.29756657  1
  F  F473  1  0.45813571  0.24639092  0.79597615  1
  F  F474  1  0.45714544  0.75025214  0.29724918  1
  F  F475  1  0.45287581  0.75039030  0.79529026  1
  F  F476  1  0.78715677  0.24812731  0.30081045  1
  F  F477  1  0.78912984  0.25294179  0.79776725  1
  F  F478  1  0.78901963  0.74054628  0.30125106  1
  F  F479  1  0.78410738  0.74956704  0.79534843  1
