# generated using pymatgen
data_K24Na3Li5Mg64Fe17Si79(O5F)48
_symmetry_space_group_name_H-M   'P 1'
_cell_length_a   16.10632484
_cell_length_b   18.61483553
_cell_length_c   20.56660313
_cell_angle_alpha   90.00847887
_cell_angle_beta   100.04633270
_cell_angle_gamma   89.99172888
_symmetry_Int_Tables_number   1
_chemical_formula_structural   K24Na3Li5Mg64Fe17Si79(O5F)48
_chemical_formula_sum   'K24 Na3 Li5 Mg64 Fe17 Si79 O240 F48'
_cell_volume   6071.66223978
_cell_formula_units_Z   1
loop_
 _symmetry_equiv_pos_site_id
 _symmetry_equiv_pos_as_xyz
  1  'x, y, z'
loop_
 _atom_site_type_symbol
 _atom_site_label
 _atom_site_symmetry_multiplicity
 _atom_site_fract_x
 _atom_site_fract_y
 _atom_site_fract_z
 _atom_site_occupancy
  K  K0  1  0.00547802  0.01016126  0.00800370  1
  K  K1  1  0.00466872  0.01660573  0.49156441  1
  K  K2  1  0.00646390  0.49738523  -0.01062928  1
  K  K3  1  -0.00314497  0.49810604  0.49912806  1
  K  K4  1  0.32797777  0.00779489  0.00469111  1
  K  K5  1  0.32815834  -0.00062917  0.49381574  1
  K  K6  1  0.33953711  0.48960991  -0.00275495  1
  K  K7  1  0.33931035  0.49965012  0.50549240  1
  K  K8  1  0.66215943  0.00256049  0.00169433  1
  K  K9  1  0.66988768  0.00364657  0.49525196  1
  K  K10  1  0.65477390  0.49895216  0.00279443  1
  K  K11  1  0.66438062  0.49752050  0.49937179  1
  K  K12  1  0.17410658  0.25384504  0.00183217  1
  K  K13  1  0.16764720  0.25197772  0.50068224  1
  K  K14  1  0.16800624  0.75271083  -0.00285483  1
  K  K15  1  0.17072237  0.73666153  0.51043832  1
  K  K16  1  0.50744765  0.26041381  0.02153430  1
  K  K17  1  0.49951976  0.25097646  0.49590592  1
  K  K18  1  0.50392530  0.73868031  -0.01200630  1
  K  K19  1  0.48851227  0.74316534  0.50759266  1
  K  K20  1  0.82750671  0.25053091  0.00465277  1
  K  K21  1  0.82731975  0.25600014  0.49176123  1
  K  K22  1  0.82527876  0.74499235  -0.00401498  1
  K  K23  1  0.83534296  0.74448186  0.50413177  1
  Na  Na24  1  0.33219206  0.74788688  0.75260112  1
  Na  Na25  1  0.00590704  0.92375595  0.24566752  1
  Na  Na26  1  0.50428740  0.33207333  0.25143085  1
  Li  Li27  1  0.16293989  0.00502501  0.24280140  1
  Li  Li28  1  0.84060871  0.49977883  0.75414716  1
  Li  Li29  1  0.50264165  0.17422298  0.24849219  1
  Li  Li30  1  0.66825820  0.40968050  0.25128543  1
  Li  Li31  1  -0.00444552  0.57699939  0.75685787  1
  Mg  Mg32  1  0.00314138  0.75205570  0.25106106  1
  Mg  Mg33  1  0.49937547  -0.00284310  0.75099591  1
  Mg  Mg34  1  0.16627617  0.50098741  0.25280849  1
  Mg  Mg35  1  0.33588379  0.24871138  0.24751626  1
  Mg  Mg36  1  0.50061809  0.49816165  0.75068105  1
  Mg  Mg37  1  -0.00226615  0.25218320  0.24858098  1
  Mg  Mg38  1  0.16533798  -0.00074128  0.74584675  1
  Mg  Mg39  1  0.16255882  0.50090023  0.75442331  1
  Mg  Mg40  1  0.33414510  0.24869268  0.74605029  1
  Mg  Mg41  1  0.50540796  0.50029570  0.25684426  1
  Mg  Mg42  1  0.82967650  0.50243708  0.25054553  1
  Mg  Mg43  1  0.83324510  -0.00246784  0.74962446  1
  Mg  Mg44  1  0.83544781  0.00350180  0.24780147  1
  Mg  Mg45  1  0.33372758  0.75255607  0.25178047  1
  Mg  Mg46  1  0.66451484  0.24943872  0.24526954  1
  Mg  Mg47  1  0.66974783  0.24994676  0.74550301  1
  Mg  Mg48  1  0.66823870  0.75434070  0.25017194  1
  Mg  Mg49  1  0.00188337  0.25029426  0.74717604  1
  Mg  Mg50  1  -0.00284762  0.74418521  0.75377761  1
  Mg  Mg51  1  0.49946798  0.00550281  0.24605526  1
  Mg  Mg52  1  0.66258064  0.74621919  0.75657218  1
  Mg  Mg53  1  -0.00226074  0.41813201  0.25185071  1
  Mg  Mg54  1  0.33126714  0.08518067  0.24566444  1
  Mg  Mg55  1  0.83279102  0.66001564  0.75618766  1
  Mg  Mg56  1  0.66601562  0.08814632  0.24789825  1
  Mg  Mg57  1  0.16340154  0.66277143  0.75422595  1
  Mg  Mg58  1  0.83439118  0.16476776  0.74535927  1
  Mg  Mg59  1  -0.00000100  0.42028271  0.75265768  1
  Mg  Mg60  1  0.49928964  0.83036544  0.75356875  1
  Mg  Mg61  1  0.83182023  0.16649389  0.24747403  1
  Mg  Mg62  1  0.49962227  0.83786296  0.24896725  1
  Mg  Mg63  1  0.00280443  0.58546560  0.25324294  1
  Mg  Mg64  1  0.66538023  0.91239115  0.75380148  1
  Mg  Mg65  1  0.16571919  0.33485654  0.74928107  1
  Mg  Mg66  1  0.16717222  0.33418897  0.25044186  1
  Mg  Mg67  1  0.16405875  0.16469534  0.74384342  1
  Mg  Mg68  1  0.33261124  0.41221927  0.74888275  1
  Mg  Mg69  1  0.00167329  0.08537203  0.24417096  1
  Mg  Mg70  1  -0.00011602  0.08374942  0.74427341  1
  Mg  Mg71  1  0.66748429  0.08211162  0.74755855  1
  Mg  Mg72  1  0.83520698  0.33584391  0.74841852  1
  Mg  Mg73  1  0.32971031  0.08285823  0.74351458  1
  Mg  Mg74  1  0.50138326  0.66848776  0.25165302  1
  Mg  Mg75  1  0.16673414  0.83781020  0.24768388  1
  Mg  Mg76  1  0.33109851  0.91420141  0.74998708  1
  Mg  Mg77  1  0.50008063  0.66227216  0.75702189  1
  Mg  Mg78  1  0.16530795  0.83044066  0.75186909  1
  Mg  Mg79  1  0.67134057  0.41557366  0.74584811  1
  Mg  Mg80  1  0.83557004  0.66927062  0.25308308  1
  Mg  Mg81  1  0.33630615  0.58441086  0.25475190  1
  Mg  Mg82  1  0.66899617  0.58059131  0.75476552  1
  Mg  Mg83  1  0.66699369  0.58491123  0.25067355  1
  Mg  Mg84  1  0.16851197  0.66615795  0.25336709  1
  Mg  Mg85  1  0.66944124  0.92011865  0.25021945  1
  Mg  Mg86  1  0.33683516  0.41570590  0.25074036  1
  Mg  Mg87  1  0.32869231  0.92112480  0.24623648  1
  Mg  Mg88  1  0.83045864  0.83033009  0.75437558  1
  Mg  Mg89  1  0.33197028  0.58185836  0.75484894  1
  Mg  Mg90  1  0.82660567  0.33687376  0.24978680  1
  Mg  Mg91  1  0.16580151  0.16462841  0.24490051  1
  Mg  Mg92  1  0.49998546  0.33252467  0.74498280  1
  Mg  Mg93  1  0.83871973  0.83761042  0.25116678  1
  Mg  Mg94  1  -0.00193749  0.91284490  0.75116575  1
  Mg  Mg95  1  0.49962411  0.16434207  0.74478534  1
  Fe  Fe96  1  0.18693981  0.08493419  0.10611283  1
  Fe  Fe97  1  0.52854980  0.42338837  0.11328626  1
  Fe  Fe98  1  0.63886073  0.83397558  0.89494276  1
  Fe  Fe99  1  0.35827241  0.33143338  0.60693622  1
  Fe  Fe100  1  0.14533103  0.58102372  0.39304922  1
  Fe  Fe101  1  0.69092123  0.16415208  0.10528744  1
  Fe  Fe102  1  0.46514678  0.42011289  0.39451490  1
  Fe  Fe103  1  0.69997346  0.33169109  0.60748900  1
  Fe  Fe104  1  0.30814271  0.66933076  0.89408502  1
  Fe  Fe105  1  0.64002885  0.33093190  0.39133801  1
  Fe  Fe106  1  0.80637711  0.42300473  0.38925433  1
  Fe  Fe107  1  0.64462090  0.65726822  0.89598244  1
  Fe  Fe108  1  0.19079381  0.08047317  0.60462030  1
  Fe  Fe109  1  0.81110292  0.08285561  0.38805563  1
  Fe  Fe110  1  0.14345742  0.41859182  0.89216996  1
  Fe  Fe111  1  0.35633125  0.66229765  0.61375665  1
  Fe  Fe112  1  0.01984051  0.17147595  0.60452925  1
  Si  Si113  1  0.35648266  0.83642086  0.61420629  1
  Si  Si114  1  0.98122189  0.83235992  0.38513605  1
  Si  Si115  1  0.35657899  0.16711253  0.10910299  1
  Si  Si116  1  0.68919535  0.82856849  0.61738134  1
  Si  Si117  1  0.69366318  0.66390196  0.61893496  1
  Si  Si118  1  0.35668708  0.83294561  0.11389506  1
  Si  Si119  1  0.30686378  0.16186444  0.88170623  1
  Si  Si120  1  0.47607102  0.08603973  0.88207141  1
  Si  Si121  1  0.02194771  0.34009768  0.11454378  1
  Si  Si122  1  0.14449609  0.91964701  0.38245441  1
  Si  Si123  1  0.64387819  0.83863710  0.38509760  1
  Si  Si124  1  0.69412822  0.83957067  0.11476926  1
  Si  Si125  1  0.47739494  0.59138281  0.38999781  1
  Si  Si126  1  0.52238364  0.08011230  0.10966074  1
  Si  Si127  1  0.69312477  0.15987987  0.61069854  1
  Si  Si128  1  0.18906765  0.91314533  0.10862960  1
  Si  Si129  1  0.47063751  0.08511386  0.38028849  1
  Si  Si130  1  0.64489015  0.33088000  0.88266456  1
  Si  Si131  1  0.19129319  0.41654047  0.11570785  1
  Si  Si132  1  0.18912348  0.41624238  0.61313463  1
  Si  Si133  1  0.85765500  0.07439693  0.61142339  1
  Si  Si134  1  0.46894874  0.92173304  0.88849523  1
  Si  Si135  1  0.97349175  0.32926964  0.88719525  1
  Si  Si136  1  0.86215804  0.91554578  0.11367694  1
  Si  Si137  1  0.30623859  0.16501645  0.38195216  1
  Si  Si138  1  0.85542348  0.90918138  0.61637969  1
  Si  Si139  1  0.18299324  0.57900284  0.61595292  1
  Si  Si140  1  0.13647152  0.91537560  0.88578953  1
  Si  Si141  1  0.97127720  0.83215687  0.88827468  1
  Si  Si142  1  0.52383619  0.91431433  0.61508155  1
  Si  Si143  1  0.81087003  0.57498014  0.89225024  1
  Si  Si144  1  0.97914503  0.17098555  0.38279801  1
  Si  Si145  1  0.47734603  0.40591377  0.88470855  1
  Si  Si146  1  0.30596932  0.84278153  0.88844790  1
  Si  Si147  1  0.97527622  0.16536675  0.88298205  1
  Si  Si148  1  0.02302879  0.33901838  0.61348144  1
  Si  Si149  1  0.97427065  0.33428835  0.38462692  1
  Si  Si150  1  0.80973173  0.59411406  0.38811172  1
  Si  Si151  1  0.35457309  0.33400849  0.11229182  1
  Si  Si152  1  0.14042492  0.41204576  0.38571951  1
  Si  Si153  1  0.64332266  0.16606220  0.88107627  1
  Si  Si154  1  0.80933191  0.92053840  0.88904506  1
  Si  Si155  1  0.85964398  0.42327757  0.11398108  1
  Si  Si156  1  0.81040518  0.08445475  0.88276779  1
  Si  Si157  1  0.52999548  0.07843663  0.61373486  1
  Si  Si158  1  0.81004105  0.41101132  0.88467593  1
  Si  Si159  1  0.85688449  0.58365061  0.62072289  1
  Si  Si160  1  0.31014262  0.32633614  0.88711918  1
  Si  Si161  1  0.02069635  0.66325283  0.62032880  1
  Si  Si162  1  0.64170342  0.67384909  0.38564847  1
  Si  Si163  1  0.02211637  0.82694970  0.61742471  1
  Si  Si164  1  0.29945757  0.32899337  0.38550195  1
  Si  Si165  1  0.85896708  0.58743282  0.11703693  1
  Si  Si166  1  0.13928215  0.58957540  0.89415382  1
  Si  Si167  1  0.52764916  0.58289785  0.61635012  1
  Si  Si168  1  0.63986675  0.16138385  0.38628050  1
  Si  Si169  1  0.97615321  0.67047590  0.38841278  1
  Si  Si170  1  0.14014279  0.08477505  0.38055746  1
  Si  Si171  1  0.86662562  0.42070293  0.61602667  1
  Si  Si172  1  0.31035516  0.84077321  0.38441813  1
  Si  Si173  1  0.31088119  0.67530510  0.38881379  1
  Si  Si174  1  0.36333218  0.15887255  0.60794553  1
  Si  Si175  1  0.19487689  0.58242505  0.11685458  1
  Si  Si176  1  0.02664526  0.82656250  0.11266654  1
  Si  Si177  1  0.02071597  0.17498463  0.10895851  1
  Si  Si178  1  0.96879107  0.66684788  0.88974639  1
  Si  Si179  1  0.81642901  0.91376807  0.38819838  1
  Si  Si180  1  0.13892073  0.08010861  0.88258765  1
  Si  Si181  1  0.52251610  0.91525567  0.11319565  1
  Si  Si182  1  0.52688866  0.59272660  0.11441160  1
  Si  Si183  1  0.02719481  0.66418396  0.11472493  1
  Si  Si184  1  0.69532876  0.67398296  0.11725418  1
  Si  Si185  1  0.86217839  0.08067848  0.10791776  1
  Si  Si186  1  0.53133950  0.41815234  0.61213365  1
  Si  Si187  1  0.35817667  0.66863949  0.11738801  1
  Si  Si188  1  0.47159378  0.57148897  0.89367238  1
  Si  Si189  1  0.47685842  0.92158112  0.38292401  1
  Si  Si190  1  0.18451469  0.91154901  0.61256756  1
  Si  Si191  1  0.69710466  0.33462791  0.10655684  1
  O  O192  1  0.27492063  0.12549887  0.06812734  1
  O  O193  1  0.29688720  0.09631674  0.57949347  1
  O  O194  1  0.27371050  0.62053218  0.08855890  1
  O  O195  1  0.25807068  0.60822201  0.57988890  1
  O  O196  1  0.59373750  0.10994094  0.07019004  1
  O  O197  1  0.61471725  0.10284133  0.58614878  1
  O  O198  1  0.60538166  0.63608921  0.08776529  1
  O  O199  1  0.61388777  0.61228909  0.58958988  1
  O  O200  1  0.93583203  0.12723697  0.07946252  1
  O  O201  1  0.93505729  0.10016983  0.57801948  1
  O  O202  1  0.93898660  0.62117904  0.08639399  1
  O  O203  1  0.93564397  0.61793270  0.58847799  1
  O  O204  1  0.10241796  0.37487778  0.08600397  1
  O  O205  1  0.11016611  0.36110939  0.58610566  1
  O  O206  1  0.10405855  0.86260426  0.08098447  1
  O  O207  1  0.10535693  0.85406806  0.58834883  1
  O  O208  1  0.42542415  0.37494712  0.07972234  1
  O  O209  1  0.45549433  0.36528162  0.57887037  1
  O  O210  1  0.43915578  0.86477838  0.08570538  1
  O  O211  1  0.43715738  0.87201672  0.58307925  1
  O  O212  1  0.77904465  0.37570648  0.08058272  1
  O  O213  1  0.79849545  0.36345479  0.57944520  1
  O  O214  1  0.76907377  0.87959413  0.08289268  1
  O  O215  1  0.77086625  0.86052865  0.58738496  1
  O  O216  1  0.26254633  0.37471101  0.08259417  1
  O  O217  1  0.26665147  0.39361490  0.57671627  1
  O  O218  1  0.27134896  0.87659604  0.08072251  1
  O  O219  1  0.27058485  0.88433265  0.58605421  1
  O  O220  1  0.61439243  0.38083051  0.07413740  1
  O  O221  1  0.61612326  0.40027814  0.58283436  1
  O  O222  1  0.60460203  0.88070719  0.08565365  1
  O  O223  1  0.60438436  0.87629161  0.58730424  1
  O  O224  1  0.94204174  0.39242412  0.08466101  1
  O  O225  1  0.95716645  0.40593061  0.59035418  1
  O  O226  1  0.93575934  0.86741513  0.08637993  1
  O  O227  1  0.93619703  0.87448641  0.58778605  1
  O  O228  1  0.09425967  0.14568161  0.07171116  1
  O  O229  1  0.11178673  0.14654247  0.56640706  1
  O  O230  1  0.10620546  0.62511199  0.08697099  1
  O  O231  1  0.09888366  0.62986756  0.58859790  1
  O  O232  1  0.43727961  0.12815651  0.08274348  1
  O  O233  1  0.45391321  0.13323986  0.58468492  1
  O  O234  1  0.44066271  0.64148207  0.08838527  1
  O  O235  1  0.45211868  0.63307575  0.57896807  1
  O  O236  1  0.77313137  0.11044893  0.06946318  1
  O  O237  1  0.77276899  0.12165754  0.58358197  1
  O  O238  1  0.77430555  0.63558856  0.08893006  1
  O  O239  1  0.77494819  0.63496506  0.58795504  1
  O  O240  1  0.06249276  0.12038105  0.41146565  1
  O  O241  1  0.06094323  0.11846643  0.91216736  1
  O  O242  1  0.04701827  0.61460002  0.42305467  1
  O  O243  1  0.05325184  0.62210446  0.92005374  1
  O  O244  1  0.38918425  0.11543962  0.41124432  1
  O  O245  1  0.39494650  0.11873703  0.91109407  1
  O  O246  1  0.40067421  0.63535772  0.41699241  1
  O  O247  1  0.39231167  0.60073171  0.92534653  1
  O  O248  1  0.71068006  0.10219681  0.41869528  1
  O  O249  1  0.72767785  0.11726021  0.90994851  1
  O  O250  1  0.72763755  0.62989124  0.41595427  1
  O  O251  1  0.73698122  0.59745414  0.93210264  1
  O  O252  1  0.20690847  0.34570362  0.40727200  1
  O  O253  1  0.24296341  0.36564250  0.92477574  1
  O  O254  1  0.23387081  0.87823682  0.41626688  1
  O  O255  1  0.22166360  0.87195757  0.91839053  1
  O  O256  1  0.54735886  0.35475734  0.42766977  1
  O  O257  1  0.56518444  0.36221732  0.91358661  1
  O  O258  1  0.56486616  0.87756188  0.41304940  1
  O  O259  1  0.54243439  0.87085497  0.92643238  1
  O  O260  1  0.89723908  0.35817349  0.41983531  1
  O  O261  1  0.88740780  0.35566688  0.91460243  1
  O  O262  1  0.89722073  0.85918130  0.41471348  1
  O  O263  1  0.89509427  0.87275532  0.91743949  1
  O  O264  1  0.05344361  0.38936643  0.41195671  1
  O  O265  1  0.05200919  0.37550695  0.92497175  1
  O  O266  1  0.06437009  0.88322122  0.41205220  1
  O  O267  1  0.05872068  0.87702397  0.91583111  1
  O  O268  1  0.36615543  0.38540270  0.42356460  1
  O  O269  1  0.40438401  0.36100588  0.91403256  1
  O  O270  1  0.39807742  0.88529102  0.41300484  1
  O  O271  1  0.37877046  0.90483638  0.91339280  1
  O  O272  1  0.71949134  0.39571156  0.43101442  1
  O  O273  1  0.72755462  0.37921300  0.91440426  1
  O  O274  1  0.73214979  0.87989518  0.41523425  1
  O  O275  1  0.73250443  0.89676822  0.92417893  1
  O  O276  1  0.22734592  0.12834397  0.41178727  1
  O  O277  1  0.22911143  0.12074419  0.91004502  1
  O  O278  1  0.23576352  0.64429593  0.42316433  1
  O  O279  1  0.21156578  0.64536515  0.92905634  1
  O  O280  1  0.55127733  0.13396942  0.41187191  1
  O  O281  1  0.56185376  0.13320998  0.90955402  1
  O  O282  1  0.56203989  0.64209502  0.41567816  1
  O  O283  1  0.55524857  0.61385026  0.92948025  1
  O  O284  1  0.90281847  0.14506498  0.41882155  1
  O  O285  1  0.89420357  0.13226750  0.91249435  1
  O  O286  1  0.88522207  0.65438040  0.41232723  1
  O  O287  1  0.89328908  0.62758420  0.92125346  1
  O  O288  1  0.17117884  -0.01052252  0.07187330  1
  O  O289  1  0.15467777  -0.01385714  0.57648585  1
  O  O290  1  0.18347918  0.50012162  0.08787467  1
  O  O291  1  0.15583216  0.49750762  0.58854754  1
  O  O292  1  0.50132721  -0.00477005  0.08172618  1
  O  O293  1  0.51119334  -0.00372677  0.58464556  1
  O  O294  1  0.51434114  0.51768465  0.07600741  1
  O  O295  1  0.50586924  0.50147480  0.58817931  1
  O  O296  1  0.86966373  -0.00416322  0.08230788  1
  O  O297  1  0.83440155  -0.00999693  0.58745585  1
  O  O298  1  0.84413866  0.50643566  0.08635075  1
  O  O299  1  0.83835215  0.50301339  0.58959253  1
  O  O300  1  0.00000187  0.25959614  0.08367065  1
  O  O301  1  -0.01504015  0.26569623  0.57799990  1
  O  O302  1  0.01600848  0.74453670  0.08117219  1
  O  O303  1  0.00216219  0.74540707  0.58852755  1
  O  O304  1  0.34898748  0.25138713  0.08153038  1
  O  O305  1  0.33722382  0.23633339  0.57494557  1
  O  O306  1  0.33890791  0.75012376  0.08771295  1
  O  O307  1  0.33933985  0.75810314  0.58122657  1
  O  O308  1  0.69006245  0.25685443  0.06850274  1
  O  O309  1  0.67018665  0.23670677  0.57751912  1
  O  O310  1  0.68936215  0.75647155  0.08770183  1
  O  O311  1  0.67331615  0.74645751  0.58843725  1
  O  O312  1  0.15294330  0.00243405  0.41148453  1
  O  O313  1  0.14559183  -0.00149045  0.91395525  1
  O  O314  1  0.17464056  0.48670980  0.42101417  1
  O  O315  1  0.15601544  0.51088319  0.92954671  1
  O  O316  1  0.48886258  0.00290368  0.41313870  1
  O  O317  1  0.49331198  0.00556945  0.91302887  1
  O  O318  1  0.49103418  0.51578546  0.42731892  1
  O  O319  1  0.48514041  0.48552974  0.91781014  1
  O  O320  1  0.83955549  -0.01059186  0.42413400  1
  O  O321  1  0.83326986  0.00431043  0.91304136  1
  O  O322  1  0.83626776  0.51871544  0.42294871  1
  O  O323  1  0.83714186  0.49082772  0.91557222  1
  O  O324  1  0.32220838  0.24600708  0.41267647  1
  O  O325  1  0.31585635  0.24192908  0.91396587  1
  O  O326  1  0.32660785  0.75966696  0.41413376  1
  O  O327  1  0.33576201  0.76685035  0.92231040  1
  O  O328  1  0.66671315  0.23710714  0.42278906  1
  O  O329  1  0.66242932  0.24749496  0.91011481  1
  O  O330  1  0.65442145  0.75678270  0.41496863  1
  O  O331  1  0.66670518  0.74698346  0.93544117  1
  O  O332  1  1.00812123  0.25292863  0.40792615  1
  O  O333  1  0.99004762  0.24542382  0.91438489  1
  O  O334  1  1.00452254  0.75196395  0.41675730  1
  O  O335  1  0.97960273  0.75077604  0.91990887  1
  O  O336  1  0.21204567  0.08579543  0.19594106  1
  O  O337  1  0.20869629  0.08137618  0.69756319  1
  O  O338  1  0.21239859  0.58508263  0.19699316  1
  O  O339  1  0.20455233  0.58027429  0.69648239  1
  O  O340  1  0.54697400  0.07671404  0.18922324  1
  O  O341  1  0.54527230  0.07866973  0.69452611  1
  O  O342  1  0.54445904  0.59209176  0.19528979  1
  O  O343  1  0.54484346  0.58140329  0.69715970  1
  O  O344  1  0.87756158  0.08410201  0.18830195  1
  O  O345  1  0.87537317  0.07790648  0.69292872  1
  O  O346  1  0.87967758  0.58879749  0.19731446  1
  O  O347  1  0.87362034  0.58627173  0.69941149  1
  O  O348  1  0.04151151  0.33796415  0.19480448  1
  O  O349  1  0.04283885  0.33282336  0.69448487  1
  O  O350  1  0.04865701  0.82450850  0.19179728  1
  O  O351  1  0.03793233  0.83091412  0.69775680  1
  O  O352  1  0.36422473  0.33397857  0.19164667  1
  O  O353  1  0.37813015  0.33043946  0.69928480  1
  O  O354  1  0.37570759  0.83506071  0.19455050  1
  O  O355  1  0.38050242  0.84109256  0.69405416  1
  O  O356  1  0.71517948  0.32952192  0.18635695  1
  O  O357  1  0.71523583  0.33019332  0.69945628  1
  O  O358  1  0.71138932  0.83789395  0.19531789  1
  O  O359  1  0.70963395  0.83181198  0.69736237  1
  O  O360  1  0.20844543  0.41810210  0.19600001  1
  O  O361  1  0.21145227  0.41401504  0.69398305  1
  O  O362  1  0.21104519  0.91136177  0.18849847  1
  O  O363  1  0.20458038  0.91381313  0.69382843  1
  O  O364  1  0.55362252  0.43135729  0.20094506  1
  O  O365  1  0.54533424  0.41501624  0.69393560  1
  O  O366  1  0.54292977  0.91589651  0.19366105  1
  O  O367  1  0.54303774  0.91635132  0.69530500  1
  O  O368  1  0.87850028  0.42178301  0.19393175  1
  O  O369  1  0.88145672  0.41424528  0.69596787  1
  O  O370  1  0.87023618  0.91694856  0.19273032  1
  O  O371  1  0.87386614  0.91110964  0.69704661  1
  O  O372  1  0.04064123  0.17277933  0.18952616  1
  O  O373  1  0.04267583  0.16600484  0.69766663  1
  O  O374  1  0.04445072  0.66714909  0.19492644  1
  O  O375  1  0.04050805  0.66715195  0.69962719  1
  O  O376  1  0.36726630  0.16586104  0.18857256  1
  O  O377  1  0.37886097  0.16269860  0.69008326  1
  O  O378  1  0.37635300  0.66941793  0.19807464  1
  O  O379  1  0.38441898  0.65505466  0.70318817  1
  O  O380  1  0.71242477  0.16608548  0.19611654  1
  O  O381  1  0.71146489  0.16151221  0.69220214  1
  O  O382  1  0.71292500  0.67378410  0.19755921  1
  O  O383  1  0.71167210  0.66691384  0.69890532  1
  O  O384  1  0.12010051  0.08775857  0.30131500  1
  O  O385  1  0.12024317  0.07932986  0.80278921  1
  O  O386  1  0.12336251  0.58481939  0.30096723  1
  O  O387  1  0.12530564  0.58422709  0.81384028  1
  O  O388  1  0.45209362  0.07923845  0.30110349  1
  O  O389  1  0.45718417  0.08388588  0.80158746  1
  O  O390  1  0.45782661  0.59076056  0.30868117  1
  O  O391  1  0.45830278  0.57504808  0.81250387  1
  O  O392  1  0.78965012  0.08193762  0.29672380  1
  O  O393  1  0.79123628  0.08229091  0.80225229  1
  O  O394  1  0.79061987  0.59134369  0.30706191  1
  O  O395  1  0.78805287  0.58363947  0.81278094  1
  O  O396  1  0.28767629  0.33234922  0.30463335  1
  O  O397  1  0.29000426  0.32871090  0.80645645  1
  O  O398  1  0.29251861  0.83757177  0.30402488  1
  O  O399  1  0.28254675  0.84297533  0.80836570  1
  O  O400  1  0.63933572  0.32915738  0.30413337  1
  O  O401  1  0.62412200  0.33024516  0.80262072  1
  O  O402  1  0.62480524  0.83769204  0.30454030  1
  O  O403  1  0.62175685  0.83349108  0.80226785  1
  O  O404  1  0.95537209  0.33599011  0.30325751  1
  O  O405  1  0.95774292  0.32948543  0.80648303  1
  O  O406  1  0.95788618  0.82907986  0.30568842  1
  O  O407  1  0.95380713  0.83257044  0.80782549  1
  O  O408  1  0.12190554  0.41748397  0.30431689  1
  O  O409  1  0.12334352  0.41434012  0.80099494  1
  O  O410  1  0.13432028  0.91565151  0.30423054  1
  O  O411  1  0.11883976  0.91561062  0.80541245  1
  O  O412  1  0.44894620  0.42714869  0.30424903  1
  O  O413  1  0.45933580  0.41056639  0.80462848  1
  O  O414  1  0.45808391  0.91829748  0.30276137  1
  O  O415  1  0.45585310  0.91776595  0.80736600  1
  O  O416  1  0.79062767  0.42205258  0.29794391  1
  O  O417  1  0.78942067  0.41079252  0.80550804  1
  O  O418  1  0.79384715  0.91593196  0.30720828  1
  O  O419  1  0.79110963  0.91655394  0.80775458  1
  O  O420  1  0.28716808  0.16672236  0.30212073  1
  O  O421  1  0.29073362  0.16416302  0.80156467  1
  O  O422  1  0.29187029  0.67078607  0.30759460  1
  O  O423  1  0.28113934  0.65807333  0.80487858  1
  O  O424  1  0.62588493  0.16375073  0.30602642  1
  O  O425  1  0.62504211  0.16439047  0.80070158  1
  O  O426  1  0.62436021  0.67476718  0.30519691  1
  O  O427  1  0.62291808  0.66236229  0.80360571  1
  O  O428  1  0.95803924  0.16857605  0.30170674  1
  O  O429  1  0.95570614  0.16320493  0.80292614  1
  O  O430  1  0.96016184  0.66936786  0.30700832  1
  O  O431  1  0.95007497  0.67111854  0.81055986  1
  F  F432  1  0.04503340  0.01332515  0.18861753  1
  F  F433  1  0.04147242  -0.00520569  0.70124222  1
  F  F434  1  0.04428613  0.50129178  0.20146251  1
  F  F435  1  0.04554770  0.50126682  0.70483553  1
  F  F436  1  0.37912085  -0.00212480  0.19610039  1
  F  F437  1  0.37957315  -0.00216339  0.70262553  1
  F  F438  1  0.37717703  0.50693923  0.20214089  1
  F  F439  1  0.37943396  0.49660647  0.70558092  1
  F  F440  1  0.71219454  -0.00331323  0.19917614  1
  F  F441  1  0.71171745  -0.00472785  0.70307167  1
  F  F442  1  0.71793092  0.51854306  0.19567810  1
  F  F443  1  0.70986894  0.50179179  0.70399574  1
  F  F444  1  0.20901591  0.25233628  0.20007080  1
  F  F445  1  0.21238132  0.24943940  0.70162871  1
  F  F446  1  0.21412469  0.74939134  0.20325677  1
  F  F447  1  0.19471729  0.74864554  0.70125687  1
  F  F448  1  0.55097418  0.24208248  0.19139782  1
  F  F449  1  0.54727779  0.24657788  0.69963847  1
  F  F450  1  0.54572145  0.75436729  0.20261005  1
  F  F451  1  0.54413479  0.74956395  0.70157603  1
  F  F452  1  0.87959714  0.25261299  0.19975588  1
  F  F453  1  0.87936153  0.24786041  0.70218610  1
  F  F454  1  0.88009720  0.75118015  0.20246259  1
  F  F455  1  0.87534598  0.74976987  0.70537690  1
  F  F456  1  0.29599434  0.00025081  0.29739000  1
  F  F457  1  0.28693707  -0.00008925  0.79620675  1
  F  F458  1  0.28654767  0.50198915  0.29813524  1
  F  F459  1  0.28728859  0.49402235  0.79841173  1
  F  F460  1  0.62001389  -0.00142408  0.29621165  1
  F  F461  1  0.62223523  0.00032935  0.79833991  1
  F  F462  1  0.62046425  0.51948637  0.30738223  1
  F  F463  1  0.62127121  0.49458785  0.79945790  1
  F  F464  1  0.95239511  0.01087068  0.29737084  1
  F  F465  1  0.95387210  -0.00148243  0.79699606  1
  F  F466  1  0.95430999  0.50358350  0.29757930  1
  F  F467  1  0.95695645  0.49441340  0.80631538  1
  F  F468  1  0.11945054  0.25017138  0.29364646  1
  F  F469  1  0.12330489  0.24768318  0.79784538  1
  F  F470  1  0.12485698  0.75148034  0.29851968  1
  F  F471  1  0.11609521  0.75231736  0.80326043  1
  F  F472  1  0.44653942  0.24099495  0.29953843  1
  F  F473  1  0.45765487  0.24442785  0.79593255  1
  F  F474  1  0.45626057  0.75477418  0.29821019  1
  F  F475  1  0.46800634  0.74959220  0.80591209  1
  F  F476  1  0.79214844  0.25011742  0.29558226  1
  F  F477  1  0.78965760  0.24281586  0.79775125  1
  F  F478  1  0.78907144  0.75530526  0.29828392  1
  F  F479  1  0.78683772  0.74986423  0.80243063  1
