# generated using pymatgen
data_K24Na3Li5Mg64Fe17Si79(O5F)48
_symmetry_space_group_name_H-M   'P 1'
_cell_length_a   16.09455796
_cell_length_b   18.58618931
_cell_length_c   20.55189511
_cell_angle_alpha   90.00078574
_cell_angle_beta   100.01521061
_cell_angle_gamma   89.99161808
_symmetry_Int_Tables_number   1
_chemical_formula_structural   K24Na3Li5Mg64Fe17Si79(O5F)48
_chemical_formula_sum   'K24 Na3 Li5 Mg64 Fe17 Si79 O240 F48'
_cell_volume   6054.13907546
_cell_formula_units_Z   1
loop_
 _symmetry_equiv_pos_site_id
 _symmetry_equiv_pos_as_xyz
  1  'x, y, z'
loop_
 _atom_site_type_symbol
 _atom_site_label
 _atom_site_symmetry_multiplicity
 _atom_site_fract_x
 _atom_site_fract_y
 _atom_site_fract_z
 _atom_site_occupancy
  K  K0  1  0.00704527  0.00219748  -0.00527758  1
  K  K1  1  0.00852552  0.00305700  0.50778548  1
  K  K2  1  -0.00267108  0.49096724  -0.00807350  1
  K  K3  1  0.00219183  0.50193617  0.50778439  1
  K  K4  1  0.33584528  0.01305311  -0.01326040  1
  K  K5  1  0.34357234  0.00644347  0.49963065  1
  K  K6  1  0.33812766  0.49516766  -0.00265052  1
  K  K7  1  0.34311824  0.50643493  0.50706006  1
  K  K8  1  0.64865004  0.00009593  -0.01142314  1
  K  K9  1  0.66418605  0.00092141  0.50453778  1
  K  K10  1  0.67155898  0.49760073  -0.01149307  1
  K  K11  1  0.66268625  0.50200977  0.50881169  1
  K  K12  1  0.17528373  0.25500920  -0.00621566  1
  K  K13  1  0.17211055  0.25036972  0.50837731  1
  K  K14  1  0.17222960  0.74100870  -0.00629631  1
  K  K15  1  0.17586638  0.75272082  0.50879963  1
  K  K16  1  0.48455520  0.24795947  -0.00321844  1
  K  K17  1  0.49448529  0.24714019  0.49920337  1
  K  K18  1  0.50235564  0.76246935  -0.01373319  1
  K  K19  1  0.49878642  0.75093233  0.51176900  1
  K  K20  1  0.82936680  0.25665029  -0.00652648  1
  K  K21  1  0.83615913  0.24517160  0.50480586  1
  K  K22  1  0.81739230  0.75195582  -0.01866474  1
  K  K23  1  0.83401835  0.75322630  0.51016962  1
  Na  Na24  1  0.16710653  0.00088049  0.75036617  1
  Na  Na25  1  0.66750441  0.57827351  0.25032836  1
  Na  Na26  1  0.66986855  0.58663903  0.75731784  1
  Li  Li27  1  0.67240358  0.74744040  0.76067773  1
  Li  Li28  1  0.33356084  0.24867710  0.24625425  1
  Li  Li29  1  0.66709603  0.08168733  0.74738844  1
  Li  Li30  1  0.16685608  0.33280434  0.74656973  1
  Li  Li31  1  0.82282679  0.66996760  0.76076115  1
  Mg  Mg32  1  -0.00373542  0.75005109  0.75347293  1
  Mg  Mg33  1  0.50291164  0.00199258  0.74889652  1
  Mg  Mg34  1  0.66817252  0.74797129  0.25093663  1
  Mg  Mg35  1  0.82985416  0.50112650  0.75109891  1
  Mg  Mg36  1  0.66802080  0.24733222  0.74964821  1
  Mg  Mg37  1  0.66425211  0.24905362  0.24730476  1
  Mg  Mg38  1  0.49828449  -0.00034125  0.24914216  1
  Mg  Mg39  1  0.16363229  0.49928867  0.74767689  1
  Mg  Mg40  1  0.00366842  0.25037672  0.74798773  1
  Mg  Mg41  1  0.16675799  0.00163324  0.25573878  1
  Mg  Mg42  1  0.00104052  0.24775542  0.24980384  1
  Mg  Mg43  1  0.33325968  0.75145728  0.74902774  1
  Mg  Mg44  1  0.50040681  0.49752404  0.24980466  1
  Mg  Mg45  1  0.16860958  0.49704593  0.24838398  1
  Mg  Mg46  1  0.33316322  0.74956129  0.25190470  1
  Mg  Mg47  1  0.50054361  0.50043194  0.74990731  1
  Mg  Mg48  1  0.33072670  0.25203879  0.74547247  1
  Mg  Mg49  1  -0.00012916  0.75066065  0.25681363  1
  Mg  Mg50  1  0.83120416  0.00050634  0.74842918  1
  Mg  Mg51  1  0.83164235  -0.00108881  0.25184980  1
  Mg  Mg52  1  0.83469456  0.49767276  0.25109715  1
  Mg  Mg53  1  0.83433932  0.66405038  0.25393697  1
  Mg  Mg54  1  0.83419983  0.16523154  0.74802626  1
  Mg  Mg55  1  0.33512522  0.58537693  0.75055797  1
  Mg  Mg56  1  0.83536693  0.83290567  0.25462256  1
  Mg  Mg57  1  0.50296914  0.66498035  0.25109785  1
  Mg  Mg58  1  0.17043628  0.16604509  0.25211256  1
  Mg  Mg59  1  0.33236793  0.08641865  0.74586692  1
  Mg  Mg60  1  0.33486030  0.91578589  0.25253507  1
  Mg  Mg61  1  0.49483520  0.16480254  0.24436481  1
  Mg  Mg62  1  0.66524354  0.41436491  0.24950339  1
  Mg  Mg63  1  0.16690396  0.83470815  0.25593175  1
  Mg  Mg64  1  0.33154793  0.41695393  0.74729689  1
  Mg  Mg65  1  0.50235901  0.66903127  0.75085843  1
  Mg  Mg66  1  0.00225695  0.08316099  0.25415726  1
  Mg  Mg67  1  0.00110214  0.58275846  0.25335569  1
  Mg  Mg68  1  0.83391597  0.33460830  0.75069432  1
  Mg  Mg69  1  0.16513875  0.16944492  0.74541028  1
  Mg  Mg70  1  0.16669625  0.66484596  0.25147206  1
  Mg  Mg71  1  0.66892700  0.41597371  0.75230009  1
  Mg  Mg72  1  0.66216170  0.08291514  0.24536257  1
  Mg  Mg73  1  0.33387868  0.08669982  0.24913530  1
  Mg  Mg74  1  0.82912622  0.82973400  0.75346124  1
  Mg  Mg75  1  0.50099292  0.16656161  0.74462958  1
  Mg  Mg76  1  0.00036449  0.91728131  0.75236539  1
  Mg  Mg77  1  0.33341056  0.91726476  0.75163783  1
  Mg  Mg78  1  0.00299538  0.41288894  0.24886487  1
  Mg  Mg79  1  0.49992831  0.33483024  0.74906168  1
  Mg  Mg80  1  -0.00048414  0.41538751  0.74744279  1
  Mg  Mg81  1  0.33507620  0.58283996  0.25032890  1
  Mg  Mg82  1  0.16582108  0.66531057  0.75119615  1
  Mg  Mg83  1  0.00059220  0.91520068  0.25744808  1
  Mg  Mg84  1  0.16796315  0.83402529  0.75308930  1
  Mg  Mg85  1  0.17247466  0.33180919  0.24793033  1
  Mg  Mg86  1  0.50259817  0.83360382  0.74923607  1
  Mg  Mg87  1  0.49418424  0.33236912  0.24854141  1
  Mg  Mg88  1  0.49989812  0.83377485  0.25062871  1
  Mg  Mg89  1  0.33341048  0.41214375  0.24924806  1
  Mg  Mg90  1  0.66518859  0.91412497  0.24987275  1
  Mg  Mg91  1  0.00216794  0.08464133  0.74635940  1
  Mg  Mg92  1  -0.00711060  0.58530023  0.75399226  1
  Mg  Mg93  1  0.83341915  0.33283490  0.24986974  1
  Mg  Mg94  1  0.83163219  0.16486332  0.24877004  1
  Mg  Mg95  1  0.66735980  0.91725506  0.75023809  1
  Fe  Fe96  1  0.14351877  0.08306055  0.88922265  1
  Fe  Fe97  1  0.97449372  0.83304875  0.39636442  1
  Fe  Fe98  1  0.35846981  0.33289673  0.10630849  1
  Fe  Fe99  1  0.30670914  0.82765285  0.89090260  1
  Fe  Fe100  1  0.36057631  0.66801742  0.61048200  1
  Fe  Fe101  1  0.35960798  0.16744416  0.60597127  1
  Fe  Fe102  1  0.18775266  0.42004022  0.10623922  1
  Fe  Fe103  1  0.80851399  0.41575907  0.89213685  1
  Fe  Fe104  1  0.47698854  0.41372659  0.88697636  1
  Fe  Fe105  1  0.81156050  0.58724854  0.89691157  1
  Fe  Fe106  1  0.47741957  0.42118835  0.39052007  1
  Fe  Fe107  1  0.02479911  0.16913506  0.60445183  1
  Fe  Fe108  1  0.64185094  0.84065875  0.88893099  1
  Fe  Fe109  1  0.14273753  0.08720173  0.39395306  1
  Fe  Fe110  1  0.52457558  0.08022993  0.10559637  1
  Fe  Fe111  1  0.31215894  0.17573969  0.38781033  1
  Fe  Fe112  1  0.47552623  0.91408831  0.39073655  1
  Si  Si113  1  0.64361284  0.32943563  0.38578358  1
  Si  Si114  1  0.69253442  0.83261194  0.61567308  1
  Si  Si115  1  0.69442474  0.67074343  0.62011981  1
  Si  Si116  1  0.47828283  0.08356561  0.38656954  1
  Si  Si117  1  0.47699122  0.58153186  0.88762593  1
  Si  Si118  1  0.85633644  0.91796196  0.11714165  1
  Si  Si119  1  0.64529561  0.16133992  0.88049218  1
  Si  Si120  1  0.35572076  0.34018653  0.60891844  1
  Si  Si121  1  0.86145160  0.58156709  0.11737537  1
  Si  Si122  1  0.01941824  0.66705884  0.61681927  1
  Si  Si123  1  0.85481272  0.58505922  0.61644783  1
  Si  Si124  1  0.63958995  0.16689141  0.38149062  1
  Si  Si125  1  0.13574922  0.41674012  0.88063248  1
  Si  Si126  1  0.64850097  0.67078759  0.38571315  1
  Si  Si127  1  0.01995110  0.33924314  0.60901339  1
  Si  Si128  1  0.47524259  0.09033414  0.88075557  1
  Si  Si129  1  0.69534890  0.82818358  0.11577240  1
  Si  Si130  1  0.35712320  0.66497262  0.11468536  1
  Si  Si131  1  0.81177691  0.57962936  0.38772300  1
  Si  Si132  1  0.30355516  0.33885027  0.88135417  1
  Si  Si133  1  0.69330616  0.33187024  0.61326937  1
  Si  Si134  1  0.31002026  0.65800624  0.88812533  1
  Si  Si135  1  0.19508785  0.08093453  0.60848116  1
  Si  Si136  1  0.81295712  0.92177644  0.88833718  1
  Si  Si137  1  0.30937865  0.17372162  0.88366282  1
  Si  Si138  1  0.69567686  0.66475590  0.11668961  1
  Si  Si139  1  0.97488192  0.83668581  0.88724400  1
  Si  Si140  1  0.14507996  0.91766865  0.39182927  1
  Si  Si141  1  0.52924122  0.58265291  0.61376520  1
  Si  Si142  1  0.86420802  0.41530824  0.11622227  1
  Si  Si143  1  0.02424101  0.32638665  0.11189354  1
  Si  Si144  1  0.64265681  0.83114297  0.38718490  1
  Si  Si145  1  0.52570034  0.90820278  0.11148827  1
  Si  Si146  1  0.97629288  0.32905321  0.88474824  1
  Si  Si147  1  0.52370339  0.58449877  0.11481639  1
  Si  Si148  1  0.18988678  0.91302069  0.11752214  1
  Si  Si149  1  0.35918921  0.84032259  0.61119589  1
  Si  Si150  1  0.69779367  0.16746791  0.61326784  1
  Si  Si151  1  0.02203237  0.67191131  0.11863420  1
  Si  Si152  1  0.02428393  0.16166193  0.11546647  1
  Si  Si153  1  0.98029299  0.67197440  0.89100255  1
  Si  Si154  1  0.80772402  0.41440885  0.38634155  1
  Si  Si155  1  0.18512998  0.58966272  0.11334429  1
  Si  Si156  1  0.35191252  0.16044106  0.10607696  1
  Si  Si157  1  0.97948134  0.66048339  0.39232678  1
  Si  Si158  1  0.46966345  0.92434015  0.88775671  1
  Si  Si159  1  0.96556453  0.16541775  0.38633577  1
  Si  Si160  1  0.14458083  0.57711090  0.38617090  1
  Si  Si161  1  0.02224115  0.83542404  0.11896505  1
  Si  Si162  1  0.97373462  0.16540248  0.88522536  1
  Si  Si163  1  0.53190691  0.08476897  0.61045698  1
  Si  Si164  1  0.13985122  0.58171676  0.88596470  1
  Si  Si165  1  0.35596268  0.83042116  0.11534101  1
  Si  Si166  1  0.97294833  0.33175611  0.38527837  1
  Si  Si167  1  0.69639851  0.16928484  0.11019234  1
  Si  Si168  1  0.13966270  0.91102368  0.89053998  1
  Si  Si169  1  0.64009378  0.32384399  0.88765514  1
  Si  Si170  1  0.19027099  0.91415007  0.61534573  1
  Si  Si171  1  0.52825675  0.91950695  0.61352606  1
  Si  Si172  1  0.80052380  0.08379511  0.38294930  1
  Si  Si173  1  0.52899360  0.41610237  0.61368453  1
  Si  Si174  1  0.30997430  0.66309428  0.38588150  1
  Si  Si175  1  0.81172978  0.08473655  0.88218527  1
  Si  Si176  1  0.02415866  0.83279044  0.61740162  1
  Si  Si177  1  0.85591241  0.42114799  0.61294060  1
  Si  Si178  1  0.85851687  0.07981752  0.61036767  1
  Si  Si179  1  0.18897576  0.42137103  0.61310509  1
  Si  Si180  1  0.30292635  0.82926146  0.38905326  1
  Si  Si181  1  0.18554798  0.58612367  0.61209872  1
  Si  Si182  1  0.80231108  0.91845390  0.38845072  1
  Si  Si183  1  0.63267730  0.67203917  0.89238163  1
  Si  Si184  1  0.30896987  0.34301821  0.38925579  1
  Si  Si185  1  0.18901120  0.07787781  0.11486834  1
  Si  Si186  1  0.13946039  0.41165681  0.38563559  1
  Si  Si187  1  0.53179990  0.41784701  0.11078352  1
  Si  Si188  1  0.48395050  0.59029497  0.38876602  1
  Si  Si189  1  0.69711492  0.33597644  0.11449484  1
  Si  Si190  1  0.85657061  0.91426261  0.61638624  1
  Si  Si191  1  0.85979395  0.08234918  0.11559755  1
  O  O192  1  0.26632655  0.10875632  0.08223290  1
  O  O193  1  0.27614448  0.09971583  0.57408170  1
  O  O194  1  0.26885226  0.62239629  0.08583923  1
  O  O195  1  0.25560991  0.62321825  0.57564921  1
  O  O196  1  0.61706714  0.12375906  0.07380529  1
  O  O197  1  0.61374098  0.12110084  0.58322042  1
  O  O198  1  0.60396697  0.62605223  0.09009326  1
  O  O199  1  0.60990630  0.62300530  0.58847268  1
  O  O200  1  0.94286867  0.10972379  0.08638725  1
  O  O201  1  0.93014068  0.11024594  0.57178214  1
  O  O202  1  0.93966600  0.62170175  0.08983492  1
  O  O203  1  0.93260425  0.62329507  0.58495376  1
  O  O204  1  0.09740913  0.35539016  0.07512513  1
  O  O205  1  0.10181474  0.37739236  0.58248690  1
  O  O206  1  0.10379557  0.86598570  0.08904914  1
  O  O207  1  0.10392335  0.86573270  0.58637576  1
  O  O208  1  0.45659358  0.36787104  0.07504319  1
  O  O209  1  0.43587062  0.38221797  0.58287885  1
  O  O210  1  0.43709720  0.86238221  0.08664078  1
  O  O211  1  0.43617633  0.88387765  0.58304168  1
  O  O212  1  0.77805777  0.37119805  0.08714952  1
  O  O213  1  0.76938663  0.37457037  0.58351281  1
  O  O214  1  0.77172992  0.87092245  0.08755256  1
  O  O215  1  0.77125645  0.86867323  0.58330083  1
  O  O216  1  0.27635855  0.39668703  0.06563394  1
  O  O217  1  0.26967681  0.38967176  0.58227525  1
  O  O218  1  0.26893120  0.87614230  0.08799977  1
  O  O219  1  0.26935535  0.88306364  0.58187992  1
  O  O220  1  0.61848646  0.38845817  0.08536154  1
  O  O221  1  0.60280333  0.37117972  0.58324069  1
  O  O222  1  0.60302303  0.86241579  0.08611094  1
  O  O223  1  0.60362385  0.87518976  0.58469803  1
  O  O224  1  0.93838797  0.37512193  0.08535485  1
  O  O225  1  0.93569173  0.39101633  0.58019087  1
  O  O226  1  0.93909975  0.88512298  0.08982287  1
  O  O227  1  0.93732466  0.87802781  0.58749206  1
  O  O228  1  0.10329189  0.12529151  0.08644706  1
  O  O229  1  0.11587481  0.12927212  0.57203862  1
  O  O230  1  0.10727617  0.64870881  0.09041788  1
  O  O231  1  0.09476561  0.62841055  0.58494773  1
  O  O232  1  0.42446011  0.12591833  0.06847494  1
  O  O233  1  0.45211260  0.12921071  0.57234716  1
  O  O234  1  0.43520942  0.62809572  0.08403312  1
  O  O235  1  0.44409552  0.61929555  0.57268841  1
  O  O236  1  0.78245174  0.13668295  0.08580846  1
  O  O237  1  0.77280663  0.12761430  0.58151346  1
  O  O238  1  0.77096121  0.62043572  0.08819775  1
  O  O239  1  0.77058897  0.63197774  0.58590849  1
  O  O240  1  0.03668414  0.11046329  0.41978559  1
  O  O241  1  0.04516555  0.11137755  0.92246677  1
  O  O242  1  0.06430676  0.60954057  0.41660332  1
  O  O243  1  0.06665047  0.62271854  0.91892983  1
  O  O244  1  0.39889201  0.10852231  0.41913532  1
  O  O245  1  0.40173661  0.13407973  0.91013174  1
  O  O246  1  0.39888328  0.62243559  0.41490975  1
  O  O247  1  0.38688443  0.60060902  0.91280706  1
  O  O248  1  0.71656303  0.11061058  0.41126022  1
  O  O249  1  0.72517473  0.10771287  0.91000254  1
  O  O250  1  0.72937526  0.61642683  0.41288800  1
  O  O251  1  0.71041261  0.61903462  0.92385917  1
  O  O252  1  0.21831600  0.36118713  0.41725878  1
  O  O253  1  0.21693940  0.36587437  0.90776971  1
  O  O254  1  0.21464022  0.85189649  0.41341352  1
  O  O255  1  0.20717400  0.84985468  0.92264133  1
  O  O256  1  0.56792484  0.35644083  0.42158636  1
  O  O257  1  0.55438360  0.33988004  0.91693401  1
  O  O258  1  0.56116157  0.84567432  0.42082232  1
  O  O259  1  0.55454868  0.88454035  0.92509261  1
  O  O260  1  0.89430896  0.36908094  0.41493128  1
  O  O261  1  0.90029152  0.35261209  0.92171013  1
  O  O262  1  0.87645830  0.86705951  0.42546727  1
  O  O263  1  0.89300299  0.86711933  0.91714309  1
  O  O264  1  0.05634799  0.38041002  0.41433882  1
  O  O265  1  0.05770642  0.38187548  0.91195914  1
  O  O266  1  0.06275141  0.89732542  0.42438223  1
  O  O267  1  0.05027813  0.89206972  0.91842917  1
  O  O268  1  0.37384881  0.40743671  0.41906190  1
  O  O269  1  0.37684710  0.39166584  0.91789882  1
  O  O270  1  0.37942073  0.87976747  0.42333730  1
  O  O271  1  0.39136834  0.89472860  0.92113149  1
  O  O272  1  0.72987210  0.37731096  0.41501468  1
  O  O273  1  0.71526901  0.37551162  0.92403706  1
  O  O274  1  0.71460981  0.89304414  0.41335471  1
  O  O275  1  0.73708813  0.89831503  0.92562129  1
  O  O276  1  0.21660455  0.15890661  0.42492409  1
  O  O277  1  0.24048801  0.13849542  0.92261624  1
  O  O278  1  0.23194511  0.62195649  0.41388052  1
  O  O279  1  0.22795669  0.62332745  0.91646219  1
  O  O280  1  0.55645151  0.14277536  0.41083379  1
  O  O281  1  0.56476596  0.13037700  0.91171383  1
  O  O282  1  0.56408084  0.64636833  0.41553283  1
  O  O283  1  0.54501312  0.64361826  0.91876938  1
  O  O284  1  0.87561865  0.14145097  0.41003278  1
  O  O285  1  0.88476962  0.14398692  0.91265959  1
  O  O286  1  0.89995390  0.62078027  0.42079526  1
  O  O287  1  0.90683483  0.64705291  0.93012188  1
  O  O288  1  0.17122573  -0.00573536  0.08729145  1
  O  O289  1  0.16804642  -0.00452151  0.58810923  1
  O  O290  1  0.15387084  0.51564687  0.07765830  1
  O  O291  1  0.16987149  0.50330548  0.58273103  1
  O  O292  1  0.51840128  -0.01582874  0.07393459  1
  O  O293  1  0.52895016  0.00062818  0.58203295  1
  O  O294  1  0.51875590  0.50277022  0.08429171  1
  O  O295  1  0.53213138  0.49839391  0.58529296  1
  O  O296  1  0.83972511  -0.00007379  0.08756966  1
  O  O297  1  0.83971525  -0.00457688  0.58501297  1
  O  O298  1  0.85627483  0.49872812  0.08996011  1
  O  O299  1  0.83975007  0.50354988  0.58274648  1
  O  O300  1  0.00139189  0.24257763  0.08605403  1
  O  O301  1  0.00200068  0.26367644  0.57024985  1
  O  O302  1  -0.00015854  0.75380756  0.09076863  1
  O  O303  1  0.00837943  0.75006543  0.58805243  1
  O  O304  1  0.32817944  0.23931925  0.07465741  1
  O  O305  1  0.34120354  0.26303587  0.57298422  1
  O  O306  1  0.34206567  0.74781896  0.08645334  1
  O  O307  1  0.35115807  0.76236184  0.57519362  1
  O  O308  1  0.68733553  0.25396116  0.08447162  1
  O  O309  1  0.68922741  0.25005916  0.58133224  1
  O  O310  1  0.69425680  0.74641325  0.08552963  1
  O  O311  1  0.68138166  0.75117916  0.58325526  1
  O  O312  1  0.18422642  -0.00637216  0.42028873  1
  O  O313  1  0.17009194  -0.01100678  0.92137230  1
  O  O314  1  0.15676432  0.49458028  0.41443994  1
  O  O315  1  0.14945047  0.49839790  0.91354356  1
  O  O316  1  0.51389491  0.00632931  0.41819411  1
  O  O317  1  0.48106855  0.00991123  0.91268235  1
  O  O318  1  0.51110808  0.51456835  0.42387686  1
  O  O319  1  0.51068403  0.50558671  0.92096319  1
  O  O320  1  0.82223424  0.00281815  0.41285928  1
  O  O321  1  0.84235078  0.00507386  0.91333132  1
  O  O322  1  0.82001226  0.49656705  0.41681075  1
  O  O323  1  0.83564711  0.49926060  0.93974916  1
  O  O324  1  0.34781798  0.26779493  0.42007900  1
  O  O325  1  0.32334093  0.25698886  0.91118621  1
  O  O326  1  0.31802231  0.74485524  0.41513251  1
  O  O327  1  0.33433327  0.73377640  0.92524328  1
  O  O328  1  0.67069199  0.24639226  0.41106088  1
  O  O329  1  0.67078391  0.24061342  0.91238912  1
  O  O330  1  0.68067961  0.75090495  0.41400670  1
  O  O331  1  0.65268926  0.74988871  0.92948938  1
  O  O332  1  0.98295291  0.24939013  0.41348680  1
  O  O333  1  1.00301293  0.24706190  0.91147218  1
  O  O334  1  0.99741899  0.73745239  0.42775334  1
  O  O335  1  1.00333562  0.75627495  0.91669331  1
  O  O336  1  0.20738985  0.07847007  0.19474213  1
  O  O337  1  0.21508055  0.09104122  0.68825274  1
  O  O338  1  0.20745757  0.58641873  0.19450213  1
  O  O339  1  0.20552349  0.58540475  0.69289035  1
  O  O340  1  0.54405617  0.08063162  0.19759531  1
  O  O341  1  0.54157807  0.08416430  0.69011542  1
  O  O342  1  0.53382955  0.58332963  0.19425004  1
  O  O343  1  0.53383139  0.58280054  0.69274194  1
  O  O344  1  0.87631672  0.08190374  0.19627798  1
  O  O345  1  0.87592264  0.08320966  0.69094332  1
  O  O346  1  0.87934066  0.58256480  0.19810861  1
  O  O347  1  0.87831181  0.57932793  0.69496451  1
  O  O348  1  0.04116253  0.33055446  0.19308958  1
  O  O349  1  0.03426130  0.33605886  0.68878066  1
  O  O350  1  0.04328423  0.83397841  0.19936706  1
  O  O351  1  0.04280516  0.83284326  0.69735617  1
  O  O352  1  0.37668916  0.33366605  0.19736981  1
  O  O353  1  0.37452476  0.33616844  0.68931139  1
  O  O354  1  0.37367409  0.83022965  0.19576884  1
  O  O355  1  0.37727972  0.83733604  0.69169758  1
  O  O356  1  0.71273916  0.33220219  0.19521752  1
  O  O357  1  0.71051655  0.33042821  0.69314143  1
  O  O358  1  0.71303030  0.83104841  0.19656507  1
  O  O359  1  0.71358382  0.83877683  0.69432108  1
  O  O360  1  0.20954631  0.41761082  0.19897324  1
  O  O361  1  0.20908812  0.42198331  0.69252116  1
  O  O362  1  0.20869834  0.91344458  0.19806661  1
  O  O363  1  0.21248144  0.90849995  0.69429497  1
  O  O364  1  0.54701301  0.41675598  0.19173792  1
  O  O365  1  0.54673965  0.41389552  0.69350937  1
  O  O366  1  0.54509383  0.91193679  0.19245532  1
  O  O367  1  0.54329146  0.91940809  0.69327796  1
  O  O368  1  0.88071369  0.41440403  0.19694094  1
  O  O369  1  0.87647851  0.41708147  0.69266203  1
  O  O370  1  0.87448568  0.91683354  0.19754772  1
  O  O371  1  0.87484605  0.91487172  0.69628565  1
  O  O372  1  0.03944217  0.16391859  0.19566386  1
  O  O373  1  0.04072743  0.16922518  0.69528102  1
  O  O374  1  0.04102320  0.66797169  0.19949785  1
  O  O375  1  0.03930165  0.66613684  0.69681327  1
  O  O376  1  0.37829887  0.15764745  0.18640542  1
  O  O377  1  0.37919297  0.16917539  0.69731196  1
  O  O378  1  0.37580689  0.66613256  0.19540801  1
  O  O379  1  0.37588447  0.66756148  0.70164449  1
  O  O380  1  0.71106733  0.16654014  0.19146408  1
  O  O381  1  0.71537605  0.17058903  0.69258664  1
  O  O382  1  0.71716934  0.67066260  0.19610611  1
  O  O383  1  0.71452414  0.67631932  0.69749639  1
  O  O384  1  0.12061874  0.08416478  0.30084463  1
  O  O385  1  0.11826372  0.09227540  0.79997203  1
  O  O386  1  0.12435729  0.58116453  0.30554823  1
  O  O387  1  0.12109582  0.58340904  0.80538597  1
  O  O388  1  0.45811386  0.08206068  0.30496482  1
  O  O389  1  0.45944000  0.08676401  0.80093245  1
  O  O390  1  0.46071267  0.58676722  0.30773356  1
  O  O391  1  0.45799284  0.58195022  0.80664176  1
  O  O392  1  0.78560224  0.08263397  0.30207763  1
  O  O393  1  0.79574887  0.08376938  0.80254224  1
  O  O394  1  0.80247975  0.57993872  0.30843391  1
  O  O395  1  0.80430967  0.57960985  0.80905789  1
  O  O396  1  0.28528723  0.34130809  0.30891554  1
  O  O397  1  0.29240639  0.33633502  0.80144704  1
  O  O398  1  0.28977671  0.83067960  0.30751303  1
  O  O399  1  0.28905455  0.83146498  0.79943174  1
  O  O400  1  0.62608842  0.33126534  0.30468053  1
  O  O401  1  0.62513931  0.32860738  0.80598416  1
  O  O402  1  0.62472806  0.83195053  0.30566097  1
  O  O403  1  0.62089268  0.83833347  0.79884750  1
  O  O404  1  0.95559193  0.33226335  0.30459614  1
  O  O405  1  0.95697044  0.33241264  0.80373331  1
  O  O406  1  0.95466832  0.83233782  0.30371277  1
  O  O407  1  0.95573226  0.83532962  0.80692177  1
  O  O408  1  0.12012523  0.41486062  0.30520352  1
  O  O409  1  0.11766205  0.42132661  0.80118853  1
  O  O410  1  0.12348359  0.91612162  0.30941461  1
  O  O411  1  0.11841021  0.90787806  0.80997992  1
  O  O412  1  0.45650046  0.41796235  0.29897305  1
  O  O413  1  0.45329614  0.41668092  0.79533967  1
  O  O414  1  0.45594631  0.91446983  0.29845585  1
  O  O415  1  0.45682994  0.91917679  0.80660219  1
  O  O416  1  0.79213220  0.41460280  0.30590960  1
  O  O417  1  0.78994585  0.41466971  0.79992153  1
  O  O418  1  0.78866126  0.91593293  0.30701499  1
  O  O419  1  0.79269710  0.91916594  0.80772278  1
  O  O420  1  0.28923706  0.16632562  0.29670401  1
  O  O421  1  0.28882539  0.16988619  0.80328325  1
  O  O422  1  0.29022795  0.66471124  0.30506984  1
  O  O423  1  0.28727024  0.66394990  0.80743516  1
  O  O424  1  0.62554705  0.16619282  0.30112433  1
  O  O425  1  0.62332172  0.16608385  0.80097697  1
  O  O426  1  0.62369917  0.67219182  0.30632814  1
  O  O427  1  0.61333391  0.67508721  0.81285828  1
  O  O428  1  0.95192557  0.16669914  0.30497942  1
  O  O429  1  0.95461555  0.16587726  0.80438803  1
  O  O430  1  0.95944964  0.66350001  0.31099604  1
  O  O431  1  0.96408910  0.66862908  0.81098463  1
  F  F432  1  0.04224397  -0.00427895  0.20446414  1
  F  F433  1  0.03101944  -0.00350836  0.69646900  1
  F  F434  1  0.04404855  0.50058507  0.20311932  1
  F  F435  1  0.04190087  0.50369840  0.69992115  1
  F  F436  1  0.37575214  -0.00210464  0.20044809  1
  F  F437  1  0.38120855  -0.00041273  0.70041730  1
  F  F438  1  0.37787721  0.50412210  0.20148567  1
  F  F439  1  0.37524166  0.50312149  0.69904667  1
  F  F440  1  0.71265333  -0.00318891  0.20051769  1
  F  F441  1  0.71411065  -0.00322578  0.69930103  1
  F  F442  1  0.72056173  0.48879014  0.19922183  1
  F  F443  1  0.71364063  0.49053975  0.69567593  1
  F  F444  1  0.19928227  0.24834759  0.19725386  1
  F  F445  1  0.21258634  0.25052451  0.69652857  1
  F  F446  1  0.21025354  0.75030778  0.20491572  1
  F  F447  1  0.20796144  0.74666873  0.70093162  1
  F  F448  1  0.54723929  0.25011907  0.19805163  1
  F  F449  1  0.54746595  0.25164239  0.69895105  1
  F  F450  1  0.54589866  0.74939684  0.20184670  1
  F  F451  1  0.53105717  0.75034761  0.69533831  1
  F  F452  1  0.87820954  0.24913798  0.20159823  1
  F  F453  1  0.87826548  0.25087994  0.70106123  1
  F  F454  1  0.88000060  0.74687042  0.20514817  1
  F  F455  1  0.88227662  0.75607299  0.70164864  1
  F  F456  1  0.28910699  -0.00163157  0.29735065  1
  F  F457  1  0.30182641  0.00381402  0.79949488  1
  F  F458  1  0.28700678  0.50529370  0.29830542  1
  F  F459  1  0.28469368  0.50235075  0.79516989  1
  F  F460  1  0.62345171  -0.00274197  0.29600413  1
  F  F461  1  0.62067009  -0.00053926  0.79746525  1
  F  F462  1  0.61928206  0.48953108  0.30121706  1
  F  F463  1  0.61638253  0.48936321  0.80084868  1
  F  F464  1  0.95122037  0.00020735  0.29995756  1
  F  F465  1  0.95273264  0.00124695  0.79661371  1
  F  F466  1  0.95697200  0.49677719  0.29938167  1
  F  F467  1  0.95619030  0.49704830  0.79779034  1
  F  F468  1  0.11795546  0.25139905  0.29742362  1
  F  F469  1  0.12138044  0.25313412  0.79517474  1
  F  F470  1  0.12255037  0.74753060  0.30109277  1
  F  F471  1  0.12038447  0.74773755  0.79776484  1
  F  F472  1  0.46351025  0.24592147  0.29593851  1
  F  F473  1  0.45539095  0.25171907  0.79412976  1
  F  F474  1  0.45428008  0.74855821  0.29702414  1
  F  F475  1  0.45213151  0.75498076  0.79910076  1
  F  F476  1  0.78753979  0.24894914  0.29626148  1
  F  F477  1  0.78963085  0.24913933  0.79693922  1
  F  F478  1  0.79001749  0.74843309  0.30114969  1
  F  F479  1  0.79348283  0.75614559  0.80931812  1
