# generated using pymatgen
data_K24Na3Li5Mg64Fe17Si79(O5F)48
_symmetry_space_group_name_H-M   'P 1'
_cell_length_a   16.08352894
_cell_length_b   18.56409441
_cell_length_c   20.53860797
_cell_angle_alpha   90.00145275
_cell_angle_beta   100.00276263
_cell_angle_gamma   89.99291332
_symmetry_Int_Tables_number   1
_chemical_formula_structural   K24Na3Li5Mg64Fe17Si79(O5F)48
_chemical_formula_sum   'K24 Na3 Li5 Mg64 Fe17 Si79 O240 F48'
_cell_volume   6039.12309003
_cell_formula_units_Z   1
loop_
 _symmetry_equiv_pos_site_id
 _symmetry_equiv_pos_as_xyz
  1  'x, y, z'
loop_
 _atom_site_type_symbol
 _atom_site_label
 _atom_site_symmetry_multiplicity
 _atom_site_fract_x
 _atom_site_fract_y
 _atom_site_fract_z
 _atom_site_occupancy
  K  K0  1  -0.00784632  -0.00221610  -0.00710661  1
  K  K1  1  0.00820757  0.00364472  0.50478245  1
  K  K2  1  -0.00323109  0.50017786  0.00100608  1
  K  K3  1  -0.00136373  0.48805774  0.49667632  1
  K  K4  1  0.33792392  -0.00332400  0.00457776  1
  K  K5  1  0.34024586  0.00773481  0.49383982  1
  K  K6  1  0.32604422  0.49836414  0.00298857  1
  K  K7  1  0.33421104  0.50359755  0.49581093  1
  K  K8  1  0.65876557  0.00395298  0.00338210  1
  K  K9  1  0.66403645  -0.00093756  0.49535439  1
  K  K10  1  0.67540853  0.50140760  0.00382814  1
  K  K11  1  0.67127348  0.49763389  0.49641621  1
  K  K12  1  0.16810408  0.25280827  -0.00033494  1
  K  K13  1  0.16156722  0.25133553  0.50317299  1
  K  K14  1  0.16525854  0.75151561  0.00352600  1
  K  K15  1  0.16763710  0.74806157  0.49506258  1
  K  K16  1  0.50007856  0.25205580  0.00024638  1
  K  K17  1  0.48916393  0.25050287  0.49511896  1
  K  K18  1  0.50490519  0.74764246  0.00748711  1
  K  K19  1  0.49528902  0.75432141  0.49067826  1
  K  K20  1  0.84204387  0.25273211  -0.00185736  1
  K  K21  1  0.83880475  0.25866287  0.50746947  1
  K  K22  1  0.82980387  0.73752019  -0.00164587  1
  K  K23  1  0.83277517  0.74712767  0.49875106  1
  Na  Na24  1  0.33108861  0.74895358  0.74827599  1
  Na  Na25  1  0.00023370  0.41919573  0.24946242  1
  Na  Na26  1  0.83607037  0.33336475  0.75129895  1
  Li  Li27  1  0.83439449  0.49681628  0.75652555  1
  Li  Li28  1  0.32973117  0.74741881  0.24892889  1
  Li  Li29  1  0.17346068  0.66794649  0.24759645  1
  Li  Li30  1  0.00078700  0.91561247  0.75661467  1
  Li  Li31  1  0.66669455  0.58485092  0.24826036  1
  Mg  Mg32  1  0.66755071  0.25013751  0.75001063  1
  Mg  Mg33  1  0.33189384  0.25028844  0.74875067  1
  Mg  Mg34  1  0.83346695  0.00035618  0.24546478  1
  Mg  Mg35  1  0.66780818  0.74686548  0.24781008  1
  Mg  Mg36  1  0.66542418  0.74804939  0.75200368  1
  Mg  Mg37  1  0.49966623  0.50125412  0.75154123  1
  Mg  Mg38  1  0.00100391  0.24822714  0.74665334  1
  Mg  Mg39  1  -0.00003132  0.25007737  0.24797978  1
  Mg  Mg40  1  0.83263637  0.50150645  0.25202338  1
  Mg  Mg41  1  0.83626100  -0.00117503  0.75185177  1
  Mg  Mg42  1  0.50190287  -0.00120370  0.24955503  1
  Mg  Mg43  1  0.50107217  0.50253831  0.25363398  1
  Mg  Mg44  1  0.16341454  -0.00294981  0.74932411  1
  Mg  Mg45  1  -0.00334478  0.75234141  0.75417423  1
  Mg  Mg46  1  0.16972375  -0.00050371  0.25204896  1
  Mg  Mg47  1  0.33283903  0.25180902  0.25378983  1
  Mg  Mg48  1  0.16724869  0.50331441  0.24982925  1
  Mg  Mg49  1  0.49841294  -0.00038164  0.74637131  1
  Mg  Mg50  1  0.66661159  0.25271955  0.24890715  1
  Mg  Mg51  1  0.16426306  0.50016020  0.74894210  1
  Mg  Mg52  1  0.00440205  0.74993034  0.25205473  1
  Mg  Mg53  1  0.16233783  0.83270038  0.75145457  1
  Mg  Mg54  1  0.49991861  0.33647083  0.25493470  1
  Mg  Mg55  1  0.50084512  0.16537971  0.25023470  1
  Mg  Mg56  1  0.67075376  0.41762701  0.75126470  1
  Mg  Mg57  1  0.33252945  0.41917902  0.25356629  1
  Mg  Mg58  1  0.33158698  0.41578261  0.74916309  1
  Mg  Mg59  1  0.33684604  0.08493843  0.25367601  1
  Mg  Mg60  1  0.66777561  0.91597356  0.75112667  1
  Mg  Mg61  1  0.66455133  0.08463935  0.24450721  1
  Mg  Mg62  1  0.33677440  0.91247568  0.25139417  1
  Mg  Mg63  1  0.16497764  0.33350850  0.74793410  1
  Mg  Mg64  1  0.16548599  0.16362399  0.74753130  1
  Mg  Mg65  1  0.50100658  0.66641461  0.75117791  1
  Mg  Mg66  1  0.00035914  0.91571727  0.24857938  1
  Mg  Mg67  1  0.16586197  0.33681317  0.25132173  1
  Mg  Mg68  1  0.83198113  0.83262629  0.24582191  1
  Mg  Mg69  1  0.66981142  0.58218152  0.75190993  1
  Mg  Mg70  1  0.83247783  0.66397376  0.25028372  1
  Mg  Mg71  1  0.83729902  0.16613974  0.74973756  1
  Mg  Mg72  1  0.16307819  0.66723910  0.74929989  1
  Mg  Mg73  1  0.83415238  0.33624658  0.25162080  1
  Mg  Mg74  1  0.49669325  0.16625303  0.74703975  1
  Mg  Mg75  1  0.66763758  0.08484494  0.74900114  1
  Mg  Mg76  1  0.83286066  0.66336598  0.75463717  1
  Mg  Mg77  1  0.00360730  0.58529633  0.25044640  1
  Mg  Mg78  1  0.33118440  0.91348954  0.74844327  1
  Mg  Mg79  1  0.16901064  0.16640617  0.25088022  1
  Mg  Mg80  1  0.33193800  0.58813724  0.25136807  1
  Mg  Mg81  1  0.66857791  0.42123730  0.25446598  1
  Mg  Mg82  1  -0.00310122  0.41529589  0.74890491  1
  Mg  Mg83  1  -0.00086566  0.08296107  0.24744806  1
  Mg  Mg84  1  0.33221879  0.58521291  0.74995645  1
  Mg  Mg85  1  0.49808601  0.83386379  0.24849986  1
  Mg  Mg86  1  0.83232739  0.16590518  0.24385496  1
  Mg  Mg87  1  -0.00557781  0.58259593  0.75207351  1
  Mg  Mg88  1  0.83575772  0.83436751  0.75346417  1
  Mg  Mg89  1  0.17096056  0.82968591  0.25253339  1
  Mg  Mg90  1  0.00120982  0.08203348  0.74930273  1
  Mg  Mg91  1  0.33072212  0.08382782  0.74487640  1
  Mg  Mg92  1  0.50000489  0.83258604  0.74962037  1
  Mg  Mg93  1  0.50026325  0.66742631  0.25023276  1
  Mg  Mg94  1  0.66437414  0.91481706  0.24617472  1
  Mg  Mg95  1  0.49952300  0.33509679  0.74996595  1
  Fe  Fe96  1  0.98119609  0.16570884  0.89063079  1
  Fe  Fe97  1  0.47759037  0.91383071  0.39160793  1
  Fe  Fe98  1  0.35752629  0.16871243  0.60815055  1
  Fe  Fe99  1  0.85825303  0.08106285  0.10627124  1
  Fe  Fe100  1  0.52487684  0.08921082  0.10688766  1
  Fe  Fe101  1  0.63771874  0.66852791  0.89046571  1
  Fe  Fe102  1  0.80854547  0.57462513  0.89222812  1
  Fe  Fe103  1  0.97620038  0.83663778  0.89303953  1
  Fe  Fe104  1  0.18625806  0.41915119  0.11034626  1
  Fe  Fe105  1  0.47700137  0.42148146  0.39286380  1
  Fe  Fe106  1  0.02288133  0.33849043  0.60556561  1
  Fe  Fe107  1  0.30885851  0.33319875  0.88895661  1
  Fe  Fe108  1  0.52496519  0.91587860  0.10613569  1
  Fe  Fe109  1  0.68949519  0.65799933  0.11125777  1
  Fe  Fe110  1  0.30653983  0.16943316  0.39182940  1
  Fe  Fe111  1  0.81139275  0.41633230  0.39367539  1
  Fe  Fe112  1  0.02470729  0.16196742  0.60625422  1
  Si  Si113  1  0.46797988  0.58676673  0.88711620  1
  Si  Si114  1  0.35769899  0.17130721  0.11471540  1
  Si  Si115  1  0.19506072  0.07329999  0.60850052  1
  Si  Si116  1  0.51650406  0.57759425  0.11414269  1
  Si  Si117  1  0.36263315  0.66606069  0.61314604  1
  Si  Si118  1  0.13750834  0.41770028  0.38692398  1
  Si  Si119  1  0.68909226  0.66747876  0.61398767  1
  Si  Si120  1  0.48140203  0.08495456  0.39018437  1
  Si  Si121  1  0.64605762  0.16705482  0.38415008  1
  Si  Si122  1  0.13967854  0.58308218  0.88455193  1
  Si  Si123  1  0.81426624  0.58613894  0.38946016  1
  Si  Si124  1  0.80928200  0.40841588  0.88928119  1
  Si  Si125  1  0.13619736  0.08080121  0.38683646  1
  Si  Si126  1  0.85479556  0.42438642  0.61391140  1
  Si  Si127  1  0.35799729  0.34018707  0.61206438  1
  Si  Si128  1  0.80243252  0.92146588  0.88817602  1
  Si  Si129  1  0.85596706  0.07650637  0.61099334  1
  Si  Si130  1  0.81049677  0.91826867  0.38258524  1
  Si  Si131  1  0.30337760  0.83183671  0.38964434  1
  Si  Si132  1  0.68921349  0.34161298  0.11471278  1
  Si  Si133  1  0.18983095  0.58689061  0.11404563  1
  Si  Si134  1  0.19389997  0.91592275  0.11624638  1
  Si  Si135  1  0.69567526  0.17610771  0.10761217  1
  Si  Si136  1  0.19082127  0.59135534  0.61320737  1
  Si  Si137  1  0.64135597  0.83811222  0.88594499  1
  Si  Si138  1  0.47859007  0.42155592  0.88792228  1
  Si  Si139  1  0.19838477  0.08192761  0.11624785  1
  Si  Si140  1  0.64036397  0.33110517  0.88595535  1
  Si  Si141  1  0.13841964  0.41915214  0.88576700  1
  Si  Si142  1  0.69495678  0.82991608  0.11051985  1
  Si  Si143  1  0.64924866  0.83190906  0.38667220  1
  Si  Si144  1  0.35688684  0.33432522  0.11705573  1
  Si  Si145  1  0.14881942  0.07836291  0.88740059  1
  Si  Si146  1  0.18912358  0.90737511  0.61336477  1
  Si  Si147  1  0.19561768  0.42593460  0.61015965  1
  Si  Si148  1  0.68878727  0.83126730  0.61463461  1
  Si  Si149  1  0.80696080  0.08353411  0.38187441  1
  Si  Si150  1  0.52738244  0.41584352  0.61454631  1
  Si  Si151  1  0.98119885  0.33379401  0.88605365  1
  Si  Si152  1  0.35643400  0.66442152  0.11556064  1
  Si  Si153  1  0.63320370  0.16469373  0.88296822  1
  Si  Si154  1  0.03169065  0.16043302  0.11264587  1
  Si  Si155  1  0.02027799  0.66742168  0.61491523  1
  Si  Si156  1  0.47122022  0.07736438  0.88199976  1
  Si  Si157  1  0.02704703  0.83528188  0.11597974  1
  Si  Si158  1  0.36139698  0.83378349  0.61281693  1
  Si  Si159  1  0.31011897  0.16275728  0.88531676  1
  Si  Si160  1  0.69694087  0.16694126  0.61341825  1
  Si  Si161  1  0.97288048  0.16315886  0.38253111  1
  Si  Si162  1  0.97440709  0.83496772  0.38442188  1
  Si  Si163  1  0.97573807  0.32534762  0.38659344  1
  Si  Si164  1  0.48039854  0.59240451  0.39038041  1
  Si  Si165  1  0.14086948  0.58269202  0.38693535  1
  Si  Si166  1  0.53117142  0.08510765  0.61083572  1
  Si  Si167  1  0.35650471  0.82933522  0.11236734  1
  Si  Si168  1  0.52512710  0.91812148  0.61295536  1
  Si  Si169  1  0.30687458  0.83046536  0.88488025  1
  Si  Si170  1  0.86799597  0.58152766  0.11374416  1
  Si  Si171  1  0.69077898  0.33370357  0.61518808  1
  Si  Si172  1  0.02928597  0.67097109  0.11817295  1
  Si  Si173  1  0.47201938  0.91275552  0.88326881  1
  Si  Si174  1  0.52116219  0.41418723  0.11803384  1
  Si  Si175  1  0.30149410  0.66356062  0.88440390  1
  Si  Si176  1  0.85770331  0.91102227  0.11150692  1
  Si  Si177  1  0.52512095  0.58135894  0.61354811  1
  Si  Si178  1  0.97715494  0.66987454  0.38681556  1
  Si  Si179  1  0.02193258  0.32506774  0.11190368  1
  Si  Si180  1  0.85489352  0.58767294  0.61489212  1
  Si  Si181  1  0.30656001  0.66547536  0.38586269  1
  Si  Si182  1  0.30479291  0.34079038  0.39282957  1
  Si  Si183  1  0.64135194  0.33020380  0.39058908  1
  Si  Si184  1  0.80373677  0.08764730  0.88577045  1
  Si  Si185  1  0.64685371  0.66957109  0.38454628  1
  Si  Si186  1  0.13977607  0.91571930  0.38573550  1
  Si  Si187  1  0.97798983  0.66592757  0.89115986  1
  Si  Si188  1  0.85218982  0.91313979  0.61500245  1
  Si  Si189  1  0.02049019  0.83169599  0.61626108  1
  Si  Si190  1  0.85865464  0.41523922  0.11541153  1
  Si  Si191  1  0.14928955  0.91678239  0.88868563  1
  O  O192  1  0.27992968  0.11381053  0.08766831  1
  O  O193  1  0.27951088  0.09588199  0.58000927  1
  O  O194  1  0.27241750  0.61736767  0.08405968  1
  O  O195  1  0.26794253  0.63261421  0.58336202  1
  O  O196  1  0.61784153  0.12673883  0.07233808  1
  O  O197  1  0.61568367  0.11565944  0.58393263  1
  O  O198  1  0.59466219  0.59972125  0.07847150  1
  O  O199  1  0.60371229  0.62001377  0.58439705  1
  O  O200  1  0.96133029  0.10320945  0.07938774  1
  O  O201  1  0.93290067  0.09862402  0.57479507  1
  O  O202  1  0.95001173  0.61852812  0.08690091  1
  O  O203  1  0.93557510  0.62089435  0.58271642  1
  O  O204  1  0.09283283  0.36055642  0.07475359  1
  O  O205  1  0.11707155  0.38014454  0.57251515  1
  O  O206  1  0.10746617  0.87033100  0.08722521  1
  O  O207  1  0.10082888  0.86360465  0.58400197  1
  O  O208  1  0.44715105  0.35441765  0.09162725  1
  O  O209  1  0.44203583  0.37067332  0.58406148  1
  O  O210  1  0.43056352  0.85602874  0.07390864  1
  O  O211  1  0.43607122  0.87651675  0.58171396  1
  O  O212  1  0.76586819  0.37977606  0.08313261  1
  O  O213  1  0.76808307  0.37466372  0.58812056  1
  O  O214  1  0.78814355  0.84743561  0.08840297  1
  O  O215  1  0.76953237  0.86226790  0.58337656  1
  O  O216  1  0.28655037  0.39007988  0.08118092  1
  O  O217  1  0.28471602  0.40107552  0.58687946  1
  O  O218  1  0.26940905  0.87777557  0.08444424  1
  O  O219  1  0.26675522  0.86683250  0.58332578  1
  O  O220  1  0.60433717  0.38972523  0.08616204  1
  O  O221  1  0.60379536  0.37772365  0.58319129  1
  O  O222  1  0.62738344  0.89045527  0.07819082  1
  O  O223  1  0.60372264  0.87879002  0.58469140  1
  O  O224  1  0.92978685  0.36626463  0.08704840  1
  O  O225  1  0.92670952  0.39608843  0.57382145  1
  O  O226  1  0.94566936  0.88551045  0.08622364  1
  O  O227  1  0.93466973  0.87915606  0.58636820  1
  O  O228  1  0.12004770  0.13582678  0.08725200  1
  O  O229  1  0.11507910  0.11908312  0.57187505  1
  O  O230  1  0.11321907  0.64593219  0.08897398  1
  O  O231  1  0.10269148  0.63568589  0.58514321  1
  O  O232  1  0.43511078  0.15384677  0.07719195  1
  O  O233  1  0.45420679  0.13476914  0.57666744  1
  O  O234  1  0.43423513  0.62927622  0.08289592  1
  O  O235  1  0.43603916  0.62321918  0.58067553  1
  O  O236  1  0.78053958  0.15503076  0.07854138  1
  O  O237  1  0.77503461  0.13068136  0.58327279  1
  O  O238  1  0.78451440  0.62273370  0.07770834  1
  O  O239  1  0.77083674  0.63747659  0.58359076  1
  O  O240  1  0.04649711  0.10409300  0.41038138  1
  O  O241  1  0.06938659  0.09972930  0.92215943  1
  O  O242  1  0.06551484  0.62679497  0.41757673  1
  O  O243  1  0.05762761  0.60842183  0.91491871  1
  O  O244  1  0.40377823  0.11523225  0.42338374  1
  O  O245  1  0.38833268  0.10496224  0.91051582  1
  O  O246  1  0.39889780  0.62946750  0.41904449  1
  O  O247  1  0.37803212  0.60719323  0.91295433  1
  O  O248  1  0.72564812  0.11245536  0.41290197  1
  O  O249  1  0.71681729  0.11690810  0.91159957  1
  O  O250  1  0.72953308  0.61979071  0.41552545  1
  O  O251  1  0.71624382  0.60341891  0.92874098  1
  O  O252  1  0.21960763  0.37063186  0.42075917  1
  O  O253  1  0.21273142  0.36596223  0.92110071  1
  O  O254  1  0.22034891  0.86617170  0.41821010  1
  O  O255  1  0.22914759  0.86142438  0.91909022  1
  O  O256  1  0.55648911  0.34788923  0.42074475  1
  O  O257  1  0.56564375  0.37442690  0.91530346  1
  O  O258  1  0.57468947  0.85816955  0.42458786  1
  O  O259  1  0.55440427  0.86415984  0.91247542  1
  O  O260  1  0.90039874  0.35156402  0.42365289  1
  O  O261  1  0.89128195  0.35407317  0.91044140  1
  O  O262  1  0.89520499  0.87105687  0.41405079  1
  O  O263  1  0.87795650  0.87075060  0.92456593  1
  O  O264  1  0.05703468  0.37907224  0.41259600  1
  O  O265  1  0.05023041  0.39897096  0.91252432  1
  O  O266  1  0.05801820  0.88281624  0.41487854  1
  O  O267  1  0.07054407  0.89664868  0.92463079  1
  O  O268  1  0.37753625  0.39800988  0.42364133  1
  O  O269  1  0.40343718  0.39133327  0.92319817  1
  O  O270  1  0.38641948  0.87347213  0.42767274  1
  O  O271  1  0.39210020  0.87872392  0.91308746  1
  O  O272  1  0.71588489  0.38338138  0.42598842  1
  O  O273  1  0.73114866  0.36571662  0.91881252  1
  O  O274  1  0.73326288  0.88349107  0.41456325  1
  O  O275  1  0.71149596  0.90129438  0.91095034  1
  O  O276  1  0.21130220  0.13123188  0.42304315  1
  O  O277  1  0.22825840  0.13307939  0.91539309  1
  O  O278  1  0.23191137  0.62198765  0.41817530  1
  O  O279  1  0.21845873  0.63749409  0.91540099  1
  O  O280  1  0.56418386  0.13910614  0.41424710  1
  O  O281  1  0.55341834  0.12765292  0.91130779  1
  O  O282  1  0.56364058  0.64531683  0.41683934  1
  O  O283  1  0.53471396  0.64643379  0.91937792  1
  O  O284  1  0.88806802  0.13523765  0.41064166  1
  O  O285  1  0.88052151  0.13767188  0.92070335  1
  O  O286  1  0.89668331  0.64018863  0.41844095  1
  O  O287  1  0.90015912  0.63704040  0.92426126  1
  O  O288  1  0.18127103  -0.00086144  0.08699295  1
  O  O289  1  0.17656071  -0.01202292  0.58259634  1
  O  O290  1  0.16144525  0.51223073  0.07562489  1
  O  O291  1  0.18265257  0.51045741  0.58204934  1
  O  O292  1  0.49529090  0.00308133  0.06464903  1
  O  O293  1  0.51827083  0.00047182  0.58387586  1
  O  O294  1  0.48877497  0.49362040  0.08906735  1
  O  O295  1  0.51609268  0.49866269  0.58473194  1
  O  O296  1  0.82621449  -0.01340458  0.07662318  1
  O  O297  1  0.82849053  -0.00655905  0.58316690  1
  O  O298  1  0.86464358  0.49715223  0.08632807  1
  O  O299  1  0.83022904  0.50748578  0.58494494  1
  O  O300  1  0.00584084  0.24139842  0.08351662  1
  O  O301  1  0.00180645  0.24995405  0.56503771  1
  O  O302  1  0.00914670  0.75324773  0.08745082  1
  O  O303  1  0.00348746  0.74969441  0.58432901  1
  O  O304  1  0.32521412  0.25307145  0.09048439  1
  O  O305  1  0.32981697  0.26353181  0.57828603  1
  O  O306  1  0.33477282  0.74597030  0.08567157  1
  O  O307  1  0.36115798  0.74986463  0.58552774  1
  O  O308  1  0.67244998  0.26082438  0.08337803  1
  O  O309  1  0.68326559  0.25014323  0.58486073  1
  O  O310  1  0.66473622  0.75219340  0.07928034  1
  O  O311  1  0.67024915  0.74968948  0.58400104  1
  O  O312  1  0.15378317  -0.00253047  0.41547879  1
  O  O313  1  0.18420645  -0.00219013  0.91366376  1
  O  O314  1  0.14447534  0.50059202  0.41895095  1
  O  O315  1  0.16539127  0.50200272  0.91239751  1
  O  O316  1  0.50835848  0.00689981  0.42344878  1
  O  O317  1  0.49052787  -0.00463280  0.91082068  1
  O  O318  1  0.50293968  0.51585798  0.42704592  1
  O  O319  1  0.49773233  0.50522409  0.91381966  1
  O  O320  1  0.82717300  0.00110823  0.41111063  1
  O  O321  1  0.82061526  0.00499911  0.91420268  1
  O  O322  1  0.83572998  0.51040702  0.42756103  1
  O  O323  1  0.83169359  0.48188841  0.93084525  1
  O  O324  1  0.32708232  0.26216339  0.42605386  1
  O  O325  1  0.33870641  0.23913846  0.91962990  1
  O  O326  1  0.30714933  0.74753004  0.41760252  1
  O  O327  1  0.32551676  0.74649577  0.91099188  1
  O  O328  1  0.67249320  0.24668680  0.41440390  1
  O  O329  1  0.64072673  0.24694789  0.91299052  1
  O  O330  1  0.67627355  0.75013902  0.41487303  1
  O  O331  1  0.67253966  0.76284230  0.91968987  1
  O  O332  1  1.00274924  0.24205887  0.41319274  1
  O  O333  1  1.01330352  0.25886293  0.92312053  1
  O  O334  1  0.99114701  0.75360581  0.41568766  1
  O  O335  1  1.01010713  0.74335961  0.92330705  1
  O  O336  1  0.21207357  0.08071917  0.19665629  1
  O  O337  1  0.20932362  0.07752615  0.69025783  1
  O  O338  1  0.21246452  0.58209871  0.19384625  1
  O  O339  1  0.20911348  0.58761868  0.69331112  1
  O  O340  1  0.54396433  0.08420400  0.19983385  1
  O  O341  1  0.54482033  0.08343640  0.69196910  1
  O  O342  1  0.53509607  0.58247736  0.19426334  1
  O  O343  1  0.53997395  0.58257601  0.69349474  1
  O  O344  1  0.87859647  0.08189668  0.19841612  1
  O  O345  1  0.87307444  0.07818185  0.69164104  1
  O  O346  1  0.88076101  0.58398765  0.19447575  1
  O  O347  1  0.87810853  0.59179010  0.69385074  1
  O  O348  1  0.04687856  0.32467744  0.19179873  1
  O  O349  1  0.04595337  0.33464097  0.69768671  1
  O  O350  1  0.04487495  0.83505484  0.19651739  1
  O  O351  1  0.04182609  0.82998405  0.69537365  1
  O  O352  1  0.37483395  0.33402195  0.19803698  1
  O  O353  1  0.37880902  0.33653027  0.69316680  1
  O  O354  1  0.37661843  0.83521569  0.19212498  1
  O  O355  1  0.38135822  0.83957248  0.69187682  1
  O  O356  1  0.70761408  0.33653261  0.19495453  1
  O  O357  1  0.69913868  0.33202496  0.69425235  1
  O  O358  1  0.71105865  0.83243271  0.19271352  1
  O  O359  1  0.70713824  0.83299163  0.69490468  1
  O  O360  1  0.21115368  0.41780201  0.20196389  1
  O  O361  1  0.20880355  0.42278726  0.69101537  1
  O  O362  1  0.21115608  0.91654663  0.19672153  1
  O  O363  1  0.20863569  0.91033365  0.69349731  1
  O  O364  1  0.54479869  0.41574458  0.19813011  1
  O  O365  1  0.54207951  0.41676464  0.69500327  1
  O  O366  1  0.54549192  0.91627925  0.19864560  1
  O  O367  1  0.54321966  0.91674738  0.69340652  1
  O  O368  1  0.86828714  0.41661322  0.19437129  1
  O  O369  1  0.88084754  0.42456927  0.69262141  1
  O  O370  1  0.87790865  0.91543609  0.19309187  1
  O  O371  1  0.86606704  0.91488726  0.69413778  1
  O  O372  1  0.04659543  0.16265403  0.19399516  1
  O  O373  1  0.04730176  0.16300154  0.69824592  1
  O  O374  1  0.04243859  0.67081148  0.19777822  1
  O  O375  1  0.03911679  0.66675720  0.69507959  1
  O  O376  1  0.37825880  0.16754166  0.19563581  1
  O  O377  1  0.37770546  0.16733383  0.70010673  1
  O  O378  1  0.37832554  0.66401073  0.19517857  1
  O  O379  1  0.38171887  0.65958850  0.69218314  1
  O  O380  1  0.70939277  0.17030722  0.18948805  1
  O  O381  1  0.71037825  0.16602692  0.69377256  1
  O  O382  1  0.71504898  0.66662776  0.20132608  1
  O  O383  1  0.70816624  0.66811752  0.69361674  1
  O  O384  1  0.12290661  0.08145208  0.30574831  1
  O  O385  1  0.12856634  0.07995066  0.80633169  1
  O  O386  1  0.12240978  0.58241710  0.30779880  1
  O  O387  1  0.12208658  0.58446817  0.80375833  1
  O  O388  1  0.45961879  0.08407471  0.30873772  1
  O  O389  1  0.45627424  0.07946626  0.80154145  1
  O  O390  1  0.45909985  0.58779280  0.30991758  1
  O  O391  1  0.45280680  0.58470620  0.80565561  1
  O  O392  1  0.78812173  0.08355538  0.30161161  1
  O  O393  1  0.78761233  0.08382440  0.80455529  1
  O  O394  1  0.79976560  0.58469927  0.30985280  1
  O  O395  1  0.78732920  0.58342277  0.80107344  1
  O  O396  1  0.28942460  0.33527157  0.31132937  1
  O  O397  1  0.28828984  0.33411163  0.79677843  1
  O  O398  1  0.28803471  0.83787620  0.30999494  1
  O  O399  1  0.28514217  0.83763997  0.80559934  1
  O  O400  1  0.62537107  0.33289920  0.30887969  1
  O  O401  1  0.62186845  0.33250202  0.80543111  1
  O  O402  1  0.62946146  0.83316071  0.30619857  1
  O  O403  1  0.62240765  0.83575904  0.80427768  1
  O  O404  1  0.95306051  0.32383377  0.30681934  1
  O  O405  1  0.96972181  0.33040395  0.80643113  1
  O  O406  1  0.95598902  0.83520226  0.30433819  1
  O  O407  1  0.95322067  0.83293190  0.80245745  1
  O  O408  1  0.13038137  0.41965655  0.30810379  1
  O  O409  1  0.12561464  0.41889937  0.80480369  1
  O  O410  1  0.12301680  0.91667143  0.30544525  1
  O  O411  1  0.13014295  0.91464565  0.80824217  1
  O  O412  1  0.45492427  0.41909335  0.30144339  1
  O  O413  1  0.45782268  0.41803513  0.80652113  1
  O  O414  1  0.45585723  0.91613488  0.30060473  1
  O  O415  1  0.45477699  0.91508110  0.80262411  1
  O  O416  1  0.79008077  0.41694706  0.30235720  1
  O  O417  1  0.78190554  0.41918613  0.81095421  1
  O  O418  1  0.79258559  0.91687716  0.30231362  1
  O  O419  1  0.78817137  0.91778550  0.80671003  1
  O  O420  1  0.28864721  0.16679103  0.30013161  1
  O  O421  1  0.28966122  0.16378385  0.80420566  1
  O  O422  1  0.29035576  0.66490699  0.30723196  1
  O  O423  1  0.28192506  0.65998033  0.80485031  1
  O  O424  1  0.62778648  0.16748967  0.30364426  1
  O  O425  1  0.61797149  0.16537928  0.80232944  1
  O  O426  1  0.62292004  0.67008920  0.30535648  1
  O  O427  1  0.62051028  0.66577167  0.79775187  1
  O  O428  1  0.95596785  0.16473473  0.30210347  1
  O  O429  1  0.95656050  0.16435413  0.79938756  1
  O  O430  1  0.95909853  0.66950650  0.30690641  1
  O  O431  1  0.95789931  0.66681605  0.80916007  1
  F  F432  1  0.04814350  -0.00152814  0.20262291  1
  F  F433  1  0.04639719  -0.00134630  0.70198030  1
  F  F434  1  0.05037190  0.51092137  0.19798627  1
  F  F435  1  0.04591706  0.50394053  0.70054026  1
  F  F436  1  0.37652870  0.00209733  0.20334900  1
  F  F437  1  0.37852928  -0.00256490  0.69868719  1
  F  F438  1  0.37805003  0.50359757  0.20524948  1
  F  F439  1  0.37862884  0.50063494  0.70258362  1
  F  F440  1  0.71251718  -0.00015530  0.19990847  1
  F  F441  1  0.71091053  -0.00066096  0.70252332  1
  F  F442  1  0.71260087  0.50044696  0.20254739  1
  F  F443  1  0.69823617  0.49945478  0.69707601  1
  F  F444  1  0.21217749  0.25225535  0.20380006  1
  F  F445  1  0.21175203  0.24735107  0.69868581  1
  F  F446  1  0.20926606  0.75364484  0.20201041  1
  F  F447  1  0.19684017  0.74969380  0.69707472  1
  F  F448  1  0.54501643  0.25228762  0.20489249  1
  F  F449  1  0.54434286  0.25036281  0.70160277  1
  F  F450  1  0.54611738  0.75049926  0.20113823  1
  F  F451  1  0.54410852  0.75239616  0.69746448  1
  F  F452  1  0.87815357  0.25099329  0.19986609  1
  F  F453  1  0.88017760  0.24114047  0.69502773  1
  F  F454  1  0.88261865  0.74959320  0.20378772  1
  F  F455  1  0.87537438  0.74867884  0.70282106  1
  F  F456  1  0.28918610  -0.00055366  0.30045472  1
  F  F457  1  0.28874296  -0.00123694  0.79316674  1
  F  F458  1  0.28922300  0.50486793  0.30146712  1
  F  F459  1  0.28654202  0.50076946  0.79548327  1
  F  F460  1  0.62796369  0.00022639  0.29872057  1
  F  F461  1  0.61859110  0.00090095  0.79553986  1
  F  F462  1  0.61925463  0.49882364  0.30216680  1
  F  F463  1  0.61737553  0.49914608  0.79838033  1
  F  F464  1  0.95551138  -0.00283079  0.29791822  1
  F  F465  1  0.95275822  0.00265641  0.79909530  1
  F  F466  1  0.95256889  0.51068530  0.30199354  1
  F  F467  1  0.96043334  0.49971557  0.79952092  1
  F  F468  1  0.12064151  0.24868248  0.29806595  1
  F  F469  1  0.12729276  0.24812253  0.79739331  1
  F  F470  1  0.11765760  0.75917798  0.30656576  1
  F  F471  1  0.11993164  0.74856865  0.79970291  1
  F  F472  1  0.45555221  0.24937439  0.29927538  1
  F  F473  1  0.45632035  0.25176831  0.79836570  1
  F  F474  1  0.46040200  0.75129513  0.29875897  1
  F  F475  1  0.46447476  0.75096315  0.79882742  1
  F  F476  1  0.78746980  0.24790689  0.29449658  1
  F  F477  1  0.78131979  0.23901344  0.80076791  1
  F  F478  1  0.79227757  0.75327093  0.29954812  1
  F  F479  1  0.78589813  0.75102623  0.79776267  1
