# generated using pymatgen
data_K24Na3Li5Mg64Fe17Si79(O5F)48
_symmetry_space_group_name_H-M   'P 1'
_cell_length_a   16.08432632
_cell_length_b   18.57444264
_cell_length_c   20.54471424
_cell_angle_alpha   89.98734583
_cell_angle_beta   100.01331507
_cell_angle_gamma   90.00129233
_symmetry_Int_Tables_number   1
_chemical_formula_structural   K24Na3Li5Mg64Fe17Si79(O5F)48
_chemical_formula_sum   'K24 Na3 Li5 Mg64 Fe17 Si79 O240 F48'
_cell_volume   6044.38906859
_cell_formula_units_Z   1
loop_
 _symmetry_equiv_pos_site_id
 _symmetry_equiv_pos_as_xyz
  1  'x, y, z'
loop_
 _atom_site_type_symbol
 _atom_site_label
 _atom_site_symmetry_multiplicity
 _atom_site_fract_x
 _atom_site_fract_y
 _atom_site_fract_z
 _atom_site_occupancy
  K  K0  1  -0.00087393  0.00202160  -0.00218026  1
  K  K1  1  0.00824467  0.00594608  0.49985035  1
  K  K2  1  0.00934874  0.49525172  -0.00116403  1
  K  K3  1  0.00939931  0.49321025  0.50295280  1
  K  K4  1  0.32972739  -0.00143567  -0.00081480  1
  K  K5  1  0.32281929  -0.00457953  0.49254718  1
  K  K6  1  0.32935934  0.49842455  0.00505645  1
  K  K7  1  0.32653850  0.50215695  0.49561568  1
  K  K8  1  0.66837924  0.00133433  0.00607058  1
  K  K9  1  0.66594314  0.00073218  0.49749329  1
  K  K10  1  0.65513052  0.49555169  0.00280042  1
  K  K11  1  0.66102723  0.50027749  0.49137782  1
  K  K12  1  0.17889988  0.23784504  -0.00417498  1
  K  K13  1  0.15114521  0.24891889  0.50125827  1
  K  K14  1  0.16632025  0.75288759  -0.00247214  1
  K  K15  1  0.17598430  0.74661029  0.49679683  1
  K  K16  1  0.49144656  0.25972361  0.00645442  1
  K  K17  1  0.49568060  0.24822796  0.49211542  1
  K  K18  1  0.50270705  0.75267814  0.01296063  1
  K  K19  1  0.48204079  0.74624640  0.48390941  1
  K  K20  1  0.84020392  0.24537627  0.00132988  1
  K  K21  1  0.83862814  0.25686376  0.49731839  1
  K  K22  1  0.83540555  0.75220478  0.00195464  1
  K  K23  1  0.83558678  0.75201580  0.49702096  1
  Na  Na24  1  0.83558815  -0.00048584  0.75164087  1
  Na  Na25  1  0.50006004  0.82570664  0.25116253  1
  Na  Na26  1  0.49627058  0.33278683  0.25498577  1
  Li  Li27  1  0.00063846  0.25043816  0.24352972  1
  Li  Li28  1  0.16398893  0.00636204  0.74465744  1
  Li  Li29  1  0.16165629  0.16153519  0.74108295  1
  Li  Li30  1  0.49585308  0.66706383  0.25712810  1
  Li  Li31  1  0.33787490  0.41743648  0.25326549  1
  Mg  Mg32  1  0.16785237  0.49874189  0.25155429  1
  Mg  Mg33  1  0.66809257  0.24988711  0.75397880  1
  Mg  Mg34  1  -0.00146616  0.74824330  0.25244633  1
  Mg  Mg35  1  0.16796836  0.00105865  0.24709246  1
  Mg  Mg36  1  0.83475213  0.49936665  0.74993137  1
  Mg  Mg37  1  0.66645426  0.25032786  0.25164026  1
  Mg  Mg38  1  0.33393262  0.74754199  0.25580775  1
  Mg  Mg39  1  0.16743102  0.50041446  0.74812421  1
  Mg  Mg40  1  0.33253974  0.75091022  0.74943022  1
  Mg  Mg41  1  0.49443993  0.49990514  0.25541991  1
  Mg  Mg42  1  0.33481848  0.25083746  0.24795157  1
  Mg  Mg43  1  0.66324558  0.75002013  0.24847585  1
  Mg  Mg44  1  0.83576331  0.00127472  0.24481449  1
  Mg  Mg45  1  0.66702456  0.75152715  0.75401965  1
  Mg  Mg46  1  -0.00078009  0.75217319  0.75198461  1
  Mg  Mg47  1  0.50053206  0.49894218  0.75448815  1
  Mg  Mg48  1  0.00607124  0.24747120  0.74477988  1
  Mg  Mg49  1  0.33004854  0.24776310  0.74986686  1
  Mg  Mg50  1  0.50063839  -0.00071554  0.75167846  1
  Mg  Mg51  1  0.83014535  0.50083274  0.25372622  1
  Mg  Mg52  1  0.50066677  -0.00204058  0.24893612  1
  Mg  Mg53  1  0.49851766  0.16667066  0.24894566  1
  Mg  Mg54  1  0.16896064  0.83276758  0.25253924  1
  Mg  Mg55  1  -0.00026368  0.08856371  0.24321590  1
  Mg  Mg56  1  0.66271734  0.41699232  0.25491871  1
  Mg  Mg57  1  0.16456929  0.83733965  0.74959507  1
  Mg  Mg58  1  0.83668134  0.16805357  0.24493860  1
  Mg  Mg59  1  0.00032947  0.91669848  0.24868503  1
  Mg  Mg60  1  0.83743941  0.16551234  0.74638306  1
  Mg  Mg61  1  0.66789868  0.41388894  0.75407235  1
  Mg  Mg62  1  0.50192036  0.33326350  0.75551376  1
  Mg  Mg63  1  0.16721677  0.32947600  0.74638662  1
  Mg  Mg64  1  0.32815050  0.08256334  0.74831639  1
  Mg  Mg65  1  0.50068585  0.16524756  0.75315106  1
  Mg  Mg66  1  0.66563045  0.91496142  0.24680697  1
  Mg  Mg67  1  0.66955211  0.08370964  0.75140023  1
  Mg  Mg68  1  0.00078011  0.91848557  0.75132936  1
  Mg  Mg69  1  0.50117278  0.66613836  0.75128584  1
  Mg  Mg70  1  0.33192438  0.58493679  0.75002553  1
  Mg  Mg71  1  -0.00144615  0.58278433  0.25363336  1
  Mg  Mg72  1  0.83151115  0.83400295  0.24677418  1
  Mg  Mg73  1  -0.00112447  0.41380670  0.24845397  1
  Mg  Mg74  1  0.33496431  0.91315835  0.25212854  1
  Mg  Mg75  1  0.00534788  0.08253561  0.74371496  1
  Mg  Mg76  1  0.00364654  0.41440219  0.74834626  1
  Mg  Mg77  1  0.65971895  0.58677658  0.25396917  1
  Mg  Mg78  1  0.50155426  0.83412236  0.75207229  1
  Mg  Mg79  1  0.66769992  0.08455766  0.24731377  1
  Mg  Mg80  1  0.16717376  0.66416869  0.25478978  1
  Mg  Mg81  1  0.83229260  0.33379831  0.25090470  1
  Mg  Mg82  1  0.16633794  0.66502630  0.74932018  1
  Mg  Mg83  1  0.16468958  0.16719803  0.24258802  1
  Mg  Mg84  1  0.83185955  0.66604181  0.25041218  1
  Mg  Mg85  1  0.66833366  0.91611375  0.75426793  1
  Mg  Mg86  1  0.66818618  0.58326263  0.75275180  1
  Mg  Mg87  1  0.33553707  0.58332593  0.25438577  1
  Mg  Mg88  1  0.00285954  0.58485670  0.75093089  1
  Mg  Mg89  1  0.33216054  0.08414774  0.24627980  1
  Mg  Mg90  1  0.33206369  0.41438036  0.74994029  1
  Mg  Mg91  1  0.83554063  0.66652036  0.75390592  1
  Mg  Mg92  1  0.83537220  0.83521557  0.75461772  1
  Mg  Mg93  1  0.83566483  0.33410912  0.74840093  1
  Mg  Mg94  1  0.16708587  0.33259914  0.24688212  1
  Mg  Mg95  1  0.33047619  0.91823857  0.74958881  1
  Fe  Fe96  1  0.36016578  0.16964211  0.10646523  1
  Fe  Fe97  1  0.64532673  0.33055038  0.39415418  1
  Fe  Fe98  1  0.47629466  0.58046002  0.39552027  1
  Fe  Fe99  1  0.19174207  0.07763250  0.10523528  1
  Fe  Fe100  1  0.19292827  0.58733589  0.60774609  1
  Fe  Fe101  1  0.02135065  0.15881884  0.60145150  1
  Fe  Fe102  1  0.02208511  0.33299787  0.60570048  1
  Fe  Fe103  1  0.64236425  0.83268478  0.89266575  1
  Fe  Fe104  1  0.68975339  0.83150963  0.10801694  1
  Fe  Fe105  1  0.86074610  0.08598191  0.10509530  1
  Fe  Fe106  1  0.97553280  0.66718410  0.39090226  1
  Fe  Fe107  1  0.14425211  0.58038042  0.89075554  1
  Fe  Fe108  1  0.30194452  0.66381385  0.39554424  1
  Fe  Fe109  1  0.30675230  0.32884359  0.88848537  1
  Fe  Fe110  1  0.64150502  0.33403308  0.89439860  1
  Fe  Fe111  1  0.97426111  0.83411261  0.89303317  1
  Fe  Fe112  1  0.30782532  0.83864053  0.39419199  1
  Si  Si113  1  0.30525040  0.83820311  0.88419676  1
  Si  Si114  1  0.81149262  0.08020462  0.38294658  1
  Si  Si115  1  0.81061462  0.42273042  0.38995718  1
  Si  Si116  1  0.52098764  0.42057775  0.11794502  1
  Si  Si117  1  0.64749010  0.66227390  0.88833620  1
  Si  Si118  1  0.52964913  0.08634417  0.11279532  1
  Si  Si119  1  0.68971896  0.83202701  0.61578770  1
  Si  Si120  1  0.85416476  0.91318329  0.61448196  1
  Si  Si121  1  0.13343249  0.57292808  0.38892791  1
  Si  Si122  1  0.19776301  0.41444418  0.60870325  1
  Si  Si123  1  0.14396146  0.08440486  0.87858398  1
  Si  Si124  1  0.85537761  0.58854710  0.61615017  1
  Si  Si125  1  0.02996616  0.17260271  0.10514010  1
  Si  Si126  1  0.52149369  0.58149313  0.11835563  1
  Si  Si127  1  0.18842487  0.90840173  0.11206830  1
  Si  Si128  1  0.19897312  0.07835300  0.60856684  1
  Si  Si129  1  0.35717702  0.66789536  0.11672597  1
  Si  Si130  1  0.68554503  0.33545675  0.11624937  1
  Si  Si131  1  0.81224624  0.41753545  0.88754352  1
  Si  Si132  1  0.36831924  0.66999487  0.61391923  1
  Si  Si133  1  0.47818342  0.07735300  0.88558896  1
  Si  Si134  1  0.80409259  0.91987832  0.89069719  1
  Si  Si135  1  0.52728395  0.92046630  0.61587798  1
  Si  Si136  1  0.64836751  0.83676498  0.38651712  1
  Si  Si137  1  0.14010283  0.41076554  0.88701863  1
  Si  Si138  1  0.85504779  0.42349289  0.61208004  1
  Si  Si139  1  0.52165084  0.92178671  0.11158603  1
  Si  Si140  1  0.69291893  0.17043246  0.11336999  1
  Si  Si141  1  0.97139057  0.17045281  0.38041799  1
  Si  Si142  1  0.97098094  0.33594940  0.38283823  1
  Si  Si143  1  0.85502665  0.57947496  0.11488579  1
  Si  Si144  1  0.69412218  0.33466709  0.61564420  1
  Si  Si145  1  0.36534547  0.33076050  0.61562577  1
  Si  Si146  1  0.97329922  0.66286468  0.89051133  1
  Si  Si147  1  0.02755418  0.82750771  0.11759997  1
  Si  Si148  1  0.85323019  0.41494973  0.11413168  1
  Si  Si149  1  0.69342589  0.16863577  0.61419929  1
  Si  Si150  1  0.64790614  0.16151618  0.38789185  1
  Si  Si151  1  0.48067761  0.92051440  0.38922188  1
  Si  Si152  1  0.81225927  0.08616351  0.88334763  1
  Si  Si153  1  0.47111436  0.91354736  0.88619241  1
  Si  Si154  1  0.47627280  0.58884653  0.88661977  1
  Si  Si155  1  0.30970537  0.16572055  0.38353202  1
  Si  Si156  1  0.35691136  0.83269586  0.11511102  1
  Si  Si157  1  0.97863913  0.16724385  0.88178018  1
  Si  Si158  1  0.52921961  0.08577116  0.61567682  1
  Si  Si159  1  0.46959952  0.42250730  0.89127447  1
  Si  Si160  1  0.14031151  0.91973530  0.88619472  1
  Si  Si161  1  0.01994869  0.67211159  0.61201798  1
  Si  Si162  1  0.80455742  0.58881303  0.38887027  1
  Si  Si163  1  0.85360715  0.07884708  0.60919679  1
  Si  Si164  1  0.31563167  0.16059462  0.88512560  1
  Si  Si165  1  0.14161904  0.40871130  0.38396234  1
  Si  Si166  1  0.69075615  0.66804210  0.61768511  1
  Si  Si167  1  0.31179499  0.67357528  0.88821700  1
  Si  Si168  1  0.02325445  0.33863368  0.11213084  1
  Si  Si169  1  0.35054241  0.33873266  0.11328476  1
  Si  Si170  1  0.36322850  0.83550318  0.61545465  1
  Si  Si171  1  0.80931430  0.58038852  0.88548844  1
  Si  Si172  1  0.13519652  0.92623686  0.38625415  1
  Si  Si173  1  0.53032613  0.58068872  0.61802099  1
  Si  Si174  1  0.47795381  0.08385780  0.38478364  1
  Si  Si175  1  0.30571081  0.32911147  0.38457179  1
  Si  Si176  1  0.52772167  0.41537110  0.61724396  1
  Si  Si177  1  0.19386460  0.91217152  0.61285700  1
  Si  Si178  1  0.68746379  0.66088419  0.11332505  1
  Si  Si179  1  0.18723962  0.42247400  0.11373498  1
  Si  Si180  1  0.18957049  0.58750804  0.11520312  1
  Si  Si181  1  0.86390849  0.91304052  0.10943193  1
  Si  Si182  1  0.64160988  0.67181692  0.38961445  1
  Si  Si183  1  0.81170274  0.91703503  0.38389994  1
  Si  Si184  1  0.13891254  0.09163181  0.38190781  1
  Si  Si185  1  0.02124697  0.66345948  0.11652221  1
  Si  Si186  1  0.64519382  0.16185988  0.88969499  1
  Si  Si187  1  0.02165810  0.83792415  0.61295184  1
  Si  Si188  1  0.47170259  0.41310344  0.39397855  1
  Si  Si189  1  0.97671721  0.83698756  0.38586678  1
  Si  Si190  1  0.97295465  0.33231907  0.88277977  1
  Si  Si191  1  0.36230226  0.16464497  0.61392578  1
  O  O192  1  0.28259378  0.10270122  0.06659468  1
  O  O193  1  0.28102498  0.11641932  0.58049378  1
  O  O194  1  0.26727009  0.62598697  0.08488450  1
  O  O195  1  0.28323528  0.63332492  0.57688007  1
  O  O196  1  0.61848645  0.11072470  0.08797195  1
  O  O197  1  0.60447224  0.12638211  0.58500759  1
  O  O198  1  0.60236682  0.61189943  0.08640234  1
  O  O199  1  0.61231119  0.61349988  0.58983813  1
  O  O200  1  0.94854544  0.12671866  0.06866997  1
  O  O201  1  0.92535760  0.10005422  0.56706051  1
  O  O202  1  0.93614988  0.61553904  0.08687141  1
  O  O203  1  0.93297614  0.62440951  0.58566492  1
  O  O204  1  0.09773242  0.38117101  0.08049473  1
  O  O205  1  0.11939460  0.36486058  0.57467144  1
  O  O206  1  0.11348433  0.84715061  0.08922236  1
  O  O207  1  0.10190339  0.87328644  0.58289000  1
  O  O208  1  0.43446553  0.37639705  0.08830620  1
  O  O209  1  0.44572519  0.36624593  0.58637996  1
  O  O210  1  0.43371428  0.87433572  0.08645442  1
  O  O211  1  0.43529655  0.88380278  0.58673811  1
  O  O212  1  0.76575909  0.37011773  0.08494697  1
  O  O213  1  0.76944096  0.37451292  0.58538557  1
  O  O214  1  0.79050860  0.85658525  0.07928780  1
  O  O215  1  0.77053145  0.86223839  0.58406713  1
  O  O216  1  0.26742521  0.39071833  0.08347037  1
  O  O217  1  0.28321486  0.37823460  0.58505593  1
  O  O218  1  0.26956699  0.87498849  0.08179688  1
  O  O219  1  0.26929524  0.86705503  0.58411377  1
  O  O220  1  0.60104182  0.38373442  0.08749500  1
  O  O221  1  0.60726925  0.37985820  0.58805940  1
  O  O222  1  0.59427118  0.88850329  0.07454816  1
  O  O223  1  0.60453793  0.87993841  0.58671348  1
  O  O224  1  0.93244048  0.38043091  0.08363018  1
  O  O225  1  0.93034389  0.39780584  0.57596129  1
  O  O226  1  0.95307858  0.88361061  0.08697914  1
  O  O227  1  0.93610320  0.88512236  0.58194364  1
  O  O228  1  0.11075944  0.14795963  0.07317516  1
  O  O229  1  0.11524218  0.11680128  0.56908283  1
  O  O230  1  0.10140817  0.63188423  0.08505099  1
  O  O231  1  0.09368255  0.64058848  0.57656737  1
  O  O232  1  0.46138765  0.14360548  0.07783946  1
  O  O233  1  0.44276006  0.12925062  0.58452853  1
  O  O234  1  0.43518820  0.62781346  0.08754975  1
  O  O235  1  0.45004537  0.63120483  0.58950655  1
  O  O236  1  0.77043744  0.14981168  0.07658667  1
  O  O237  1  0.76622517  0.12728121  0.58205063  1
  O  O238  1  0.76797691  0.62235941  0.08445735  1
  O  O239  1  0.77305201  0.63962688  0.58817388  1
  O  O240  1  0.06301515  0.13311819  0.41184540  1
  O  O241  1  0.06439503  0.12093042  0.91048236  1
  O  O242  1  0.04621406  0.58828051  0.41644919  1
  O  O243  1  0.04256766  0.60267768  0.92052752  1
  O  O244  1  0.39597728  0.11857523  0.41347739  1
  O  O245  1  0.39476712  0.10429669  0.91408652  1
  O  O246  1  0.39104464  0.61041911  0.43867840  1
  O  O247  1  0.39930937  0.62760405  0.91618486  1
  O  O248  1  0.72756621  0.10459094  0.41342457  1
  O  O249  1  0.73028040  0.11228669  0.91600048  1
  O  O250  1  0.72011238  0.61534015  0.41779202  1
  O  O251  1  0.72148672  0.60029892  0.91236907  1
  O  O252  1  0.22163377  0.35674425  0.41411394  1
  O  O253  1  0.20526136  0.34804545  0.91749574  1
  O  O254  1  0.21635785  0.88504845  0.42587809  1
  O  O255  1  0.22444712  0.86814498  0.91444588  1
  O  O256  1  0.54467108  0.35400103  0.42371832  1
  O  O257  1  0.54957779  0.37444359  0.92640683  1
  O  O258  1  0.57002159  0.87519001  0.41585356  1
  O  O259  1  0.53866604  0.85431134  0.91921670  1
  O  O260  1  0.89885397  0.37708231  0.41657781  1
  O  O261  1  0.89136132  0.36226685  0.91382736  1
  O  O262  1  0.89137634  0.86472437  0.41400920  1
  O  O263  1  0.87943969  0.86740071  0.92623764  1
  O  O264  1  0.06097886  0.37521362  0.41369075  1
  O  O265  1  0.04910969  0.38792093  0.91096478  1
  O  O266  1  0.04802870  0.89921452  0.41111019  1
  O  O267  1  0.06749160  0.89270950  0.92593095  1
  O  O268  1  0.38384149  0.38038909  0.41831183  1
  O  O269  1  0.38605380  0.40119897  0.92072766  1
  O  O270  1  0.40947747  0.88905067  0.42802608  1
  O  O271  1  0.38168002  0.89456634  0.91158205  1
  O  O272  1  0.73813732  0.39189915  0.42779277  1
  O  O273  1  0.73425284  0.39613183  0.92333388  1
  O  O274  1  0.73182485  0.88726662  0.41685332  1
  O  O275  1  0.71915167  0.90634072  0.92251111  1
  O  O276  1  0.22946894  0.13053083  0.41352616  1
  O  O277  1  0.22965723  0.13014589  0.90985503  1
  O  O278  1  0.20522500  0.62684558  0.42473706  1
  O  O279  1  0.23589277  0.64371592  0.92270481  1
  O  O280  1  0.56289409  0.13084791  0.41534953  1
  O  O281  1  0.56366860  0.12355326  0.91549621  1
  O  O282  1  0.56587699  0.64621178  0.42616569  1
  O  O283  1  0.56239559  0.63432316  0.91570288  1
  O  O284  1  0.89498497  0.12995254  0.41135810  1
  O  O285  1  0.89692833  0.13511214  0.91192874  1
  O  O286  1  0.87674332  0.64413001  0.42295579  1
  O  O287  1  0.88184673  0.63906968  0.91382422  1
  O  O288  1  0.15803307  -0.01718434  0.07532360  1
  O  O289  1  0.19562718  -0.00705508  0.58060244  1
  O  O290  1  0.17559538  0.50587144  0.08408829  1
  O  O291  1  0.18656559  0.49354511  0.57430673  1
  O  O292  1  0.50336097  0.00499706  0.08286641  1
  O  O293  1  0.52333595  0.00307255  0.58625066  1
  O  O294  1  0.50614993  0.50098203  0.08349791  1
  O  O295  1  0.51505777  0.49836929  0.58942366  1
  O  O296  1  0.84252085  -0.00908643  0.07467309  1
  O  O297  1  0.82536331  -0.00582022  0.58746925  1
  O  O298  1  0.84198410  0.49745614  0.08402063  1
  O  O299  1  0.83050098  0.50752145  0.58763574  1
  O  O300  1  0.01090425  0.25811928  0.08078277  1
  O  O301  1  -0.00406821  0.24752891  0.56103819  1
  O  O302  1  0.00059232  0.74588141  0.08926269  1
  O  O303  1  0.00051229  0.75582899  0.58453448  1
  O  O304  1  0.33426221  0.26364343  0.07305654  1
  O  O305  1  0.35348392  0.24802955  0.58578551  1
  O  O306  1  0.35114936  0.74982954  0.08378805  1
  O  O307  1  0.37241565  0.75406975  0.58849781  1
  O  O308  1  0.66395868  0.25357033  0.08824959  1
  O  O309  1  0.68325133  0.25203237  0.58618803  1
  O  O310  1  0.66979678  0.73700974  0.07609377  1
  O  O311  1  0.66943193  0.74942074  0.58803634  1
  O  O312  1  0.14422684  0.01059829  0.41324359  1
  O  O313  1  0.16296040  0.00329576  0.91081850  1
  O  O314  1  0.16207455  0.48939460  0.41350763  1
  O  O315  1  0.16978249  0.48698181  0.92310746  1
  O  O316  1  0.49917780  0.00424572  0.41850812  1
  O  O317  1  0.49858619  -0.00489678  0.91359335  1
  O  O318  1  0.49788731  0.48788358  0.43428275  1
  O  O319  1  0.49226648  0.50739837  0.91542680  1
  O  O320  1  0.83426019  -0.00122152  0.41319358  1
  O  O321  1  0.83585954  0.00426662  0.90869857  1
  O  O322  1  0.82969983  0.50643285  0.41594029  1
  O  O323  1  0.84232075  0.50028635  0.91236584  1
  O  O324  1  0.32565765  0.24668436  0.41574160  1
  O  O325  1  0.34231601  0.23681197  0.92081052  1
  O  O326  1  0.31581510  0.75245339  0.43806778  1
  O  O327  1  0.33187969  0.75763506  0.91409489  1
  O  O328  1  0.67494987  0.23578545  0.42601255  1
  O  O329  1  0.66302259  0.23925120  0.92517191  1
  O  O330  1  0.66768467  0.75546720  0.41808886  1
  O  O331  1  0.67900938  0.73834767  0.92074105  1
  O  O332  1  0.97613864  0.25255974  0.41033287  1
  O  O333  1  0.99265187  0.25013414  0.91158139  1
  O  O334  1  1.00798024  0.76169104  0.42103542  1
  O  O335  1  0.99947800  0.73977326  0.92510855  1
  O  O336  1  0.21127884  0.08172111  0.19791016  1
  O  O337  1  0.21612912  0.08055084  0.68774568  1
  O  O338  1  0.20490439  0.58438044  0.19497088  1
  O  O339  1  0.21417687  0.58556480  0.69965966  1
  O  O340  1  0.54489924  0.08332675  0.19409672  1
  O  O341  1  0.54494762  0.08512643  0.69595422  1
  O  O342  1  0.54299706  0.57948494  0.19740543  1
  O  O343  1  0.54668268  0.58144149  0.69877489  1
  O  O344  1  0.87875746  0.08434967  0.19683431  1
  O  O345  1  0.87838913  0.08909568  0.68828057  1
  O  O346  1  0.87333913  0.57989211  0.19513050  1
  O  O347  1  0.87552473  0.58586021  0.69679388  1
  O  O348  1  0.04288249  0.33868022  0.19172052  1
  O  O349  1  0.04426269  0.33441445  0.69791702  1
  O  O350  1  0.04369789  0.83050557  0.19823127  1
  O  O351  1  0.04301732  0.83517753  0.69300285  1
  O  O352  1  0.36461184  0.33253372  0.19217160  1
  O  O353  1  0.38401690  0.33190944  0.69591591  1
  O  O354  1  0.36693644  0.83157126  0.19408382  1
  O  O355  1  0.37870361  0.83550149  0.69602038  1
  O  O356  1  0.70999714  0.33652146  0.19610952  1
  O  O357  1  0.71191191  0.33393400  0.69605132  1
  O  O358  1  0.71153081  0.83341453  0.19938897  1
  O  O359  1  0.71008300  0.83290034  0.69583195  1
  O  O360  1  0.19970061  0.41890141  0.19299446  1
  O  O361  1  0.21179491  0.41788547  0.69024610  1
  O  O362  1  0.20743222  0.91474798  0.19290845  1
  O  O363  1  0.21240496  0.91134023  0.69240801  1
  O  O364  1  0.54517094  0.42468582  0.19682054  1
  O  O365  1  0.54408376  0.41660895  0.69772802  1
  O  O366  1  0.54605548  0.92317169  0.19146147  1
  O  O367  1  0.54312783  0.91823524  0.69595997  1
  O  O368  1  0.87209070  0.41712167  0.19433991  1
  O  O369  1  0.87431223  0.41916364  0.69321287  1
  O  O370  1  0.87914875  0.91602249  0.19148961  1
  O  O371  1  0.87707022  0.90761045  0.69323647  1
  O  O372  1  0.04453149  0.16560692  0.18575486  1
  O  O373  1  0.03996072  0.16583149  0.69185010  1
  O  O374  1  0.04210641  0.66319356  0.19659031  1
  O  O375  1  0.03906921  0.67022761  0.69308738  1
  O  O376  1  0.37780686  0.16565437  0.19873773  1
  O  O377  1  0.38022484  0.16434701  0.69421460  1
  O  O378  1  0.36932560  0.66820826  0.19557735  1
  O  O379  1  0.38008908  0.66794358  0.69517304  1
  O  O380  1  0.71253783  0.16813528  0.19448999  1
  O  O381  1  0.70976983  0.16800093  0.69454780  1
  O  O382  1  0.71026933  0.66305131  0.19409765  1
  O  O383  1  0.70952006  0.66703676  0.69824558  1
  O  O384  1  0.12104288  0.08782642  0.30198189  1
  O  O385  1  0.12323792  0.08369946  0.79982460  1
  O  O386  1  0.11972885  0.57857256  0.30733174  1
  O  O387  1  0.12196689  0.58391662  0.79899514  1
  O  O388  1  0.45938387  0.08135557  0.30483265  1
  O  O389  1  0.46018271  0.08095968  0.80481045  1
  O  O390  1  0.45430555  0.58210781  0.30537185  1
  O  O391  1  0.45752056  0.58635992  0.80569068  1
  O  O392  1  0.79114900  0.08233275  0.30285963  1
  O  O393  1  0.78763874  0.09339513  0.80409376  1
  O  O394  1  0.78819039  0.58613324  0.30758053  1
  O  O395  1  0.79062243  0.58161763  0.80452213  1
  O  O396  1  0.28643481  0.32766519  0.30510679  1
  O  O397  1  0.28939414  0.33239174  0.79657155  1
  O  O398  1  0.28685398  0.83440335  0.30224983  1
  O  O399  1  0.28888981  0.83454509  0.80359171  1
  O  O400  1  0.63458854  0.33152838  0.30440540  1
  O  O401  1  0.62352514  0.33273488  0.80201497  1
  O  O402  1  0.63463211  0.83554660  0.30746687  1
  O  O403  1  0.62044242  0.83266155  0.80025608  1
  O  O404  1  0.95190146  0.33839452  0.30339649  1
  O  O405  1  0.95395425  0.33338868  0.80245304  1
  O  O406  1  0.95610292  0.83463032  0.30470025  1
  O  O407  1  0.95595633  0.83329936  0.80096409  1
  O  O408  1  0.12170140  0.41217509  0.30374121  1
  O  O409  1  0.12472719  0.41741686  0.80550047  1
  O  O410  1  0.12270058  0.92020914  0.30540988  1
  O  O411  1  0.12091668  0.91199792  0.80640465  1
  O  O412  1  0.45530820  0.42327129  0.31493288  1
  O  O413  1  0.45755977  0.41823857  0.80931737  1
  O  O414  1  0.45625953  0.92301153  0.30958927  1
  O  O415  1  0.45571897  0.91541691  0.80492862  1
  O  O416  1  0.79083219  0.41882477  0.30880409  1
  O  O417  1  0.79183144  0.41665741  0.80615754  1
  O  O418  1  0.79374125  0.91867361  0.30371739  1
  O  O419  1  0.78461009  0.90926302  0.81031091  1
  O  O420  1  0.28868537  0.16546486  0.30396389  1
  O  O421  1  0.30166380  0.16398904  0.80515088  1
  O  O422  1  0.28473778  0.66483038  0.30328019  1
  O  O423  1  0.29370686  0.67026297  0.80714181  1
  O  O424  1  0.62775878  0.16343244  0.30713329  1
  O  O425  1  0.62498640  0.16542634  0.80815369  1
  O  O426  1  0.62873216  0.67101410  0.30956872  1
  O  O427  1  0.62537107  0.66448190  0.80695089  1
  O  O428  1  0.95555267  0.16674603  0.30117619  1
  O  O429  1  0.95725135  0.16770160  0.80172083  1
  O  O430  1  0.95275219  0.66614270  0.29888020  1
  O  O431  1  0.95670999  0.66564263  0.80840762  1
  F  F432  1  0.04570796  -0.00031258  0.20092805  1
  F  F433  1  0.04023199  -0.00421250  0.69492886  1
  F  F434  1  0.04219884  0.50022333  0.20265794  1
  F  F435  1  0.04336418  0.50028016  0.69966489  1
  F  F436  1  0.37871663  -0.00257044  0.20282470  1
  F  F437  1  0.38205643  -0.00096173  0.70032434  1
  F  F438  1  0.37684651  0.50329467  0.20118303  1
  F  F439  1  0.38250220  0.50027669  0.70397514  1
  F  F440  1  0.71349367  0.00034738  0.20038903  1
  F  F441  1  0.69860774  -0.00069531  0.69999352  1
  F  F442  1  0.71089381  0.50111131  0.20633661  1
  F  F443  1  0.71105228  0.49901019  0.70385701  1
  F  F444  1  0.21144877  0.25030095  0.19802083  1
  F  F445  1  0.21621140  0.25050860  0.69513614  1
  F  F446  1  0.20526751  0.74785381  0.20271147  1
  F  F447  1  0.21237130  0.75076639  0.70176078  1
  F  F448  1  0.55105854  0.24089315  0.20053535  1
  F  F449  1  0.54651541  0.24760389  0.70322811  1
  F  F450  1  0.55185381  0.74129461  0.19482994  1
  F  F451  1  0.54550628  0.74768833  0.70178102  1
  F  F452  1  0.87251749  0.25448538  0.19803920  1
  F  F453  1  0.87656946  0.25203378  0.69883588  1
  F  F454  1  0.87800359  0.75003976  0.19985924  1
  F  F455  1  0.87588408  0.74718982  0.70287029  1
  F  F456  1  0.28817410  -0.00086258  0.29865257  1
  F  F457  1  0.29342882  -0.00083651  0.79729509  1
  F  F458  1  0.28260820  0.50275885  0.29963442  1
  F  F459  1  0.29058268  0.49970476  0.79745651  1
  F  F460  1  0.62408064  0.00032342  0.29659826  1
  F  F461  1  0.62031532  0.00181159  0.79991726  1
  F  F462  1  0.62228927  0.50168211  0.30320133  1
  F  F463  1  0.62292861  0.49944608  0.80069739  1
  F  F464  1  0.95656727  0.00036751  0.29587592  1
  F  F465  1  0.96754553  0.00312931  0.79921774  1
  F  F466  1  0.95217554  0.49724154  0.29712793  1
  F  F467  1  0.95466544  0.49938490  0.79552665  1
  F  F468  1  0.12243144  0.24883774  0.29313584  1
  F  F469  1  0.12177916  0.25157730  0.79710575  1
  F  F470  1  0.11911351  0.74928318  0.30029565  1
  F  F471  1  0.12199302  0.75024312  0.79578197  1
  F  F472  1  0.45043853  0.23841948  0.30507998  1
  F  F473  1  0.45645239  0.24841493  0.79870273  1
  F  F474  1  0.44672763  0.74473237  0.30953347  1
  F  F475  1  0.45439926  0.74967344  0.79742270  1
  F  F476  1  0.79089673  0.24826977  0.29786142  1
  F  F477  1  0.79049722  0.25084628  0.79650157  1
  F  F478  1  0.78988741  0.74980171  0.29686547  1
  F  F479  1  0.78809872  0.74834034  0.79950729  1
