# generated using pymatgen
data_K24Na3Li5Mg64Fe17Si79(O5F)48
_symmetry_space_group_name_H-M   'P 1'
_cell_length_a   16.08598480
_cell_length_b   18.58184321
_cell_length_c   20.54801481
_cell_angle_alpha   89.97813490
_cell_angle_beta   100.02268854
_cell_angle_gamma   90.02530970
_symmetry_Int_Tables_number   1
_chemical_formula_structural   K24Na3Li5Mg64Fe17Si79(O5F)48
_chemical_formula_sum   'K24 Na3 Li5 Mg64 Fe17 Si79 O240 F48'
_cell_volume   6048.21682279
_cell_formula_units_Z   1
loop_
 _symmetry_equiv_pos_site_id
 _symmetry_equiv_pos_as_xyz
  1  'x, y, z'
loop_
 _atom_site_type_symbol
 _atom_site_label
 _atom_site_symmetry_multiplicity
 _atom_site_fract_x
 _atom_site_fract_y
 _atom_site_fract_z
 _atom_site_occupancy
  K  K0  1  0.00734843  -0.01071589  -0.00848684  1
  K  K1  1  -0.00184646  0.00653588  0.50257509  1
  K  K2  1  0.00111173  0.49830992  -0.00242608  1
  K  K3  1  0.00238440  0.50252694  0.50032501  1
  K  K4  1  0.31853876  0.00858177  0.00182144  1
  K  K5  1  0.33504325  0.00699819  0.49419457  1
  K  K6  1  0.34536361  0.49032671  0.00623658  1
  K  K7  1  0.33910441  0.49800896  0.49813207  1
  K  K8  1  0.66576109  -0.00255847  -0.00245513  1
  K  K9  1  0.67011751  -0.00263683  0.50416522  1
  K  K10  1  0.65411053  0.49493675  -0.00848591  1
  K  K11  1  0.65619711  0.50598940  0.50713966  1
  K  K12  1  0.17048262  0.24499909  0.00366415  1
  K  K13  1  0.16691038  0.24125953  0.49615828  1
  K  K14  1  0.16892222  0.75296022  -0.00144001  1
  K  K15  1  0.16357457  0.74895944  0.49980093  1
  K  K16  1  0.50367099  0.25434074  -0.00333392  1
  K  K17  1  0.50285614  0.25377291  0.50409669  1
  K  K18  1  0.50161459  0.75220669  -0.00015060  1
  K  K19  1  0.50849929  0.75019548  0.50264566  1
  K  K20  1  0.82340931  0.24550333  -0.00286771  1
  K  K21  1  0.82713757  0.24052224  0.50260902  1
  K  K22  1  0.82826408  0.75798392  -0.00565610  1
  K  K23  1  0.82942509  0.75703235  0.50795620  1
  Na  Na24  1  0.83975290  -0.00208584  0.76015017  1
  Na  Na25  1  0.33311366  0.08079637  0.25233531  1
  Na  Na26  1  0.16515033  0.66886814  0.74626239  1
  Li  Li27  1  0.67817522  0.75449719  0.75068806  1
  Li  Li28  1  0.66587160  0.75050543  0.25082442  1
  Li  Li29  1  -0.00037956  0.07744562  0.75969997  1
  Li  Li30  1  0.33410278  0.58271311  0.24713683  1
  Li  Li31  1  0.82999909  0.83315310  0.75450974  1
  Mg  Mg32  1  0.16961680  0.49931430  0.24980987  1
  Mg  Mg33  1  0.33374907  0.74875170  0.24867944  1
  Mg  Mg34  1  0.16789711  -0.00095929  0.25223754  1
  Mg  Mg35  1  0.49953385  -0.00331561  0.25237925  1
  Mg  Mg36  1  0.33375111  0.24891695  0.74688071  1
  Mg  Mg37  1  -0.00013967  0.24614752  0.75306884  1
  Mg  Mg38  1  0.83301376  0.50183620  0.74666977  1
  Mg  Mg39  1  0.49620944  0.50149361  0.24429439  1
  Mg  Mg40  1  0.83350718  0.00086401  0.25369977  1
  Mg  Mg41  1  0.66464876  0.25047027  0.25162756  1
  Mg  Mg42  1  -0.00281679  0.75010493  0.74852757  1
  Mg  Mg43  1  0.00026520  0.25092327  0.25491635  1
  Mg  Mg44  1  0.16008568  0.00137339  0.75184488  1
  Mg  Mg45  1  0.50401912  0.50166977  0.74557953  1
  Mg  Mg46  1  0.16782552  0.50143360  0.74728476  1
  Mg  Mg47  1  0.00065039  0.74955098  0.24665397  1
  Mg  Mg48  1  0.33289096  0.25178790  0.24888479  1
  Mg  Mg49  1  0.49933719  0.00058494  0.75253800  1
  Mg  Mg50  1  0.83180368  0.49923635  0.24922804  1
  Mg  Mg51  1  0.66533637  0.24790759  0.75226488  1
  Mg  Mg52  1  0.33246743  0.75026850  0.74737455  1
  Mg  Mg53  1  0.50000861  0.66759175  0.24583489  1
  Mg  Mg54  1  0.33517415  0.58555484  0.74628855  1
  Mg  Mg55  1  0.66145341  0.41707213  0.24602494  1
  Mg  Mg56  1  0.49598194  0.33647851  0.24591458  1
  Mg  Mg57  1  -0.00130912  0.58390312  0.74545112  1
  Mg  Mg58  1  0.66672253  0.08263194  0.25454839  1
  Mg  Mg59  1  0.00278660  0.08461807  0.25498917  1
  Mg  Mg60  1  0.33115466  0.08466599  0.75191733  1
  Mg  Mg61  1  0.66920227  0.91234668  0.25445874  1
  Mg  Mg62  1  0.83200466  0.33412289  0.74995205  1
  Mg  Mg63  1  0.66447075  0.58629299  0.24508222  1
  Mg  Mg64  1  0.33039810  0.91625916  0.75174528  1
  Mg  Mg65  1  0.66465780  0.41551429  0.74800217  1
  Mg  Mg66  1  0.16371445  0.16484620  0.75041106  1
  Mg  Mg67  1  0.33329074  0.41715856  0.24656352  1
  Mg  Mg68  1  0.83119267  0.66697274  0.24917553  1
  Mg  Mg69  1  0.50250859  0.83327887  0.75119575  1
  Mg  Mg70  1  0.49964314  0.16575050  0.75174436  1
  Mg  Mg71  1  0.83327937  0.83276695  0.25149431  1
  Mg  Mg72  1  0.83206652  0.33397235  0.25155949  1
  Mg  Mg73  1  0.66858808  0.08241353  0.75669369  1
  Mg  Mg74  1  0.83143498  0.66923184  0.74342067  1
  Mg  Mg75  1  -0.00186789  0.91579844  0.75500331  1
  Mg  Mg76  1  0.50269688  0.83234155  0.25174225  1
  Mg  Mg77  1  0.50243040  0.33525712  0.74677728  1
  Mg  Mg78  1  0.16417258  0.83278284  0.75042987  1
  Mg  Mg79  1  0.16688649  0.33353900  0.74744392  1
  Mg  Mg80  1  0.00109914  0.58311107  0.24923249  1
  Mg  Mg81  1  0.33359263  0.91560841  0.25076238  1
  Mg  Mg82  1  0.16916764  0.16526329  0.25412337  1
  Mg  Mg83  1  0.16922954  0.66443000  0.24847838  1
  Mg  Mg84  1  0.16950398  0.33570775  0.25101662  1
  Mg  Mg85  1  0.00321193  0.41640754  0.25335823  1
  Mg  Mg86  1  0.00146110  0.91455887  0.25007664  1
  Mg  Mg87  1  0.50383337  0.66879820  0.74466507  1
  Mg  Mg88  1  0.66947640  0.91430322  0.75392100  1
  Mg  Mg89  1  0.49782670  0.16546095  0.24996000  1
  Mg  Mg90  1  0.83339148  0.16520788  0.25656853  1
  Mg  Mg91  1  0.16610971  0.83418754  0.24956941  1
  Mg  Mg92  1  0.33524455  0.41686240  0.74626983  1
  Mg  Mg93  1  0.66595750  0.58920737  0.74324967  1
  Mg  Mg94  1  0.83681243  0.16310629  0.75714197  1
  Mg  Mg95  1  -0.00074557  0.41553297  0.74687971  1
  Fe  Fe96  1  0.81410836  0.91214704  0.89547373  1
  Fe  Fe97  1  0.64345619  0.33495408  0.89128675  1
  Fe  Fe98  1  0.52557523  0.41299833  0.60465038  1
  Fe  Fe99  1  0.85748424  0.58071468  0.60560987  1
  Fe  Fe100  1  0.35530874  0.16351532  0.61050482  1
  Fe  Fe101  1  0.14039724  0.41632439  0.39229766  1
  Fe  Fe102  1  0.52818533  0.42143809  0.10431575  1
  Fe  Fe103  1  0.14486359  0.08041711  0.39423384  1
  Fe  Fe104  1  0.47906739  0.91577257  0.39289367  1
  Fe  Fe105  1  0.80353739  0.08369229  0.39411305  1
  Fe  Fe106  1  0.19248492  0.91655847  0.10897978  1
  Fe  Fe107  1  0.52212415  0.58951379  0.60367489  1
  Fe  Fe108  1  0.13501908  0.08620460  0.89039665  1
  Fe  Fe109  1  0.31224765  0.33165511  0.39071650  1
  Fe  Fe110  1  0.64080256  0.16084430  0.89472779  1
  Fe  Fe111  1  0.02145472  0.82835690  0.10769193  1
  Fe  Fe112  1  0.35663587  0.33006149  0.10358085  1
  Si  Si113  1  0.18361641  0.08564811  0.11459450  1
  Si  Si114  1  0.63458247  0.17234946  0.38901050  1
  Si  Si115  1  0.02485449  0.66617352  0.60958107  1
  Si  Si116  1  0.53252140  0.91183061  0.11650152  1
  Si  Si117  1  0.52785675  0.08167179  0.61501468  1
  Si  Si118  1  0.47556257  0.58569423  0.88277476  1
  Si  Si119  1  0.52360662  0.91630745  0.61675859  1
  Si  Si120  1  0.81109389  0.91235854  0.39038127  1
  Si  Si121  1  0.19381547  0.58506241  0.61271328  1
  Si  Si122  1  0.81022798  0.59082685  0.88172149  1
  Si  Si123  1  0.36354102  0.83468126  0.11232480  1
  Si  Si124  1  0.68888631  0.16624453  0.11812421  1
  Si  Si125  1  0.96795657  0.33719557  0.38814399  1
  Si  Si126  1  0.85909891  0.40957998  0.61101117  1
  Si  Si127  1  0.69816959  0.32450718  0.61228739  1
  Si  Si128  1  0.46687126  0.07904796  0.89059098  1
  Si  Si129  1  0.30781497  0.33401586  0.88110033  1
  Si  Si130  1  0.52610622  0.07772997  0.11633351  1
  Si  Si131  1  0.47980984  0.08437995  0.38653594  1
  Si  Si132  1  0.69324644  0.84086668  0.61722863  1
  Si  Si133  1  0.14351769  0.91369891  0.88773567  1
  Si  Si134  1  0.19201228  0.42123720  0.61272813  1
  Si  Si135  1  0.14344437  0.41420153  0.88320797  1
  Si  Si136  1  0.14596905  0.58679764  0.38661341  1
  Si  Si137  1  0.80180887  0.41553920  0.38382104  1
  Si  Si138  1  0.02280480  0.17210653  0.11697208  1
  Si  Si139  1  0.98172384  0.82551881  0.88773489  1
  Si  Si140  1  0.81078548  0.42544131  0.88576203  1
  Si  Si141  1  0.14127299  0.90836545  0.38985251  1
  Si  Si142  1  0.98188180  0.66313249  0.88377375  1
  Si  Si143  1  0.80800128  0.57993326  0.38309678  1
  Si  Si144  1  0.86341119  0.91776829  0.61866452  1
  Si  Si145  1  0.64394267  0.66387909  0.38150398  1
  Si  Si146  1  0.85933157  0.92409140  0.11541644  1
  Si  Si147  1  0.31147356  0.66726484  0.38222539  1
  Si  Si148  1  0.01702751  0.65938706  0.11043227  1
  Si  Si149  1  0.02324853  0.83142109  0.61415856  1
  Si  Si150  1  0.97366027  0.17153765  0.39254186  1
  Si  Si151  1  0.30546498  0.17023121  0.88686615  1
  Si  Si152  1  0.85860696  0.41286288  0.11659502  1
  Si  Si153  1  0.63675332  0.33741448  0.38419515  1
  Si  Si154  1  0.69969810  0.83537670  0.11708255  1
  Si  Si155  1  0.46876148  0.91283034  0.88761657  1
  Si  Si156  1  0.18833730  0.41968535  0.10851277  1
  Si  Si157  1  0.02933258  0.33346557  0.61317925  1
  Si  Si158  1  0.69636816  0.33101506  0.11413345  1
  Si  Si159  1  0.18814972  0.58552152  0.11249444  1
  Si  Si160  1  0.31530599  0.16740384  0.38848711  1
  Si  Si161  1  0.85831658  0.08898146  0.11865986  1
  Si  Si162  1  0.96883552  0.17447836  0.89308869  1
  Si  Si163  1  0.97325479  0.82833675  0.38578063  1
  Si  Si164  1  0.85374356  0.57660650  0.11354760  1
  Si  Si165  1  0.35383709  0.67372420  0.60948071  1
  Si  Si166  1  0.02691885  0.16977423  0.61547571  1
  Si  Si167  1  0.63694482  0.83427544  0.89009346  1
  Si  Si168  1  0.97467687  0.33898416  0.88554885  1
  Si  Si169  1  0.30777145  0.83003918  0.38741381  1
  Si  Si170  1  0.97410529  0.66360563  0.38324330  1
  Si  Si171  1  0.30542186  0.82834281  0.88592917  1
  Si  Si172  1  0.86698190  0.08429963  0.62107584  1
  Si  Si173  1  0.64566409  0.82738112  0.38838351  1
  Si  Si174  1  0.02389343  0.33669516  0.11547057  1
  Si  Si175  1  0.69767049  0.15860057  0.61882988  1
  Si  Si176  1  0.18665333  0.91631770  0.61688443  1
  Si  Si177  1  0.35797297  0.16161972  0.11219615  1
  Si  Si178  1  0.31015550  0.66414430  0.88324138  1
  Si  Si179  1  0.47486712  0.42369404  0.38446406  1
  Si  Si180  1  0.81130102  0.08411202  0.89482003  1
  Si  Si181  1  0.35402506  0.83865338  0.61584870  1
  Si  Si182  1  0.52453215  0.59283525  0.10725634  1
  Si  Si183  1  0.35551830  0.67013292  0.11265874  1
  Si  Si184  1  0.69510442  0.67492562  0.60580797  1
  Si  Si185  1  0.18716695  0.07904192  0.61367428  1
  Si  Si186  1  0.46906226  0.42032931  0.88372128  1
  Si  Si187  1  0.14365141  0.57723780  0.88300512  1
  Si  Si188  1  0.47802250  0.58665504  0.37981899  1
  Si  Si189  1  0.64129003  0.66792854  0.88234836  1
  Si  Si190  1  0.69609661  0.66994935  0.11312910  1
  Si  Si191  1  0.35133636  0.33227559  0.61051376  1
  O  O192  1  0.27029946  0.11436852  0.08924355  1
  O  O193  1  0.26487232  0.10088484  0.57782541  1
  O  O194  1  0.26811157  0.62381329  0.08393799  1
  O  O195  1  0.27115257  0.62165006  0.58143108  1
  O  O196  1  0.60507828  0.11776624  0.08825322  1
  O  O197  1  0.61556477  0.10843346  0.58990441  1
  O  O198  1  0.60168936  0.63942577  0.08146528  1
  O  O199  1  0.60888929  0.63598086  0.56934367  1
  O  O200  1  0.93625442  0.12585771  0.08787897  1
  O  O201  1  0.93913321  0.12634678  0.58591816  1
  O  O202  1  0.93937421  0.59989174  0.08531852  1
  O  O203  1  0.95140817  0.61536172  0.56992247  1
  O  O204  1  0.09899160  0.37427400  0.08291615  1
  O  O205  1  0.10847872  0.37152518  0.58468231  1
  O  O206  1  0.11366287  0.84983040  0.06993280  1
  O  O207  1  0.10585720  0.86480980  0.58589750  1
  O  O208  1  0.43848101  0.36945740  0.06057937  1
  O  O209  1  0.43180510  0.35241438  0.57690487  1
  O  O210  1  0.45205282  0.86046025  0.08692046  1
  O  O211  1  0.43643981  0.87017027  0.58707477  1
  O  O212  1  0.78687756  0.35246461  0.09032245  1
  O  O213  1  0.78693648  0.34762063  0.58678798  1
  O  O214  1  0.77269660  0.87816605  0.08637970  1
  O  O215  1  0.76950935  0.88354314  0.58660175  1
  O  O216  1  0.25736061  0.38471031  0.07019965  1
  O  O217  1  0.27542586  0.39325593  0.58583863  1
  O  O218  1  0.29229276  0.88920891  0.07695015  1
  O  O219  1  0.27106907  0.88940148  0.58753077  1
  O  O220  1  0.62783996  0.38625597  0.07724399  1
  O  O221  1  0.62149644  0.37225323  0.57412550  1
  O  O222  1  0.61049568  0.87541955  0.08546547  1
  O  O223  1  0.60258588  0.88202243  0.58596677  1
  O  O224  1  0.94162005  0.38769271  0.08626391  1
  O  O225  1  0.94464952  0.38004149  0.58391863  1
  O  O226  1  0.93423607  0.89590158  0.07994773  1
  O  O227  1  0.93668380  0.87621790  0.58288395  1
  O  O228  1  0.10443248  0.14288456  0.08722528  1
  O  O229  1  0.10327876  0.12934795  0.58585104  1
  O  O230  1  0.10083188  0.62979684  0.08119223  1
  O  O231  1  0.11350317  0.63791336  0.58617099  1
  O  O232  1  0.43562923  0.11516416  0.08587061  1
  O  O233  1  0.45226553  0.13212037  0.57782278  1
  O  O234  1  0.43494793  0.63670207  0.08081426  1
  O  O235  1  0.42870149  0.65060839  0.57185260  1
  O  O236  1  0.77224495  0.13564202  0.09069508  1
  O  O237  1  0.77664308  0.12352198  0.58821905  1
  O  O238  1  0.77075684  0.62586556  0.08230966  1
  O  O239  1  0.77170805  0.64435653  0.57044746  1
  O  O240  1  0.05182528  0.12142380  0.42630238  1
  O  O241  1  0.04833527  0.12786252  0.92932270  1
  O  O242  1  0.06237900  0.62228907  0.41336623  1
  O  O243  1  0.06342051  0.61004746  0.91414982  1
  O  O244  1  0.38881765  0.10405613  0.40751494  1
  O  O245  1  0.38360430  0.11490200  0.91517158  1
  O  O246  1  0.39464326  0.61610031  0.40910601  1
  O  O247  1  0.39984328  0.62473296  0.91545763  1
  O  O248  1  0.70937998  0.12117522  0.42648701  1
  O  O249  1  0.73141461  0.10107608  0.93160559  1
  O  O250  1  0.72595139  0.61158000  0.41115453  1
  O  O251  1  0.73229043  0.62804213  0.91287427  1
  O  O252  1  0.21912089  0.35103694  0.43068012  1
  O  O253  1  0.22383412  0.36151547  0.91046016  1
  O  O254  1  0.21836308  0.84983743  0.41346577  1
  O  O255  1  0.22771376  0.86305775  0.91600212  1
  O  O256  1  0.55712626  0.37134290  0.41287746  1
  O  O257  1  0.54791497  0.37521658  0.92118906  1
  O  O258  1  0.57050082  0.85342718  0.42593436  1
  O  O259  1  0.55373030  0.86775269  0.91942622  1
  O  O260  1  0.87706776  0.35867374  0.41200645  1
  O  O261  1  0.90143443  0.38406197  0.91439518  1
  O  O262  1  0.89433737  0.86096314  0.41682500  1
  O  O263  1  0.90670795  0.85001417  0.92570624  1
  O  O264  1  0.03542152  0.39624534  0.42056607  1
  O  O265  1  0.06286242  0.38319292  0.91375091  1
  O  O266  1  0.05924744  0.87156565  0.41753147  1
  O  O267  1  0.06665186  0.87376268  0.91669889  1
  O  O268  1  0.39752079  0.40117513  0.41982699  1
  O  O269  1  0.38194345  0.39192989  0.90856175  1
  O  O270  1  0.38062956  0.88374665  0.42358643  1
  O  O271  1  0.39256465  0.87104158  0.91687689  1
  O  O272  1  0.71846545  0.38912592  0.41302272  1
  O  O273  1  0.73850262  0.39478833  0.92315510  1
  O  O274  1  0.73234174  0.87336501  0.41805595  1
  O  O275  1  0.71808876  0.87584059  0.93035747  1
  O  O276  1  0.23766109  0.13975614  0.42402108  1
  O  O277  1  0.22774522  0.14861070  0.92284042  1
  O  O278  1  0.22799761  0.63984709  0.41240916  1
  O  O279  1  0.23048559  0.62401729  0.90993530  1
  O  O280  1  0.54659800  0.15046125  0.41449192  1
  O  O281  1  0.54845326  0.12048886  0.92888095  1
  O  O282  1  0.56045548  0.63688873  0.41140413  1
  O  O283  1  0.56594691  0.62492293  0.91344484  1
  O  O284  1  0.89026505  0.14949432  0.42300172  1
  O  O285  1  0.88361437  0.14768461  0.92026023  1
  O  O286  1  0.89486882  0.62531183  0.41145959  1
  O  O287  1  0.89799524  0.63438496  0.91262523  1
  O  O288  1  0.15902140  0.01007683  0.07751688  1
  O  O289  1  0.15913847  -0.00356722  0.58828951  1
  O  O290  1  0.17254658  0.50397457  0.08081022  1
  O  O291  1  0.17197954  0.50316829  0.58256171  1
  O  O292  1  0.52170262  -0.00534775  0.08706897  1
  O  O293  1  0.50978453  -0.00177495  0.58698416  1
  O  O294  1  0.51802455  0.51702932  0.06924494  1
  O  O295  1  0.50255091  0.50084199  0.56305510  1
  O  O296  1  0.83810797  0.00780759  0.09009809  1
  O  O297  1  0.86207811  0.00168291  0.59072331  1
  O  O298  1  0.83087497  0.49360269  0.08708020  1
  O  O299  1  0.83175851  0.48496159  0.57456663  1
  O  O300  1  0.00526462  0.25462651  0.08661299  1
  O  O301  1  0.01779330  0.25172300  0.58236689  1
  O  O302  1  -0.01610152  0.73439119  0.07699886  1
  O  O303  1  0.01182513  0.75021328  0.58144325  1
  O  O304  1  0.34349433  0.23509046  0.06963126  1
  O  O305  1  0.31286714  0.25492066  0.58404280  1
  O  O306  1  0.34236710  0.75207903  0.08148364  1
  O  O307  1  0.32774471  0.75796025  0.58634574  1
  O  O308  1  0.67304300  0.24795144  0.08881760  1
  O  O309  1  0.68278073  0.23981731  0.58684614  1
  O  O310  1  0.69777986  0.75318603  0.08612511  1
  O  O311  1  0.68634500  0.76124204  0.58247504  1
  O  O312  1  0.16206229  -0.01560183  0.42711369  1
  O  O313  1  0.16123215  -0.00844455  0.92227527  1
  O  O314  1  0.16666409  0.51142905  0.42393070  1
  O  O315  1  0.16279203  0.49551511  0.91451832  1
  O  O316  1  0.51226741  0.00958840  0.42351232  1
  O  O317  1  0.47220868  -0.00560677  0.91798477  1
  O  O318  1  0.50354060  0.50625080  0.40950351  1
  O  O319  1  0.48069492  0.50386009  0.91206539  1
  O  O320  1  0.82920552  -0.01051514  0.42648217  1
  O  O321  1  0.84992541  0.00669071  0.92190220  1
  O  O322  1  0.82597520  0.49742234  0.41171183  1
  O  O323  1  0.82788666  0.50940141  0.91230315  1
  O  O324  1  0.35584752  0.24149898  0.42227104  1
  O  O325  1  0.33528702  0.25394384  0.91007893  1
  O  O326  1  0.33317322  0.74732936  0.41492563  1
  O  O327  1  0.31620006  0.74557097  0.91516478  1
  O  O328  1  0.65611997  0.25641268  0.41490273  1
  O  O329  1  0.66413431  0.24927202  0.93579333  1
  O  O330  1  0.67024683  0.74344777  0.41238520  1
  O  O331  1  0.64343053  0.74849394  0.91566582  1
  O  O332  1  0.99482894  0.25642926  0.41607748  1
  O  O333  1  0.98311413  0.25972938  0.91997969  1
  O  O334  1  0.98479581  0.74515237  0.41377829  1
  O  O335  1  1.00827073  0.74207869  0.91480101  1
  O  O336  1  0.19746218  0.08347125  0.19425643  1
  O  O337  1  0.20896543  0.08243426  0.69430952  1
  O  O338  1  0.20283672  0.58380800  0.19202577  1
  O  O339  1  0.21624046  0.57783778  0.69188790  1
  O  O340  1  0.54566799  0.08052772  0.19664090  1
  O  O341  1  0.53986982  0.08183373  0.69572242  1
  O  O342  1  0.54340123  0.58727055  0.18790445  1
  O  O343  1  0.54400987  0.58559108  0.69628206  1
  O  O344  1  0.87871920  0.08714737  0.19913627  1
  O  O345  1  0.88386285  0.09080043  0.69948955  1
  O  O346  1  0.87352908  0.58132140  0.19398710  1
  O  O347  1  0.87808847  0.58116170  0.69742309  1
  O  O348  1  0.04035555  0.33457621  0.19563550  1
  O  O349  1  0.04479679  0.33392258  0.69380872  1
  O  O350  1  0.04362662  0.83189743  0.20060573  1
  O  O351  1  0.04332736  0.83103171  0.69404039  1
  O  O352  1  0.37762499  0.33439090  0.19562907  1
  O  O353  1  0.37397757  0.33463488  0.69243503  1
  O  O354  1  0.37767722  0.83079304  0.19293887  1
  O  O355  1  0.37503030  0.83692292  0.69625916  1
  O  O356  1  0.71078764  0.33303597  0.19530726  1
  O  O357  1  0.71254031  0.33072036  0.69306410  1
  O  O358  1  0.71520379  0.83565798  0.19676788  1
  O  O359  1  0.70620538  0.83800966  0.69562185  1
  O  O360  1  0.20735233  0.41882811  0.18888492  1
  O  O361  1  0.20875553  0.41846259  0.69350403  1
  O  O362  1  0.21072534  0.91522638  0.20135123  1
  O  O363  1  0.20839441  0.91606710  0.69714315  1
  O  O364  1  0.54360906  0.41828635  0.19675420  1
  O  O365  1  0.54462516  0.41823135  0.69714218  1
  O  O366  1  0.55007280  0.91381081  0.19648381  1
  O  O367  1  0.53939307  0.91669704  0.69706690  1
  O  O368  1  0.87721506  0.41601944  0.19712329  1
  O  O369  1  0.87745139  0.41426262  0.69235381  1
  O  O370  1  0.87629451  0.91869282  0.19664871  1
  O  O371  1  0.88476691  0.91070131  0.69649176  1
  O  O372  1  0.03853939  0.17076534  0.19727977  1
  O  O373  1  0.04613167  0.17502285  0.69447908  1
  O  O374  1  0.03955909  0.66237351  0.19164329  1
  O  O375  1  0.03340631  0.66538030  0.68904645  1
  O  O376  1  0.38139438  0.17228441  0.19150189  1
  O  O377  1  0.37774835  0.16416025  0.70268938  1
  O  O378  1  0.37712040  0.67009944  0.19203638  1
  O  O379  1  0.37453855  0.66912757  0.69047642  1
  O  O380  1  0.70746069  0.16678853  0.19848830  1
  O  O381  1  0.71437134  0.16361435  0.69881547  1
  O  O382  1  0.71430738  0.66366249  0.19249020  1
  O  O383  1  0.71237086  0.66467441  0.68586826  1
  O  O384  1  0.12176603  0.08276810  0.30251349  1
  O  O385  1  0.12350525  0.08545372  0.80017182  1
  O  O386  1  0.12386532  0.58425431  0.30545284  1
  O  O387  1  0.12034902  0.57449893  0.80385666  1
  O  O388  1  0.47134202  0.08170169  0.30667838  1
  O  O389  1  0.45447095  0.08005289  0.80970790  1
  O  O390  1  0.46217213  0.58585716  0.30006756  1
  O  O391  1  0.45649761  0.58648288  0.80265745  1
  O  O392  1  0.78752970  0.08263067  0.30231515  1
  O  O393  1  0.78622884  0.09135798  0.81460568  1
  O  O394  1  0.79016386  0.58179368  0.30267190  1
  O  O395  1  0.78954527  0.58622202  0.80187611  1
  O  O396  1  0.28857667  0.33616381  0.29814926  1
  O  O397  1  0.28859780  0.33470800  0.80055365  1
  O  O398  1  0.29148899  0.82932501  0.30644865  1
  O  O399  1  0.29022272  0.83103271  0.80571997  1
  O  O400  1  0.62281724  0.33507068  0.30376644  1
  O  O401  1  0.62388125  0.33311226  0.79912704  1
  O  O402  1  0.62451458  0.83370956  0.30833207  1
  O  O403  1  0.61747295  0.83814768  0.81035269  1
  O  O404  1  0.95323741  0.33584720  0.30659242  1
  O  O405  1  0.95786078  0.33611194  0.80500996  1
  O  O406  1  0.95516441  0.83054540  0.30546818  1
  O  O407  1  0.96307709  0.82883709  0.80802226  1
  O  O408  1  0.12251122  0.41802704  0.29928924  1
  O  O409  1  0.12416866  0.41589500  0.80278185  1
  O  O410  1  0.12049842  0.91358098  0.30931578  1
  O  O411  1  0.12759266  0.91413577  0.80703461  1
  O  O412  1  0.45758037  0.42039038  0.30383147  1
  O  O413  1  0.45493787  0.41931038  0.80302235  1
  O  O414  1  0.45738653  0.91317807  0.30126724  1
  O  O415  1  0.45270830  0.91441031  0.80720184  1
  O  O416  1  0.78585171  0.41719041  0.30305932  1
  O  O417  1  0.79203409  0.41953704  0.80473401  1
  O  O418  1  0.79327813  0.91509127  0.30921789  1
  O  O419  1  0.78287517  0.90816438  0.80862921  1
  O  O420  1  0.28751419  0.17549856  0.30839064  1
  O  O421  1  0.28702091  0.16833862  0.80591694  1
  O  O422  1  0.28944738  0.66854009  0.30259204  1
  O  O423  1  0.29947518  0.66619449  0.80407058  1
  O  O424  1  0.62393154  0.16895523  0.30794280  1
  O  O425  1  0.61912739  0.16596858  0.80189935  1
  O  O426  1  0.62398418  0.66295803  0.30179611  1
  O  O427  1  0.62253288  0.66660066  0.80307041  1
  O  O428  1  0.95666616  0.16865350  0.31058622  1
  O  O429  1  0.95536782  0.17455704  0.81294240  1
  O  O430  1  0.95598339  0.66439260  0.30265125  1
  O  O431  1  0.96238162  0.66300488  0.80397798  1
  F  F432  1  0.04149110  -0.00063757  0.20431461  1
  F  F433  1  0.04661790  -0.01004204  0.69932273  1
  F  F434  1  0.04206403  0.50076752  0.20091681  1
  F  F435  1  0.04613300  0.49766651  0.69845713  1
  F  F436  1  0.38475220  -0.00902700  0.19812586  1
  F  F437  1  0.37723509  -0.00091779  0.70495327  1
  F  F438  1  0.37878214  0.49851835  0.19578371  1
  F  F439  1  0.37946114  0.50155711  0.70009108  1
  F  F440  1  0.71200696  -0.00245697  0.20400263  1
  F  F441  1  0.69929851  0.00114558  0.70411659  1
  F  F442  1  0.71241439  0.50044333  0.19902787  1
  F  F443  1  0.71237083  0.49922701  0.70053786  1
  F  F444  1  0.20720836  0.24923831  0.20053101  1
  F  F445  1  0.21023028  0.24991976  0.70174678  1
  F  F446  1  0.21117898  0.74896941  0.20106195  1
  F  F447  1  0.21666001  0.76054291  0.69702589  1
  F  F448  1  0.54733989  0.24894509  0.20161353  1
  F  F449  1  0.54353539  0.24860924  0.69947592  1
  F  F450  1  0.54413493  0.75115006  0.20062427  1
  F  F451  1  0.53698018  0.75409377  0.69834529  1
  F  F452  1  0.87761159  0.24960562  0.20620398  1
  F  F453  1  0.87999270  0.25084915  0.70506264  1
  F  F454  1  0.87801754  0.74905102  0.20081195  1
  F  F455  1  0.88201264  0.74578797  0.69716636  1
  F  F456  1  0.28484914  -0.00995294  0.30442851  1
  F  F457  1  0.28616053  -0.00069657  0.79874586  1
  F  F458  1  0.28764613  0.49932518  0.29439354  1
  F  F459  1  0.28954070  0.50046764  0.79624040  1
  F  F460  1  0.62445932  -0.00281818  0.29988424  1
  F  F461  1  0.61625536  -0.00037361  0.80280504  1
  F  F462  1  0.62223825  0.50344908  0.29382782  1
  F  F463  1  0.62519105  0.50297033  0.79775650  1
  F  F464  1  0.95452802  -0.00118518  0.30042917  1
  F  F465  1  0.97475172  -0.00470724  0.81093272  1
  F  F466  1  0.95262837  0.50159299  0.29768248  1
  F  F467  1  0.95643958  0.49691584  0.79650474  1
  F  F468  1  0.11969355  0.25228259  0.29843716  1
  F  F469  1  0.12191579  0.25384517  0.79890275  1
  F  F470  1  0.12037593  0.74464112  0.29704752  1
  F  F471  1  0.11797223  0.75550298  0.79984070  1
  F  F472  1  0.45777553  0.25121763  0.29642988  1
  F  F473  1  0.45434528  0.25424380  0.79731831  1
  F  F474  1  0.45546428  0.74817118  0.29737022  1
  F  F475  1  0.45313826  0.74958539  0.79691263  1
  F  F476  1  0.78612753  0.25181970  0.29983709  1
  F  F477  1  0.78859025  0.25310461  0.79919722  1
  F  F478  1  0.79522781  0.74808758  0.29971536  1
  F  F479  1  0.79123008  0.74188670  0.79884600  1
