# generated using pymatgen
data_K24Na3Li5Mg64Fe17Si79(O5F)48
_symmetry_space_group_name_H-M   'P 1'
_cell_length_a   16.09341915
_cell_length_b   18.59208942
_cell_length_c   20.55404209
_cell_angle_alpha   89.99767552
_cell_angle_beta   100.02632801
_cell_angle_gamma   90.01297631
_symmetry_Int_Tables_number   1
_chemical_formula_structural   K24Na3Li5Mg64Fe17Si79(O5F)48
_chemical_formula_sum   'K24 Na3 Li5 Mg64 Fe17 Si79 O240 F48'
_cell_volume   6056.05730314
_cell_formula_units_Z   1
loop_
 _symmetry_equiv_pos_site_id
 _symmetry_equiv_pos_as_xyz
  1  'x, y, z'
loop_
 _atom_site_type_symbol
 _atom_site_label
 _atom_site_symmetry_multiplicity
 _atom_site_fract_x
 _atom_site_fract_y
 _atom_site_fract_z
 _atom_site_occupancy
  K  K0  1  -0.00465619  -0.01107949  -0.00407088  1
  K  K1  1  0.00654167  -0.00630179  0.51083795  1
  K  K2  1  -0.00720378  0.49939017  -0.00459069  1
  K  K3  1  -0.00014011  0.50570719  0.50112005  1
  K  K4  1  0.33084949  0.00179070  -0.00513450  1
  K  K5  1  0.33603868  0.00113755  0.50748446  1
  K  K6  1  0.33459056  0.50880271  0.00126719  1
  K  K7  1  0.34202786  0.49262244  0.49914226  1
  K  K8  1  0.66302872  -0.00530811  -0.00458736  1
  K  K9  1  0.65850567  -0.00947080  0.50466696  1
  K  K10  1  0.66580982  0.50403072  0.00021138  1
  K  K11  1  0.66786440  0.49549775  0.49997232  1
  K  K12  1  0.17041465  0.26224428  -0.00711213  1
  K  K13  1  0.16190151  0.25440983  0.51176205  1
  K  K14  1  0.16880578  0.74466674  -0.00637104  1
  K  K15  1  0.15761420  0.74753050  0.50198558  1
  K  K16  1  0.49615730  0.25500005  -0.00803792  1
  K  K17  1  0.50431255  0.26088292  0.50291316  1
  K  K18  1  0.50634357  0.73540259  -0.00223648  1
  K  K19  1  0.49990402  0.75172960  0.49846543  1
  K  K20  1  0.82602735  0.26258874  -0.01170756  1
  K  K21  1  0.83494300  0.25602463  0.50678695  1
  K  K22  1  0.83060024  0.75285779  0.00016228  1
  K  K23  1  0.84137720  0.74542044  0.50469085  1
  Na  Na24  1  0.00133393  0.74811214  0.75090586  1
  Na  Na25  1  0.33410486  0.08439616  0.74546900  1
  Na  Na26  1  0.83319476  0.33032215  0.24413382  1
  Li  Li27  1  0.33363195  0.24800542  0.74622956  1
  Li  Li28  1  -0.01117412  0.74631672  0.24686813  1
  Li  Li29  1  -0.00165034  0.58459164  0.75153397  1
  Li  Li30  1  0.67292748  0.41620324  0.74771367  1
  Li  Li31  1  0.83483682  0.66899310  0.24140143  1
  Mg  Mg32  1  0.66994991  0.25418061  0.75041966  1
  Mg  Mg33  1  0.33166301  0.74881123  0.75365587  1
  Mg  Mg34  1  -0.00072844  0.24982644  0.24613987  1
  Mg  Mg35  1  0.49842122  -0.00198744  0.25570216  1
  Mg  Mg36  1  0.16450571  0.50098582  0.74869347  1
  Mg  Mg37  1  0.50097934  0.50027927  0.24963100  1
  Mg  Mg38  1  0.66690141  0.24934528  0.24926078  1
  Mg  Mg39  1  0.33181090  0.75065884  0.25546233  1
  Mg  Mg40  1  0.66635886  0.75031718  0.75726993  1
  Mg  Mg41  1  0.83354076  0.50127006  0.74958898  1
  Mg  Mg42  1  0.00253418  0.25171514  0.74379637  1
  Mg  Mg43  1  0.66672171  0.74855047  0.25257901  1
  Mg  Mg44  1  0.50237295  0.49750490  0.75012726  1
  Mg  Mg45  1  0.16774859  0.00159164  0.74505001  1
  Mg  Mg46  1  0.16514105  -0.00415082  0.25342048  1
  Mg  Mg47  1  0.33290618  0.25154112  0.24935290  1
  Mg  Mg48  1  0.16522704  0.50213752  0.24872083  1
  Mg  Mg49  1  0.83226396  0.50249492  0.24673273  1
  Mg  Mg50  1  0.83388964  -0.00140974  0.75149038  1
  Mg  Mg51  1  0.83254747  -0.00207782  0.25072981  1
  Mg  Mg52  1  0.50133975  0.00043776  0.75385531  1
  Mg  Mg53  1  0.33234012  0.58274750  0.75138543  1
  Mg  Mg54  1  0.83554506  0.83360834  0.75611527  1
  Mg  Mg55  1  0.49902429  0.16564086  0.25028857  1
  Mg  Mg56  1  0.16641922  0.16476059  0.24971725  1
  Mg  Mg57  1  0.00004792  0.91498452  0.74996241  1
  Mg  Mg58  1  0.16591457  0.33557717  0.24792394  1
  Mg  Mg59  1  0.16234678  0.66800470  0.25215779  1
  Mg  Mg60  1  0.16821543  0.16879363  0.74302539  1
  Mg  Mg61  1  -0.00334655  0.41780507  0.24567811  1
  Mg  Mg62  1  0.66840947  0.58082559  0.75458255  1
  Mg  Mg63  1  0.50407402  0.66503100  0.25406111  1
  Mg  Mg64  1  0.66709703  0.41559814  0.24556572  1
  Mg  Mg65  1  0.16714683  0.33278153  0.74326079  1
  Mg  Mg66  1  -0.00629367  0.58810010  0.24690462  1
  Mg  Mg67  1  0.66667948  0.08270969  0.24969629  1
  Mg  Mg68  1  0.50106644  0.83406743  0.25776314  1
  Mg  Mg69  1  0.50009266  0.66480232  0.75516920  1
  Mg  Mg70  1  -0.00044949  0.41797292  0.74407817  1
  Mg  Mg71  1  0.33337828  0.08332799  0.25254479  1
  Mg  Mg72  1  0.49949954  0.16918557  0.75126330  1
  Mg  Mg73  1  -0.00241732  0.91131294  0.25190297  1
  Mg  Mg74  1  0.66908462  0.58726396  0.24922032  1
  Mg  Mg75  1  0.33426671  0.91722426  0.75197780  1
  Mg  Mg76  1  0.50253433  0.83387344  0.75768089  1
  Mg  Mg77  1  0.66557066  0.91377871  0.25517120  1
  Mg  Mg78  1  0.16422485  0.66456237  0.75265176  1
  Mg  Mg79  1  0.33508984  0.58504646  0.25326877  1
  Mg  Mg80  1  0.33433413  0.91367931  0.25730039  1
  Mg  Mg81  1  0.16666915  0.83392212  0.74939130  1
  Mg  Mg82  1  0.00108576  0.08582295  0.74440971  1
  Mg  Mg83  1  -0.00031180  0.08242349  0.24891335  1
  Mg  Mg84  1  0.33375005  0.41256481  0.74587116  1
  Mg  Mg85  1  0.50286926  0.33289036  0.74884288  1
  Mg  Mg86  1  0.66849308  0.08527993  0.75197973  1
  Mg  Mg87  1  0.83444142  0.16696913  0.74664135  1
  Mg  Mg88  1  0.83357958  0.16522017  0.24726266  1
  Mg  Mg89  1  0.83497678  0.66607659  0.75314992  1
  Mg  Mg90  1  0.16425355  0.83051593  0.25541636  1
  Mg  Mg91  1  0.83189465  0.82941166  0.24969297  1
  Mg  Mg92  1  0.66986647  0.91488864  0.75793872  1
  Mg  Mg93  1  0.49834744  0.33541154  0.24592638  1
  Mg  Mg94  1  0.33528120  0.41577454  0.24827032  1
  Mg  Mg95  1  0.83293378  0.33767249  0.74597957  1
  Fe  Fe96  1  0.81081998  0.41681700  0.88834984  1
  Fe  Fe97  1  0.47818618  0.41218704  0.38904889  1
  Fe  Fe98  1  0.85912695  0.58192582  0.10609032  1
  Fe  Fe99  1  0.97536176  0.66695122  0.89111904  1
  Fe  Fe100  1  0.35441953  0.33139495  0.10667033  1
  Fe  Fe101  1  0.30605086  0.66807796  0.89094733  1
  Fe  Fe102  1  0.64630639  0.83392026  0.39685237  1
  Fe  Fe103  1  0.30133180  0.83146755  0.39614168  1
  Fe  Fe104  1  0.02745299  0.83280787  0.60854446  1
  Fe  Fe105  1  0.81372656  0.92028862  0.89585309  1
  Fe  Fe106  1  0.52730289  0.58319169  0.11012678  1
  Fe  Fe107  1  0.64747420  0.66403207  0.39501588  1
  Fe  Fe108  1  0.47222593  0.92261736  0.39863754  1
  Fe  Fe109  1  0.69151287  0.33352829  0.60806723  1
  Fe  Fe110  1  0.02330382  0.33977142  0.60383521  1
  Fe  Fe111  1  0.63858056  0.83162026  0.89841790  1
  Fe  Fe112  1  0.02192574  0.16282604  0.60282013  1
  Si  Si113  1  0.64857166  0.16756988  0.38314102  1
  Si  Si114  1  0.02554763  0.33253404  0.11143892  1
  Si  Si115  1  0.85193337  0.07696042  0.61180360  1
  Si  Si116  1  0.97603443  0.33206013  0.38036613  1
  Si  Si117  1  0.18857520  0.91433970  0.11722790  1
  Si  Si118  1  0.80778964  0.58639632  0.88938725  1
  Si  Si119  1  0.52191544  0.91666325  0.11677489  1
  Si  Si120  1  0.02979948  0.66744945  0.11322326  1
  Si  Si121  1  0.13487885  0.58474610  0.38470304  1
  Si  Si122  1  0.98074372  0.16928563  0.88155887  1
  Si  Si123  1  0.02721589  0.65876048  0.61262690  1
  Si  Si124  1  0.35926839  0.66895417  0.61668492  1
  Si  Si125  1  0.63767499  0.33220165  0.88694917  1
  Si  Si126  1  0.30373369  0.16735791  0.38526953  1
  Si  Si127  1  0.30576578  0.66043106  0.38961453  1
  Si  Si128  1  0.14526607  0.08602697  0.88280013  1
  Si  Si129  1  0.35577162  0.83474736  0.11812074  1
  Si  Si130  1  0.85884458  0.91735524  0.11562471  1
  Si  Si131  1  0.64949132  0.33084538  0.38398624  1
  Si  Si132  1  0.81328324  0.08479548  0.38349028  1
  Si  Si133  1  0.19705787  0.08483899  0.60805450  1
  Si  Si134  1  0.29898481  0.33284033  0.38680604  1
  Si  Si135  1  0.64269654  0.16773820  0.88654905  1
  Si  Si136  1  0.14101697  0.57775769  0.88992865  1
  Si  Si137  1  0.69387224  0.67349836  0.10985779  1
  Si  Si138  1  0.97704800  0.16832759  0.38304338  1
  Si  Si139  1  0.69140558  0.32738236  0.11183879  1
  Si  Si140  1  0.68980127  0.83869809  0.11601381  1
  Si  Si141  1  0.30768318  0.16970877  0.88154892  1
  Si  Si142  1  0.52615733  0.08036840  0.61666263  1
  Si  Si143  1  0.46875819  0.92127076  0.89155181  1
  Si  Si144  1  0.30585443  0.83908042  0.88779234  1
  Si  Si145  1  0.85898194  0.08298267  0.11309883  1
  Si  Si146  1  0.02635602  0.16585042  0.11296911  1
  Si  Si147  1  0.96365058  0.83291796  0.38472364  1
  Si  Si148  1  0.36676833  0.16959902  0.61360395  1
  Si  Si149  1  0.18745692  0.42252139  0.11119661  1
  Si  Si150  1  0.81468542  0.09201523  0.88776263  1
  Si  Si151  1  0.98215660  0.83785974  0.89200762  1
  Si  Si152  1  0.13996480  0.07993211  0.38554897  1
  Si  Si153  1  0.47223196  0.41234966  0.88293148  1
  Si  Si154  1  0.18913669  0.07794381  0.11566540  1
  Si  Si155  1  0.52840123  0.91604238  0.62114917  1
  Si  Si156  1  0.20068702  0.91817481  0.61145361  1
  Si  Si157  1  0.47882079  0.09473259  0.38959271  1
  Si  Si158  1  0.02443566  0.83247828  0.11741465  1
  Si  Si159  1  0.35302433  0.16067833  0.11270543  1
  Si  Si160  1  0.47728636  0.08650373  0.88630246  1
  Si  Si161  1  0.81103945  0.57629047  0.38640795  1
  Si  Si162  1  0.68873761  0.66800004  0.61922309  1
  Si  Si163  1  0.36525178  0.83285974  0.61995640  1
  Si  Si164  1  0.14535857  0.41500701  0.88211404  1
  Si  Si165  1  0.19317997  0.58819571  0.11729035  1
  Si  Si166  1  0.80797688  0.92267267  0.38753580  1
  Si  Si167  1  0.97017139  0.66754500  0.38238503  1
  Si  Si168  1  0.68883009  0.16301406  0.61229816  1
  Si  Si169  1  0.98030603  0.33224204  0.88304929  1
  Si  Si170  1  0.85296084  0.91344840  0.61425906  1
  Si  Si171  1  0.30666154  0.33209591  0.88049378  1
  Si  Si172  1  0.13519325  0.41921677  0.38328336  1
  Si  Si173  1  0.19522879  0.58206519  0.61308707  1
  Si  Si174  1  0.52219939  0.08111174  0.11520303  1
  Si  Si175  1  0.36509053  0.33279444  0.61250737  1
  Si  Si176  1  0.47280553  0.58303773  0.39080705  1
  Si  Si177  1  0.69029601  0.83131544  0.62019646  1
  Si  Si178  1  0.68943035  0.16221305  0.11214854  1
  Si  Si179  1  0.52834091  0.41068293  0.10624635  1
  Si  Si180  1  0.14241311  0.92281408  0.88430763  1
  Si  Si181  1  0.35829364  0.66992263  0.11684548  1
  Si  Si182  1  0.20027062  0.41753760  0.60853029  1
  Si  Si183  1  0.47289617  0.57659317  0.88699913  1
  Si  Si184  1  0.63969687  0.65916684  0.88972850  1
  Si  Si185  1  0.81154816  0.41558687  0.38006154  1
  Si  Si186  1  0.12903174  0.91388038  0.38978928  1
  Si  Si187  1  0.85726918  0.42440313  0.60629920  1
  Si  Si188  1  0.52448738  0.42094176  0.61302624  1
  Si  Si189  1  0.52319054  0.58567163  0.61704951  1
  Si  Si190  1  0.85691627  0.41247449  0.10933626  1
  Si  Si191  1  0.85296019  0.58735944  0.61599245  1
  O  O192  1  0.27281419  0.10487181  0.08706921  1
  O  O193  1  0.28065698  0.12392810  0.58466259  1
  O  O194  1  0.27645405  0.61719508  0.08941832  1
  O  O195  1  0.26954322  0.62957479  0.58573286  1
  O  O196  1  0.60261198  0.11560553  0.08505732  1
  O  O197  1  0.60864197  0.10731360  0.58682139  1
  O  O198  1  0.61312499  0.62678118  0.07324994  1
  O  O199  1  0.60429098  0.61963618  0.58857545  1
  O  O200  1  0.93682179  0.12384728  0.08452786  1
  O  O201  1  0.92926633  0.09891223  0.57540460  1
  O  O202  1  0.95764610  0.61475039  0.07603698  1
  O  O203  1  0.93563308  0.61669484  0.58573784  1
  O  O204  1  0.10117940  0.37443554  0.08269083  1
  O  O205  1  0.11648202  0.37924714  0.57003466  1
  O  O206  1  0.10357910  0.86875837  0.08598126  1
  O  O207  1  0.11743093  0.87746968  0.57382188  1
  O  O208  1  0.45354442  0.35446585  0.07577465  1
  O  O209  1  0.43986183  0.37302092  0.58097080  1
  O  O210  1  0.43534123  0.87077532  0.08775123  1
  O  O211  1  0.44753316  0.86491029  0.59216750  1
  O  O212  1  0.77839336  0.35381312  0.08795569  1
  O  O213  1  0.78149828  0.37140486  0.57172127  1
  O  O214  1  0.76847256  0.87843184  0.08721045  1
  O  O215  1  0.77000537  0.86126423  0.58867344  1
  O  O216  1  0.26150768  0.39253660  0.07467590  1
  O  O217  1  0.27912534  0.37688572  0.58094298  1
  O  O218  1  0.27128837  0.88383913  0.08857224  1
  O  O219  1  0.28442650  0.88141808  0.58769791  1
  O  O220  1  0.61327252  0.37848186  0.07813504  1
  O  O221  1  0.59871978  0.39348216  0.57592142  1
  O  O222  1  0.60327846  0.88552334  0.08739530  1
  O  O223  1  0.60937946  0.88419270  0.59189059  1
  O  O224  1  0.93632025  0.37086696  0.08127200  1
  O  O225  1  0.93937595  0.40783594  0.57259477  1
  O  O226  1  0.93789499  0.87911589  0.08791713  1
  O  O227  1  0.92771627  0.88686525  0.57664746  1
  O  O228  1  0.10469968  0.12579960  0.08500918  1
  O  O229  1  0.11447955  0.12351917  0.56669178  1
  O  O230  1  0.11882920  0.64478732  0.08743845  1
  O  O231  1  0.10222728  0.61418801  0.58016092  1
  O  O232  1  0.43596243  0.12592842  0.08538272  1
  O  O233  1  0.44388396  0.12860817  0.58307376  1
  O  O234  1  0.43318126  0.64337290  0.08034129  1
  O  O235  1  0.43793927  0.63277489  0.58650733  1
  O  O236  1  0.76902624  0.12388755  0.08375330  1
  O  O237  1  0.76993683  0.12864899  0.58397294  1
  O  O238  1  0.77470955  0.64964652  0.07735149  1
  O  O239  1  0.77001807  0.63946298  0.58785321  1
  O  O240  1  0.06174918  0.12102506  0.41225010  1
  O  O241  1  0.06215233  0.11702642  0.91169386  1
  O  O242  1  0.05830809  0.62344352  0.41513355  1
  O  O243  1  0.05740843  0.59579630  0.92112664  1
  O  O244  1  0.39801779  0.13629427  0.41467470  1
  O  O245  1  0.39629652  0.12537511  0.91230731  1
  O  O246  1  0.38100463  0.60179340  0.41460490  1
  O  O247  1  0.39771530  0.60636280  0.92207905  1
  O  O248  1  0.72815008  0.11279643  0.41091973  1
  O  O249  1  0.73281294  0.12787996  0.91609301  1
  O  O250  1  0.73462441  0.59627245  0.42485110  1
  O  O251  1  0.71605792  0.60206875  0.91380276  1
  O  O252  1  0.21980635  0.37320166  0.41401626  1
  O  O253  1  0.22663920  0.36310498  0.91210488  1
  O  O254  1  0.20099164  0.86087257  0.42566348  1
  O  O255  1  0.22273294  0.87183548  0.91546531  1
  O  O256  1  0.57202841  0.35236524  0.42023441  1
  O  O257  1  0.55188412  0.36096658  0.91400191  1
  O  O258  1  0.55719139  0.86220381  0.43770266  1
  O  O259  1  0.54195794  0.87011618  0.92949178  1
  O  O260  1  0.89075326  0.35944310  0.40570512  1
  O  O261  1  0.90551271  0.35633831  0.92124048  1
  O  O262  1  0.88327308  0.86459359  0.41555546  1
  O  O263  1  0.90918354  0.86539688  0.93234455  1
  O  O264  1  0.05596608  0.38335799  0.41250255  1
  O  O265  1  0.06531846  0.38087715  0.91179387  1
  O  O266  1  0.04126224  0.88820361  0.41425724  1
  O  O267  1  0.06183119  0.89640584  0.91612221  1
  O  O268  1  0.38520620  0.37021461  0.42203417  1
  O  O269  1  0.39030389  0.38023847  0.91175087  1
  O  O270  1  0.37749226  0.89965392  0.43406004  1
  O  O271  1  0.37891662  0.89993005  0.91472803  1
  O  O272  1  0.73151215  0.38271046  0.41103600  1
  O  O273  1  0.71762161  0.37782112  0.92346998  1
  O  O274  1  0.72702780  0.90941780  0.42126812  1
  O  O275  1  0.72562761  0.89068915  0.93660687  1
  O  O276  1  0.23112387  0.11923322  0.41331356  1
  O  O277  1  0.23008429  0.13311944  0.91519295  1
  O  O278  1  0.22156582  0.62712756  0.41600206  1
  O  O279  1  0.21744186  0.62923975  0.92746850  1
  O  O280  1  0.56289264  0.14721403  0.41251939  1
  O  O281  1  0.56600138  0.12862047  0.91848314  1
  O  O282  1  0.54233495  0.64227096  0.42197282  1
  O  O283  1  0.55763445  0.62320417  0.91567489  1
  O  O284  1  0.89346377  0.13865421  0.41073184  1
  O  O285  1  0.89678286  0.14629481  0.91264801  1
  O  O286  1  0.89466305  0.62826872  0.41416702  1
  O  O287  1  0.87234553  0.64936848  0.92103626  1
  O  O288  1  0.17005574  -0.00368909  0.08676850  1
  O  O289  1  0.20070057  0.00081886  0.58169328  1
  O  O290  1  0.16740766  0.50693279  0.08814261  1
  O  O291  1  0.20332162  0.50160045  0.58174461  1
  O  O292  1  0.50674910  -0.00094170  0.08579904  1
  O  O293  1  0.50790720  -0.00292489  0.59014093  1
  O  O294  1  0.50809367  0.48959327  0.07396228  1
  O  O295  1  0.50249585  0.50491105  0.58711209  1
  O  O296  1  0.85281920  0.00028217  0.08487342  1
  O  O297  1  0.82081696  -0.00519558  0.58839129  1
  O  O298  1  0.83404485  0.48681334  0.07049512  1
  O  O299  1  0.82777176  0.50812560  0.58345997  1
  O  O300  1  0.02129017  0.24825995  0.08387481  1
  O  O301  1  -0.00284538  0.25124415  0.56266351  1
  O  O302  1  0.01093473  0.75162151  0.08709609  1
  O  O303  1  0.01853504  0.73687672  0.57606135  1
  O  O304  1  0.32712664  0.23576994  0.07624486  1
  O  O305  1  0.35630098  0.25089579  0.57990193  1
  O  O306  1  0.33401558  0.75341535  0.08982287  1
  O  O307  1  0.35035221  0.75166441  0.58890145  1
  O  O308  1  0.67558103  0.24370895  0.08183204  1
  O  O309  1  0.66520806  0.23853911  0.57517161  1
  O  O310  1  0.67441966  0.75913071  0.08450624  1
  O  O311  1  0.66663456  0.75016389  0.59110057  1
  O  O312  1  0.14514799  -0.00133527  0.41574990  1
  O  O313  1  0.16426170  0.00494474  0.91441399  1
  O  O314  1  0.14486992  0.50128564  0.41306391  1
  O  O315  1  0.16859608  0.49362224  0.91515010  1
  O  O316  1  0.49805303  0.02022708  0.42780029  1
  O  O317  1  0.48567783  0.00552607  0.91903022  1
  O  O318  1  0.49944661  0.50451581  0.42362431  1
  O  O319  1  0.49271993  0.49302756  0.91279427  1
  O  O320  1  0.84318592  0.00504676  0.41151071  1
  O  O321  1  0.83809117  0.01717267  0.92549527  1
  O  O322  1  0.84172052  0.49347573  0.41330668  1
  O  O323  1  0.84001067  0.50901744  0.92085217  1
  O  O324  1  0.29568604  0.24869272  0.41341601  1
  O  O325  1  0.32367620  0.25112472  0.91371757  1
  O  O326  1  0.32912967  0.73622660  0.42630875  1
  O  O327  1  0.33078759  0.76302148  0.92382573  1
  O  O328  1  0.67998219  0.24791528  0.40844354  1
  O  O329  1  0.64974792  0.24875602  0.91791872  1
  O  O330  1  0.69027333  0.74896013  0.43437883  1
  O  O331  1  0.65801970  0.73544260  0.92691328  1
  O  O332  1  0.99655776  0.25028251  0.41011591  1
  O  O333  1  1.00944135  0.24946116  0.90980061  1
  O  O334  1  0.98203169  0.75048252  0.41351346  1
  O  O335  1  1.01741918  0.75978503  0.91899813  1
  O  O336  1  0.20688807  0.08123791  0.19614739  1
  O  O337  1  0.20080566  0.08419724  0.68721756  1
  O  O338  1  0.21066697  0.58518997  0.19797334  1
  O  O339  1  0.21218904  0.58112278  0.69312630  1
  O  O340  1  0.54131800  0.08264263  0.19563139  1
  O  O341  1  0.54416106  0.08348769  0.69694415  1
  O  O342  1  0.54339468  0.58229702  0.20156376  1
  O  O343  1  0.54076107  0.58530322  0.69726826  1
  O  O344  1  0.87682559  0.08213569  0.19352810  1
  O  O345  1  0.87385306  0.08222964  0.69303882  1
  O  O346  1  0.87777921  0.58054350  0.19662419  1
  O  O347  1  0.86906462  0.58530001  0.69512266  1
  O  O348  1  0.04454346  0.33180150  0.19198157  1
  O  O349  1  0.04537470  0.33433786  0.69596539  1
  O  O350  1  0.04595489  0.83753570  0.19678124  1
  O  O351  1  0.05035393  0.84130633  0.69823797  1
  O  O352  1  0.37380734  0.33069486  0.19848197  1
  O  O353  1  0.38199829  0.33467964  0.69196152  1
  O  O354  1  0.37564675  0.83526483  0.19807251  1
  O  O355  1  0.38034759  0.83188158  0.70039575  1
  O  O356  1  0.69904077  0.32709467  0.19091311  1
  O  O357  1  0.71333069  0.32951143  0.69807268  1
  O  O358  1  0.70895169  0.83881883  0.19602336  1
  O  O359  1  0.70787164  0.83275649  0.70009398  1
  O  O360  1  0.20742068  0.41696054  0.19235593  1
  O  O361  1  0.21344684  0.41616781  0.68915545  1
  O  O362  1  0.20710377  0.91690861  0.19744156  1
  O  O363  1  0.21378570  0.91760058  0.69230385  1
  O  O364  1  0.54473497  0.41242104  0.18786134  1
  O  O365  1  0.53928843  0.41713703  0.69292008  1
  O  O366  1  0.54085981  0.91953473  0.19669432  1
  O  O367  1  0.54568513  0.91746698  0.70126128  1
  O  O368  1  0.88145833  0.42096632  0.18864247  1
  O  O369  1  0.87669269  0.41783319  0.68732291  1
  O  O370  1  0.87617957  0.91934555  0.19578820  1
  O  O371  1  0.87627078  0.91525840  0.69500879  1
  O  O372  1  0.04484514  0.16402538  0.19351890  1
  O  O373  1  0.04408163  0.16685861  0.69524543  1
  O  O374  1  0.04608719  0.66413841  0.19335472  1
  O  O375  1  0.05297140  0.65930962  0.69123703  1
  O  O376  1  0.37329205  0.16336290  0.19388487  1
  O  O377  1  0.38766018  0.17327151  0.69183949  1
  O  O378  1  0.37561066  0.66852004  0.19788831  1
  O  O379  1  0.37860435  0.66621267  0.69676993  1
  O  O380  1  0.70883914  0.16240833  0.19236927  1
  O  O381  1  0.70881768  0.16508904  0.69360088  1
  O  O382  1  0.70486005  0.67027368  0.19024833  1
  O  O383  1  0.70534185  0.66710757  0.69940371  1
  O  O384  1  0.12254094  0.08212500  0.30465187  1
  O  O385  1  0.12657629  0.08474325  0.80295169  1
  O  O386  1  0.12015741  0.58298308  0.30447833  1
  O  O387  1  0.13229047  0.58060761  0.80956399  1
  O  O388  1  0.45692543  0.08752665  0.30815752  1
  O  O389  1  0.46750952  0.08463503  0.80745212  1
  O  O390  1  0.45483481  0.58220099  0.30898281  1
  O  O391  1  0.45481747  0.58011128  0.80597881  1
  O  O392  1  0.79222704  0.08366433  0.30262819  1
  O  O393  1  0.79297413  0.08722818  0.80684878  1
  O  O394  1  0.78743017  0.57750907  0.30660961  1
  O  O395  1  0.78892623  0.58478027  0.80797131  1
  O  O396  1  0.28453058  0.33268384  0.30567802  1
  O  O397  1  0.28832818  0.33479610  0.80111369  1
  O  O398  1  0.28567919  0.83344411  0.30323932  1
  O  O399  1  0.29106769  0.83554459  0.80684420  1
  O  O400  1  0.62489483  0.33141624  0.30301657  1
  O  O401  1  0.62135656  0.32942999  0.80724000  1
  O  O402  1  0.62178160  0.83418585  0.30324682  1
  O  O403  1  0.62138165  0.83366354  0.80594127  1
  O  O404  1  0.96746365  0.33120669  0.30110133  1
  O  O405  1  0.95830408  0.33271142  0.80257265  1
  O  O406  1  0.94919070  0.83663556  0.30528525  1
  O  O407  1  0.95427821  0.84423024  0.81207585  1
  O  O408  1  0.12182703  0.41732731  0.30274788  1
  O  O409  1  0.12741256  0.41558911  0.80210199  1
  O  O410  1  0.11851527  0.91642320  0.30857655  1
  O  O411  1  0.12549937  0.92162417  0.80432726  1
  O  O412  1  0.45615509  0.41570550  0.29730632  1
  O  O413  1  0.45548749  0.41403756  0.80273662  1
  O  O414  1  0.45447712  0.91872489  0.30479028  1
  O  O415  1  0.45756946  0.91886273  0.81074605  1
  O  O416  1  0.78731007  0.42018018  0.30087686  1
  O  O417  1  0.79400138  0.41712984  0.79849535  1
  O  O418  1  0.78994251  0.91987417  0.30624435  1
  O  O419  1  0.79026964  0.91915676  0.80336541  1
  O  O420  1  0.28740237  0.16608576  0.30429823  1
  O  O421  1  0.28398985  0.17110510  0.80352687  1
  O  O422  1  0.28755332  0.66482667  0.30832262  1
  O  O423  1  0.28948536  0.66507792  0.79942347  1
  O  O424  1  0.62488303  0.16430531  0.30246886  1
  O  O425  1  0.62539645  0.16678177  0.80631303  1
  O  O426  1  0.62459934  0.66688943  0.30245792  1
  O  O427  1  0.62116520  0.66526652  0.80862554  1
  O  O428  1  0.95891356  0.16522986  0.30239146  1
  O  O429  1  0.95866810  0.16643172  0.80153135  1
  O  O430  1  0.95759139  0.66633464  0.30386005  1
  O  O431  1  0.95123955  0.66015659  0.80362278  1
  F  F432  1  0.04476139  -0.00075296  0.20226345  1
  F  F433  1  0.04513791  0.00082316  0.70023755  1
  F  F434  1  0.04701852  0.49964925  0.20054502  1
  F  F435  1  0.05063421  0.49614764  0.69785419  1
  F  F436  1  0.37603433  0.00192856  0.20444121  1
  F  F437  1  0.38723229  -0.01059381  0.70003943  1
  F  F438  1  0.37544129  0.50267977  0.20145513  1
  F  F439  1  0.37985823  0.50018230  0.70133039  1
  F  F440  1  0.71080392  0.00027043  0.20187633  1
  F  F441  1  0.70993930  0.00165916  0.70496032  1
  F  F442  1  0.71008062  0.49976103  0.19835314  1
  F  F443  1  0.71143157  0.50684964  0.70072207  1
  F  F444  1  0.20992911  0.24828207  0.20097085  1
  F  F445  1  0.20808857  0.25102311  0.69349851  1
  F  F446  1  0.21087999  0.74930667  0.20341245  1
  F  F447  1  0.21527371  0.75276576  0.69952124  1
  F  F448  1  0.54374623  0.24579288  0.20169711  1
  F  F449  1  0.54902522  0.24907861  0.70164554  1
  F  F450  1  0.54050803  0.75271782  0.20328973  1
  F  F451  1  0.54278647  0.74901087  0.70639481  1
  F  F452  1  0.88463161  0.23629359  0.19369488  1
  F  F453  1  0.87866352  0.24971687  0.69986872  1
  F  F454  1  0.87561335  0.75866437  0.19515184  1
  F  F455  1  0.86303126  0.75222427  0.70140016  1
  F  F456  1  0.28523803  0.00238044  0.30007634  1
  F  F457  1  0.28359145  -0.00560371  0.79878716  1
  F  F458  1  0.28559125  0.49764808  0.29700277  1
  F  F459  1  0.28868981  0.49600239  0.79476991  1
  F  F460  1  0.62143204  0.00287213  0.29828815  1
  F  F461  1  0.62340225  0.00304038  0.80212737  1
  F  F462  1  0.62153277  0.49422344  0.29588946  1
  F  F463  1  0.61714690  0.50245433  0.80007746  1
  F  F464  1  0.95489890  0.00162650  0.29718659  1
  F  F465  1  0.95671101  0.00397829  0.79535271  1
  F  F466  1  0.95726766  0.49738222  0.29756914  1
  F  F467  1  0.95420968  0.49364358  0.79439060  1
  F  F468  1  0.12109985  0.24837210  0.29530564  1
  F  F469  1  0.12411415  0.25038211  0.79599891  1
  F  F470  1  0.12447819  0.74873965  0.30225354  1
  F  F471  1  0.13890812  0.75085798  0.80252145  1
  F  F472  1  0.45382813  0.24723829  0.29759392  1
  F  F473  1  0.46262925  0.25109643  0.80120433  1
  F  F474  1  0.45256973  0.74933034  0.30051764  1
  F  F475  1  0.45403723  0.74882045  0.80243778  1
  F  F476  1  0.78514412  0.23849397  0.29735356  1
  F  F477  1  0.79147906  0.24671027  0.79833881  1
  F  F478  1  0.78580827  0.75381165  0.29806741  1
  F  F479  1  0.78637102  0.75089030  0.80302039  1
