# generated using pymatgen
data_K24Na3Li5Mg64Fe17Si79(O5F)48
_symmetry_space_group_name_H-M   'P 1'
_cell_length_a   16.10758239
_cell_length_b   18.60619471
_cell_length_c   20.56608421
_cell_angle_alpha   90.00272324
_cell_angle_beta   99.99635741
_cell_angle_gamma   89.98234962
_symmetry_Int_Tables_number   1
_chemical_formula_structural   K24Na3Li5Mg64Fe17Si79(O5F)48
_chemical_formula_sum   'K24 Na3 Li5 Mg64 Fe17 Si79 O240 F48'
_cell_volume   6070.09989830
_cell_formula_units_Z   1
loop_
 _symmetry_equiv_pos_site_id
 _symmetry_equiv_pos_as_xyz
  1  'x, y, z'
loop_
 _atom_site_type_symbol
 _atom_site_label
 _atom_site_symmetry_multiplicity
 _atom_site_fract_x
 _atom_site_fract_y
 _atom_site_fract_z
 _atom_site_occupancy
  K  K0  1  -0.00265737  -0.00004011  -0.00458173  1
  K  K1  1  -0.00564088  0.00178896  0.50710269  1
  K  K2  1  -0.01198050  0.49041885  -0.00991200  1
  K  K3  1  -0.00313396  0.50470469  0.51175707  1
  K  K4  1  0.32935786  -0.01005962  -0.00653471  1
  K  K5  1  0.34489429  0.00389956  0.50745523  1
  K  K6  1  0.33744971  0.49910289  -0.01221132  1
  K  K7  1  0.33307736  0.50249843  0.51653871  1
  K  K8  1  0.67472869  -0.00372339  0.00609183  1
  K  K9  1  0.67851784  0.00023781  0.49873349  1
  K  K10  1  0.65899534  0.50182156  -0.01177334  1
  K  K11  1  0.67982044  0.49481780  0.51278838  1
  K  K12  1  0.15465988  0.25684798  -0.00889958  1
  K  K13  1  0.16542517  0.24421642  0.50535659  1
  K  K14  1  0.15972642  0.75452084  -0.00859079  1
  K  K15  1  0.16834050  0.74199293  0.50805123  1
  K  K16  1  0.50553669  0.24708543  -0.00857762  1
  K  K17  1  0.50341480  0.24738892  0.50734693  1
  K  K18  1  0.50873210  0.75557428  -0.00740593  1
  K  K19  1  0.50913305  0.74746177  0.50854979  1
  K  K20  1  0.84019172  0.25456659  -0.00711416  1
  K  K21  1  0.83829972  0.24741896  0.50926710  1
  K  K22  1  0.82005069  0.74577626  -0.00244994  1
  K  K23  1  0.83294919  0.75140547  0.49931517  1
  Na  Na24  1  -0.00102337  0.25184703  0.24367658  1
  Na  Na25  1  0.49622065  0.66584334  0.75526765  1
  Na  Na26  1  -0.00027312  0.08068745  0.74968371  1
  Li  Li27  1  0.67236221  0.75844998  0.25497833  1
  Li  Li28  1  0.83176532  0.49198442  0.75162363  1
  Li  Li29  1  0.83454548  0.34084963  0.75149899  1
  Li  Li30  1  0.67382665  0.91085679  0.25465326  1
  Li  Li31  1  0.33353628  0.58237593  0.74745170  1
  Mg  Mg32  1  0.50035172  0.50133479  0.25264865  1
  Mg  Mg33  1  0.33483235  0.75212096  0.24987775  1
  Mg  Mg34  1  0.16418690  -0.00196086  0.74959367  1
  Mg  Mg35  1  0.33284405  0.24912849  0.24912828  1
  Mg  Mg36  1  0.66488926  0.74863544  0.75304370  1
  Mg  Mg37  1  0.49994092  0.00126734  0.74852998  1
  Mg  Mg38  1  0.67063131  0.25411395  0.75120072  1
  Mg  Mg39  1  -0.00093434  0.74692790  0.75015556  1
  Mg  Mg40  1  0.16453992  0.00097617  0.24871952  1
  Mg  Mg41  1  0.49685679  0.50152662  0.75317037  1
  Mg  Mg42  1  0.33605488  0.25060199  0.74860784  1
  Mg  Mg43  1  0.83355432  0.50280056  0.25092609  1
  Mg  Mg44  1  -0.00317121  0.24943036  0.74386401  1
  Mg  Mg45  1  0.83403594  -0.00161838  0.75226997  1
  Mg  Mg46  1  0.16678969  0.49950267  0.24697309  1
  Mg  Mg47  1  0.33215025  0.74694113  0.74850159  1
  Mg  Mg48  1  0.16904792  0.50057509  0.74516240  1
  Mg  Mg49  1  0.50385488  -0.00048615  0.25147938  1
  Mg  Mg50  1  0.66712856  0.24899561  0.25591723  1
  Mg  Mg51  1  -0.00212135  0.75098338  0.25207948  1
  Mg  Mg52  1  0.82704020  -0.00154562  0.25021229  1
  Mg  Mg53  1  0.67101238  0.41645267  0.75215679  1
  Mg  Mg54  1  0.33555948  0.91596053  0.25054713  1
  Mg  Mg55  1  0.16443830  0.83315662  0.75104225  1
  Mg  Mg56  1  -0.00475446  0.08587390  0.24722946  1
  Mg  Mg57  1  -0.00304786  0.58010515  0.74447838  1
  Mg  Mg58  1  0.16559556  0.33406521  0.74614082  1
  Mg  Mg59  1  0.83398501  0.83259184  0.75297141  1
  Mg  Mg60  1  0.33340375  0.58597481  0.24961123  1
  Mg  Mg61  1  0.83603710  0.16898759  0.74988948  1
  Mg  Mg62  1  0.50294033  0.16532744  0.25478502  1
  Mg  Mg63  1  0.50036260  0.83311456  0.75193129  1
  Mg  Mg64  1  0.50882069  0.83513511  0.24943547  1
  Mg  Mg65  1  -0.00001656  0.41695634  0.24506280  1
  Mg  Mg66  1  0.66718524  0.58735211  0.25305973  1
  Mg  Mg67  1  0.16355138  0.16701181  0.24530012  1
  Mg  Mg68  1  0.50178617  0.16688762  0.75079479  1
  Mg  Mg69  1  0.83159380  0.67010260  0.25126662  1
  Mg  Mg70  1  0.33204300  0.91458405  0.74986665  1
  Mg  Mg71  1  0.16586883  0.66631404  0.25025558  1
  Mg  Mg72  1  0.16473488  0.83503839  0.24919233  1
  Mg  Mg73  1  0.83449442  0.33515336  0.24976394  1
  Mg  Mg74  1  0.33320746  0.08451878  0.74788145  1
  Mg  Mg75  1  0.66771981  0.58166817  0.75405969  1
  Mg  Mg76  1  0.33361187  0.08296124  0.24979065  1
  Mg  Mg77  1  0.66843996  0.91566429  0.75351339  1
  Mg  Mg78  1  0.66789907  0.41685711  0.25468031  1
  Mg  Mg79  1  0.33521647  0.41878350  0.74787630  1
  Mg  Mg80  1  0.83208583  0.66127440  0.75103010  1
  Mg  Mg81  1  -0.00491082  0.91643440  0.25001282  1
  Mg  Mg82  1  0.50166274  0.33380916  0.25481448  1
  Mg  Mg83  1  -0.00009863  0.91446656  0.75110858  1
  Mg  Mg84  1  0.50276119  0.33582457  0.75052046  1
  Mg  Mg85  1  0.83287607  0.16644071  0.25206493  1
  Mg  Mg86  1  -0.00079937  0.58608117  0.25056569  1
  Mg  Mg87  1  0.16614664  0.33387776  0.24493665  1
  Mg  Mg88  1  0.50255977  0.66934623  0.25098742  1
  Mg  Mg89  1  0.66967927  0.08312166  0.25668885  1
  Mg  Mg90  1  0.33372826  0.41653745  0.24827450  1
  Mg  Mg91  1  0.16643446  0.16500112  0.74799559  1
  Mg  Mg92  1  -0.00371869  0.41620641  0.74563267  1
  Mg  Mg93  1  0.82756844  0.83628705  0.25138875  1
  Mg  Mg94  1  0.67069028  0.08497810  0.75098743  1
  Mg  Mg95  1  0.16829945  0.66377070  0.74544905  1
  Fe  Fe96  1  0.02875882  0.33586940  0.10470090  1
  Fe  Fe97  1  0.47152140  0.41713625  0.89156699  1
  Fe  Fe98  1  0.19249354  0.58500078  0.60655530  1
  Fe  Fe99  1  0.81517119  0.08366887  0.39469311  1
  Fe  Fe100  1  0.68627613  0.82859691  0.11117678  1
  Fe  Fe101  1  0.63657407  0.16815148  0.39614540  1
  Fe  Fe102  1  0.13762442  0.91617041  0.89109401  1
  Fe  Fe103  1  0.64255678  0.33104949  0.89280621  1
  Fe  Fe104  1  0.85793389  0.91540294  0.10855121  1
  Fe  Fe105  1  0.85753337  0.41312869  0.60817267  1
  Fe  Fe106  1  0.81339684  0.90862004  0.39483022  1
  Fe  Fe107  1  0.36188313  0.16571598  0.60925505  1
  Fe  Fe108  1  0.85485366  0.08476652  0.61146458  1
  Fe  Fe109  1  0.81101914  0.91477667  0.89037940  1
  Fe  Fe110  1  0.97299712  0.33571561  0.88400752  1
  Fe  Fe111  1  0.98120242  0.66470839  0.39100447  1
  Fe  Fe112  1  0.64329496  0.66882879  0.89279063  1
  Si  Si113  1  0.14847545  0.41500823  0.38304911  1
  Si  Si114  1  0.14381106  0.58231368  0.88076607  1
  Si  Si115  1  0.36232361  0.33201184  0.11590680  1
  Si  Si116  1  0.85367312  0.08777019  0.11165349  1
  Si  Si117  1  0.30299267  0.16445021  0.38163981  1
  Si  Si118  1  0.81201426  0.58345241  0.88862586  1
  Si  Si119  1  0.36049582  0.33544928  0.61041018  1
  Si  Si120  1  0.80575348  0.58593701  0.38897412  1
  Si  Si121  1  0.52488176  0.42060835  0.61402756  1
  Si  Si122  1  0.03064875  0.83199637  0.11290646  1
  Si  Si123  1  0.36260410  0.66930758  0.11525028  1
  Si  Si124  1  0.20133042  0.42162355  0.10961247  1
  Si  Si125  1  0.64192662  0.34111240  0.39136236  1
  Si  Si126  1  0.52369940  0.08827515  0.11590592  1
  Si  Si127  1  0.02560771  0.66535993  0.11416105  1
  Si  Si128  1  0.63563875  0.82885918  0.39063188  1
  Si  Si129  1  0.85589433  0.58634279  0.61147825  1
  Si  Si130  1  0.47091290  0.41995409  0.38669734  1
  Si  Si131  1  0.14539326  0.08472976  0.88704342  1
  Si  Si132  1  0.19324703  0.07855272  0.11261727  1
  Si  Si133  1  0.97840323  0.34098754  0.38299593  1
  Si  Si134  1  0.03101143  0.32908988  0.60763884  1
  Si  Si135  1  0.69043737  0.33653327  0.11837503  1
  Si  Si136  1  0.97254787  0.82332504  0.88902585  1
  Si  Si137  1  0.02663510  0.15991618  0.10896178  1
  Si  Si138  1  0.19528787  0.58765487  0.11344451  1
  Si  Si139  1  0.52798445  0.91543101  0.61618309  1
  Si  Si140  1  0.19031392  0.91248307  0.61411486  1
  Si  Si141  1  0.19296750  0.41430120  0.60936609  1
  Si  Si142  1  0.47327240  0.08272670  0.88544692  1
  Si  Si143  1  0.69045575  0.17080206  0.61556671  1
  Si  Si144  1  0.97932881  0.65954490  0.88363101  1
  Si  Si145  1  0.14704562  0.57659347  0.38580324  1
  Si  Si146  1  0.47180728  0.91367574  0.38642546  1
  Si  Si147  1  0.53247834  0.08059550  0.61289891  1
  Si  Si148  1  0.03193454  0.16447238  0.61120280  1
  Si  Si149  1  0.46583695  0.08006106  0.38765373  1
  Si  Si150  1  0.63549562  0.66243189  0.38770110  1
  Si  Si151  1  0.97561522  0.17424603  0.38541477  1
  Si  Si152  1  0.36475785  0.83464584  0.11541956  1
  Si  Si153  1  0.30128739  0.33348120  0.88380488  1
  Si  Si154  1  0.81166950  0.41953443  0.38660216  1
  Si  Si155  1  0.98696030  0.83043201  0.39019937  1
  Si  Si156  1  0.30986261  0.32912190  0.38294787  1
  Si  Si157  1  0.69107679  0.66523593  0.61547129  1
  Si  Si158  1  0.69090262  0.82869670  0.61699327  1
  Si  Si159  1  0.85460033  0.42003981  0.11207018  1
  Si  Si160  1  0.52300981  0.57792430  0.11732879  1
  Si  Si161  1  0.52463273  0.41447035  0.11894591  1
  Si  Si162  1  0.13745908  0.08804558  0.38272347  1
  Si  Si163  1  0.19764195  0.91246899  0.11545949  1
  Si  Si164  1  0.69007279  0.17174391  0.11716008  1
  Si  Si165  1  0.35691150  0.16722929  0.11514135  1
  Si  Si166  1  0.35971393  0.83490963  0.61326104  1
  Si  Si167  1  0.46851360  0.58501872  0.38674594  1
  Si  Si168  1  0.68439291  0.33318895  0.61264418  1
  Si  Si169  1  0.30481840  0.67004846  0.38499271  1
  Si  Si170  1  0.81437197  0.08313352  0.88792049  1
  Si  Si171  1  0.46799317  0.91787506  0.88379547  1
  Si  Si172  1  0.02044984  0.66992215  0.61044404  1
  Si  Si173  1  0.85560462  0.58557335  0.11465686  1
  Si  Si174  1  0.30302827  0.83568793  0.38495907  1
  Si  Si175  1  0.36161237  0.67009231  0.61043830  1
  Si  Si176  1  0.46931949  0.58342863  0.89162792  1
  Si  Si177  1  0.02188110  0.83384577  0.61492240  1
  Si  Si178  1  0.30736666  0.16841856  0.88454966  1
  Si  Si179  1  0.52759420  0.58289280  0.61642848  1
  Si  Si180  1  0.97699679  0.17019758  0.88556288  1
  Si  Si181  1  0.14062446  0.92299378  0.38468703  1
  Si  Si182  1  0.63780123  0.84142887  0.88946211  1
  Si  Si183  1  0.64565360  0.15917569  0.88882468  1
  Si  Si184  1  0.80557851  0.41906625  0.88933570  1
  Si  Si185  1  0.19396574  0.07751017  0.61123829  1
  Si  Si186  1  0.30488490  0.66740286  0.88319040  1
  Si  Si187  1  0.68616963  0.65994834  0.11544826  1
  Si  Si188  1  0.52328870  0.92356821  0.11312227  1
  Si  Si189  1  0.13970104  0.41979092  0.88025054  1
  Si  Si190  1  0.30664442  0.83004837  0.88630484  1
  Si  Si191  1  0.85452768  0.91286764  0.61412741  1
  O  O192  1  0.27260260  0.11913082  0.08572995  1
  O  O193  1  0.27110689  0.10401387  0.57612651  1
  O  O194  1  0.27036922  0.63275422  0.08585272  1
  O  O195  1  0.28104838  0.62822410  0.56886009  1
  O  O196  1  0.60310077  0.12556177  0.08721971  1
  O  O197  1  0.61608169  0.11152163  0.58722502  1
  O  O198  1  0.60838956  0.60032281  0.09004739  1
  O  O199  1  0.60667639  0.61806499  0.58478019  1
  O  O200  1  0.93555899  0.12042325  0.08177532  1
  O  O201  1  0.95219173  0.11578065  0.58030550  1
  O  O202  1  0.93752954  0.62151017  0.08695859  1
  O  O203  1  0.93185974  0.62812756  0.58135776  1
  O  O204  1  0.12045280  0.37971691  0.07187179  1
  O  O205  1  0.11684833  0.35747526  0.58076244  1
  O  O206  1  0.11790866  0.86085866  0.08773009  1
  O  O207  1  0.10459453  0.86597946  0.58618283  1
  O  O208  1  0.44756176  0.35910448  0.08969351  1
  O  O209  1  0.43837754  0.37668552  0.58241038  1
  O  O210  1  0.43506625  0.87801588  0.08309649  1
  O  O211  1  0.43677856  0.87718787  0.58506048  1
  O  O212  1  0.76721295  0.37336374  0.08802001  1
  O  O213  1  0.75874173  0.35905639  0.57406893  1
  O  O214  1  0.77593741  0.85262589  0.07000654  1
  O  O215  1  0.77308437  0.85820885  0.58792556  1
  O  O216  1  0.28656620  0.38720216  0.08575929  1
  O  O217  1  0.27729664  0.38481627  0.58188164  1
  O  O218  1  0.27590432  0.87572254  0.08621766  1
  O  O219  1  0.26981293  0.87651102  0.58316805  1
  O  O220  1  0.60726236  0.38649292  0.09075733  1
  O  O221  1  0.60098362  0.38414031  0.58162446  1
  O  O222  1  0.59581596  0.89277345  0.07682901  1
  O  O223  1  0.60402577  0.87411186  0.58669364  1
  O  O224  1  0.92728575  0.38670011  0.07656834  1
  O  O225  1  0.95067905  0.37509012  0.57219290  1
  O  O226  1  0.95724857  0.88344095  0.07782690  1
  O  O227  1  0.93796323  0.88118065  0.58541339  1
  O  O228  1  0.10326896  0.11453376  0.08019318  1
  O  O229  1  0.11277685  0.12812878  0.58185196  1
  O  O230  1  0.10394593  0.62558105  0.08492060  1
  O  O231  1  0.09381127  0.63855418  0.57409770  1
  O  O232  1  0.43852173  0.13663082  0.08570147  1
  O  O233  1  0.45125368  0.12352559  0.57445734  1
  O  O234  1  0.43892372  0.62683782  0.08758767  1
  O  O235  1  0.44648432  0.63447239  0.58597862  1
  O  O236  1  0.77043547  0.14119502  0.08644313  1
  O  O237  1  0.76964179  0.15203229  0.58065111  1
  O  O238  1  0.77089736  0.63182085  0.08578497  1
  O  O239  1  0.76942341  0.63446645  0.58275115  1
  O  O240  1  0.06071632  0.12386063  0.41362555  1
  O  O241  1  0.05940524  0.11615303  0.91062750  1
  O  O242  1  0.06751421  0.59587952  0.41958808  1
  O  O243  1  0.06104116  0.60763422  0.91245670  1
  O  O244  1  0.37593151  0.10610477  0.41035078  1
  O  O245  1  0.39509097  0.12309623  0.91405996  1
  O  O246  1  0.39428528  0.62998205  0.41506570  1
  O  O247  1  0.38117652  0.61451117  0.91601223  1
  O  O248  1  0.72286504  0.10992678  0.43254421  1
  O  O249  1  0.72739816  0.10672787  0.91599932  1
  O  O250  1  0.71991718  0.61460973  0.41608020  1
  O  O251  1  0.74078719  0.61446299  0.92831588  1
  O  O252  1  0.22812617  0.36065239  0.41179215  1
  O  O253  1  0.21360181  0.35995168  0.90827262  1
  O  O254  1  0.22620801  0.87546061  0.41382297  1
  O  O255  1  0.23273959  0.85836636  0.92391190  1
  O  O256  1  0.56475598  0.38908882  0.41587949  1
  O  O257  1  0.55435290  0.35705454  0.93467423  1
  O  O258  1  0.55191796  0.86422465  0.41903516  1
  O  O259  1  0.54967691  0.87016079  0.91392038  1
  O  O260  1  0.89844255  0.37395732  0.41510181  1
  O  O261  1  0.88331427  0.36716294  0.92270691  1
  O  O262  1  0.90625288  0.84576700  0.42466073  1
  O  O263  1  0.88657402  0.83875562  0.91760684  1
  O  O264  1  0.06398327  0.38933866  0.41155293  1
  O  O265  1  0.06097266  0.40153659  0.91580800  1
  O  O266  1  0.06152058  0.89299548  0.41577798  1
  O  O267  1  0.04744270  0.87598000  0.92536161  1
  O  O268  1  0.39602548  0.37435506  0.41369452  1
  O  O269  1  0.37414750  0.38378204  0.92286109  1
  O  O270  1  0.38980621  0.87900074  0.41453495  1
  O  O271  1  0.38933144  0.88175703  0.91308753  1
  O  O272  1  0.73024095  0.38676528  0.41504466  1
  O  O273  1  0.72654084  0.39797581  0.92599883  1
  O  O274  1  0.71792175  0.86976637  0.42841647  1
  O  O275  1  0.70681225  0.90206658  0.91718833  1
  O  O276  1  0.21960399  0.13907028  0.41093786  1
  O  O277  1  0.22823469  0.13706461  0.91675408  1
  O  O278  1  0.22855657  0.62994045  0.41314060  1
  O  O279  1  0.22008299  0.63856585  0.91172015  1
  O  O280  1  0.53724297  0.13243803  0.42442537  1
  O  O281  1  0.56233365  0.12226092  0.91610677  1
  O  O282  1  0.55804249  0.62233079  0.41834718  1
  O  O283  1  0.54374424  0.63986291  0.92214884  1
  O  O284  1  0.90148020  0.15306825  0.42448825  1
  O  O285  1  0.89276550  0.13952305  0.91395859  1
  O  O286  1  0.88290942  0.63559386  0.42326770  1
  O  O287  1  0.90043365  0.62990113  0.91609107  1
  O  O288  1  0.18955104  -0.00519249  0.08582793  1
  O  O289  1  0.17321492  -0.00625101  0.58426352  1
  O  O290  1  0.19772138  0.50638783  0.08407899  1
  O  O291  1  0.17097508  0.49078466  0.57290857  1
  O  O292  1  0.50370730  0.00768857  0.08537037  1
  O  O293  1  0.52183742  -0.00355992  0.58536215  1
  O  O294  1  0.49804462  0.49549587  0.09142255  1
  O  O295  1  0.51081574  0.50258015  0.58165342  1
  O  O296  1  0.83115665  0.01078091  0.07788674  1
  O  O297  1  0.82954708  -0.01058395  0.58051502  1
  O  O298  1  0.83900710  0.50389912  0.08517046  1
  O  O299  1  0.84175768  0.50935344  0.57477583  1
  O  O300  1  0.02400114  0.23910930  0.07710020  1
  O  O301  1  0.02094944  0.24591643  0.57838596  1
  O  O302  1  0.01941362  0.74755367  0.08521370  1
  O  O303  1  0.00404943  0.75365820  0.58358614  1
  O  O304  1  0.33963520  0.25020570  0.08775334  1
  O  O305  1  0.34593735  0.25866637  0.57254825  1
  O  O306  1  0.35877114  0.75171983  0.08675545  1
  O  O307  1  0.35706787  0.75477675  0.58007078  1
  O  O308  1  0.67167011  0.25481713  0.08917384  1
  O  O309  1  0.65339171  0.25046533  0.58916240  1
  O  O310  1  0.65279803  0.73388975  0.08066053  1
  O  O311  1  0.67148511  0.74748976  0.58608598  1
  O  O312  1  0.15889960  0.00607919  0.41165972  1
  O  O313  1  0.16600567  0.00879129  0.92546949  1
  O  O314  1  0.17982679  0.49491978  0.41071240  1
  O  O315  1  0.17353882  0.50141354  0.90758629  1
  O  O316  1  0.47998784  -0.00376212  0.41524976  1
  O  O317  1  0.47674387  0.00012260  0.91469699  1
  O  O318  1  0.46568983  0.50240425  0.41453670  1
  O  O319  1  0.48858063  0.50808161  0.93252229  1
  O  O320  1  0.84894987  -0.00402847  0.43205511  1
  O  O321  1  0.84655142  0.00690848  0.92088995  1
  O  O322  1  0.82303337  0.50187147  0.41528258  1
  O  O323  1  0.83563452  0.50166667  0.91560590  1
  O  O324  1  0.32744773  0.24619434  0.40945558  1
  O  O325  1  0.32155493  0.25042574  0.91300350  1
  O  O326  1  0.31097269  0.75283330  0.41356785  1
  O  O327  1  0.32927363  0.74802747  0.91476932  1
  O  O328  1  0.64729842  0.26526065  0.42790561  1
  O  O329  1  0.66536432  0.23519693  0.92543551  1
  O  O330  1  0.64032863  0.74357037  0.41906704  1
  O  O331  1  0.66066409  0.76448767  0.92418197  1
  O  O332  1  1.00315041  0.25877610  0.40784411  1
  O  O333  1  1.00217257  0.24533721  0.92349120  1
  O  O334  1  1.02999152  0.75413029  0.41741083  1
  O  O335  1  1.00470384  0.74014403  0.91265525  1
  O  O336  1  0.21158020  0.08115412  0.19325114  1
  O  O337  1  0.21201559  0.07967310  0.69220537  1
  O  O338  1  0.21224531  0.58626409  0.19427508  1
  O  O339  1  0.20908845  0.58340154  0.69646045  1
  O  O340  1  0.53846725  0.08648498  0.19589380  1
  O  O341  1  0.54331967  0.08238325  0.69376228  1
  O  O342  1  0.53952398  0.58217285  0.19790434  1
  O  O343  1  0.54665526  0.57730333  0.69490816  1
  O  O344  1  0.87574282  0.08751093  0.19232100  1
  O  O345  1  0.86550010  0.08085265  0.70075108  1
  O  O346  1  0.87540029  0.58395541  0.19510657  1
  O  O347  1  0.87687370  0.58822559  0.69121989  1
  O  O348  1  0.05219476  0.34434206  0.19474392  1
  O  O349  1  0.04703579  0.33212312  0.68813919  1
  O  O350  1  0.04621189  0.83173420  0.19418232  1
  O  O351  1  0.04124764  0.83058801  0.69502480  1
  O  O352  1  0.37840476  0.33300987  0.19662516  1
  O  O353  1  0.37721638  0.33114259  0.69094131  1
  O  O354  1  0.37801886  0.83391254  0.19586283  1
  O  O355  1  0.37541331  0.83550663  0.69326737  1
  O  O356  1  0.70720540  0.33622793  0.19904943  1
  O  O357  1  0.70414686  0.33577979  0.69220661  1
  O  O358  1  0.70908202  0.83150353  0.20033999  1
  O  O359  1  0.70786116  0.83085265  0.69674375  1
  O  O360  1  0.21552709  0.41981915  0.19101647  1
  O  O361  1  0.21055424  0.41487650  0.69015973  1
  O  O362  1  0.21325708  0.91581043  0.19596997  1
  O  O363  1  0.21238962  0.91327312  0.69409517  1
  O  O364  1  0.54183695  0.41614160  0.19968346  1
  O  O365  1  0.54258982  0.41873401  0.69348137  1
  O  O366  1  0.53474274  0.92004145  0.19303131  1
  O  O367  1  0.54286574  0.91653637  0.69623961  1
  O  O368  1  0.87407363  0.42010639  0.19321889  1
  O  O369  1  0.87833565  0.41838708  0.69559607  1
  O  O370  1  0.87862481  0.91625380  0.20085589  1
  O  O371  1  0.87679836  0.91154185  0.69454422  1
  O  O372  1  0.04874357  0.15696904  0.18907679  1
  O  O373  1  0.05226979  0.17059146  0.69071927  1
  O  O374  1  0.04672681  0.66557817  0.19455298  1
  O  O375  1  0.04145464  0.66718114  0.69128949  1
  O  O376  1  0.37603227  0.16626736  0.19572904  1
  O  O377  1  0.38007069  0.16560578  0.70071539  1
  O  O378  1  0.37675619  0.66734097  0.19583063  1
  O  O379  1  0.36750243  0.67261137  0.68863685  1
  O  O380  1  0.70651511  0.17059534  0.19703219  1
  O  O381  1  0.70740756  0.16793970  0.69633498  1
  O  O382  1  0.71033608  0.65934044  0.19550226  1
  O  O383  1  0.71055322  0.66588468  0.69497407  1
  O  O384  1  0.12289296  0.08523597  0.30233720  1
  O  O385  1  0.13714136  0.08172465  0.80731011  1
  O  O386  1  0.12834048  0.58178601  0.30449022  1
  O  O387  1  0.12225797  0.58442232  0.80090735  1
  O  O388  1  0.45267819  0.08185640  0.30641940  1
  O  O389  1  0.45664358  0.08189169  0.80519268  1
  O  O390  1  0.45298331  0.58471990  0.30619171  1
  O  O391  1  0.45286325  0.57425054  0.81250943  1
  O  O392  1  0.79056539  0.08554106  0.30163189  1
  O  O393  1  0.79005011  0.08271967  0.80747543  1
  O  O394  1  0.78930299  0.58432615  0.30785522  1
  O  O395  1  0.78985949  0.58735375  0.80878801  1
  O  O396  1  0.29264010  0.33385215  0.30240779  1
  O  O397  1  0.28916428  0.33205992  0.80295751  1
  O  O398  1  0.28828170  0.83436283  0.30440970  1
  O  O399  1  0.28748143  0.83326425  0.80542990  1
  O  O400  1  0.62217095  0.33725560  0.30994300  1
  O  O401  1  0.62159064  0.33261565  0.80060238  1
  O  O402  1  0.61680151  0.83029182  0.31134573  1
  O  O403  1  0.62059190  0.83650356  0.80785743  1
  O  O404  1  0.95354493  0.34558444  0.30382895  1
  O  O405  1  0.96102457  0.33239594  0.79475442  1
  O  O406  1  0.96665434  0.83329673  0.30876284  1
  O  O407  1  0.95860912  0.82755382  0.80748702  1
  O  O408  1  0.13021136  0.41711194  0.30272478  1
  O  O409  1  0.12331143  0.41769267  0.79955002  1
  O  O410  1  0.12535100  0.91868199  0.30406714  1
  O  O411  1  0.12257894  0.91480656  0.79972466  1
  O  O412  1  0.45419958  0.41860858  0.30591072  1
  O  O413  1  0.45413234  0.41427277  0.79930588  1
  O  O414  1  0.45492645  0.91487391  0.30589278  1
  O  O415  1  0.45332999  0.91968584  0.80338338  1
  O  O416  1  0.79134975  0.41899582  0.30590391  1
  O  O417  1  0.78539779  0.41645790  0.80976828  1
  O  O418  1  0.79167991  0.91737680  0.30461263  1
  O  O419  1  0.78806965  0.91468795  0.79861904  1
  O  O420  1  0.28805495  0.16542828  0.30106371  1
  O  O421  1  0.29048881  0.16563240  0.80438717  1
  O  O422  1  0.29014782  0.66845586  0.30434872  1
  O  O423  1  0.28596225  0.67144236  0.80391949  1
  O  O424  1  0.62017547  0.16871536  0.30316523  1
  O  O425  1  0.62343179  0.16260232  0.80788695  1
  O  O426  1  0.61661586  0.66089634  0.30806275  1
  O  O427  1  0.63155147  0.66700917  0.80292598  1
  O  O428  1  0.95467041  0.16430591  0.30584237  1
  O  O429  1  0.95621303  0.17482886  0.80623498  1
  O  O430  1  0.95676933  0.66601634  0.29903734  1
  O  O431  1  0.95867092  0.66208289  0.80327905  1
  F  F432  1  0.04699426  -0.00159658  0.20096310  1
  F  F433  1  0.04938675  -0.01117653  0.69587307  1
  F  F434  1  0.04702264  0.50462560  0.20050722  1
  F  F435  1  0.04646859  0.50010884  0.69621379  1
  F  F436  1  0.37783916  -0.00002554  0.20263190  1
  F  F437  1  0.37852870  -0.00119067  0.69990338  1
  F  F438  1  0.37970002  0.50170054  0.20227877  1
  F  F439  1  0.37975579  0.49769167  0.69652247  1
  F  F440  1  0.70786525  0.00796059  0.19995261  1
  F  F441  1  0.70717369  -0.00073078  0.70229925  1
  F  F442  1  0.70971543  0.50018278  0.20633261  1
  F  F443  1  0.70761829  0.50118772  0.70300235  1
  F  F444  1  0.21601880  0.24969619  0.19683053  1
  F  F445  1  0.21559936  0.24839989  0.70046582  1
  F  F446  1  0.21411746  0.75029655  0.20139834  1
  F  F447  1  0.20986313  0.75310904  0.69957626  1
  F  F448  1  0.54265037  0.25336592  0.20474980  1
  F  F449  1  0.54440746  0.24772715  0.70252325  1
  F  F450  1  0.53373162  0.74928048  0.19962347  1
  F  F451  1  0.54821727  0.76117697  0.69870251  1
  F  F452  1  0.86290426  0.25205307  0.19911282  1
  F  F453  1  0.88169729  0.24007160  0.69286552  1
  F  F454  1  0.87957123  0.75161022  0.20207886  1
  F  F455  1  0.87786687  0.74841285  0.70346481  1
  F  F456  1  0.28683592  -0.00057008  0.29748737  1
  F  F457  1  0.28996959  -0.00089641  0.79603898  1
  F  F458  1  0.28936417  0.50105360  0.29600932  1
  F  F459  1  0.28389129  0.49256664  0.79745834  1
  F  F460  1  0.61531990  0.00596496  0.30260780  1
  F  F461  1  0.61847145  0.00119138  0.79733219  1
  F  F462  1  0.61946174  0.50053165  0.30119367  1
  F  F463  1  0.61942439  0.49915335  0.80045686  1
  F  F464  1  0.95886571  0.00332787  0.29693271  1
  F  F465  1  0.95232924  -0.01283648  0.80264675  1
  F  F466  1  0.95625167  0.50089554  0.29538444  1
  F  F467  1  0.96381696  0.50114162  0.79693877  1
  F  F468  1  0.13738452  0.25012237  0.29745935  1
  F  F469  1  0.12380617  0.24988922  0.79436065  1
  F  F470  1  0.12550497  0.75009551  0.29664530  1
  F  F471  1  0.12098298  0.74716001  0.79565630  1
  F  F472  1  0.45189274  0.25065621  0.29987514  1
  F  F473  1  0.45589480  0.24989851  0.79957022  1
  F  F474  1  0.45149576  0.74995239  0.30002990  1
  F  F475  1  0.44597875  0.76244275  0.80122080  1
  F  F476  1  0.78769295  0.25517153  0.30121886  1
  F  F477  1  0.78748554  0.24709376  0.79756306  1
  F  F478  1  0.79347576  0.74868658  0.30158886  1
  F  F479  1  0.78877823  0.74830890  0.79722373  1
