# generated using pymatgen
data_K24Na3Li5Mg64Fe17Si79(O5F)48
_symmetry_space_group_name_H-M   'P 1'
_cell_length_a   16.09362861
_cell_length_b   18.58140919
_cell_length_c   20.54750460
_cell_angle_alpha   90.00592287
_cell_angle_beta   100.01747807
_cell_angle_gamma   90.00377215
_symmetry_Int_Tables_number   1
_chemical_formula_structural   K24Na3Li5Mg64Fe17Si79(O5F)48
_chemical_formula_sum   'K24 Na3 Li5 Mg64 Fe17 Si79 O240 F48'
_cell_volume   6050.89730864
_cell_formula_units_Z   1
loop_
 _symmetry_equiv_pos_site_id
 _symmetry_equiv_pos_as_xyz
  1  'x, y, z'
loop_
 _atom_site_type_symbol
 _atom_site_label
 _atom_site_symmetry_multiplicity
 _atom_site_fract_x
 _atom_site_fract_y
 _atom_site_fract_z
 _atom_site_occupancy
  K  K0  1  0.00393064  0.00336397  -0.00090732  1
  K  K1  1  0.00604467  -0.00762906  0.50162442  1
  K  K2  1  0.00350279  0.49062132  0.00161651  1
  K  K3  1  -0.00348832  0.50261245  0.50159892  1
  K  K4  1  0.33698684  0.00072324  -0.00477835  1
  K  K5  1  0.33281593  0.00796543  0.50540845  1
  K  K6  1  0.33196953  0.49889930  -0.00086808  1
  K  K7  1  0.33100430  0.50112246  0.49858689  1
  K  K8  1  0.66166706  0.00194973  -0.00704916  1
  K  K9  1  0.65977644  0.00061895  0.50769477  1
  K  K10  1  0.66588287  0.50752943  -0.00547855  1
  K  K11  1  0.67220348  0.49418501  0.50312939  1
  K  K12  1  0.16566613  0.23984767  0.00618106  1
  K  K13  1  0.17262253  0.24333786  0.50514704  1
  K  K14  1  0.17644805  0.75323417  -0.00176831  1
  K  K15  1  0.15434694  0.76389252  0.49910789  1
  K  K16  1  0.49246549  0.24706224  -0.00642742  1
  K  K17  1  0.49665148  0.23444439  0.50116077  1
  K  K18  1  0.50785699  0.76836614  -0.00601034  1
  K  K19  1  0.50521658  0.75986304  0.50550379  1
  K  K20  1  0.83151366  0.24244005  -0.00378137  1
  K  K21  1  0.83721220  0.25120593  0.50624836  1
  K  K22  1  0.82269784  0.75117952  -0.00026207  1
  K  K23  1  0.85076931  0.75792553  0.50112046  1
  Na  Na24  1  0.33212352  0.24974316  0.24814956  1
  Na  Na25  1  0.83288115  0.17011914  0.24923226  1
  Na  Na26  1  0.49950858  0.83571653  0.75510087  1
  Li  Li27  1  0.33680519  0.24192935  0.75342345  1
  Li  Li28  1  0.48991958  0.00181793  0.74950829  1
  Li  Li29  1  0.34088629  0.08456555  0.75001783  1
  Li  Li30  1  0.33236537  0.58437174  0.24938085  1
  Li  Li31  1  0.50171836  0.83302327  0.24812400  1
  Mg  Mg32  1  0.16909871  0.50101155  0.24965633  1
  Mg  Mg33  1  0.83389797  0.49817039  0.75020450  1
  Mg  Mg34  1  0.66373431  0.75246424  0.75268048  1
  Mg  Mg35  1  0.50052151  0.49956716  0.75354032  1
  Mg  Mg36  1  0.16847231  -0.00118972  0.24967384  1
  Mg  Mg37  1  0.33578680  0.74749401  0.25078916  1
  Mg  Mg38  1  0.83290264  -0.00001684  0.25072357  1
  Mg  Mg39  1  0.49997106  -0.00282904  0.24785256  1
  Mg  Mg40  1  0.49609528  0.50238732  0.24916232  1
  Mg  Mg41  1  -0.00252640  0.75019805  0.25064124  1
  Mg  Mg42  1  0.83260999  0.49951611  0.25143782  1
  Mg  Mg43  1  0.66599722  0.24855247  0.75108189  1
  Mg  Mg44  1  0.16611468  0.49629668  0.74721927  1
  Mg  Mg45  1  0.00069291  0.24971379  0.74597261  1
  Mg  Mg46  1  0.66464663  0.25001886  0.25049461  1
  Mg  Mg47  1  0.83240996  0.00208422  0.75081085  1
  Mg  Mg48  1  0.33335563  0.75136843  0.75220057  1
  Mg  Mg49  1  0.66481902  0.75193395  0.24823958  1
  Mg  Mg50  1  0.00127038  0.24974695  0.24585831  1
  Mg  Mg51  1  0.00181604  0.75118765  0.74760515  1
  Mg  Mg52  1  0.17118826  0.00009718  0.74923350  1
  Mg  Mg53  1  0.83330007  0.66642417  0.75119586  1
  Mg  Mg54  1  0.16686905  0.32952744  0.74483549  1
  Mg  Mg55  1  0.16745824  0.33319037  0.24714182  1
  Mg  Mg56  1  0.33397232  0.58270761  0.75347990  1
  Mg  Mg57  1  0.33628984  0.91182137  0.24873684  1
  Mg  Mg58  1  0.83082213  0.16591507  0.74991697  1
  Mg  Mg59  1  0.66551531  0.92074562  0.75507026  1
  Mg  Mg60  1  0.33225558  0.42020322  0.24787852  1
  Mg  Mg61  1  0.83288435  0.33299781  0.24826634  1
  Mg  Mg62  1  0.16659112  0.66489835  0.74991048  1
  Mg  Mg63  1  0.66850313  0.58626964  0.75627380  1
  Mg  Mg64  1  0.50023166  0.33168509  0.75354732  1
  Mg  Mg65  1  0.83235784  0.83461491  0.24967649  1
  Mg  Mg66  1  0.66904848  0.41598782  0.75195355  1
  Mg  Mg67  1  0.49727944  0.16526527  0.24978947  1
  Mg  Mg68  1  0.66589683  0.08370373  0.24874161  1
  Mg  Mg69  1  0.16774477  0.16511746  0.24622641  1
  Mg  Mg70  1  0.16528278  0.83233409  0.24973848  1
  Mg  Mg71  1  0.16920812  0.83505774  0.74992237  1
  Mg  Mg72  1  0.66305679  0.08502833  0.75031344  1
  Mg  Mg73  1  0.33364202  0.08237117  0.24832060  1
  Mg  Mg74  1  -0.00169851  0.58287781  0.74660211  1
  Mg  Mg75  1  0.66522466  0.91443592  0.24987992  1
  Mg  Mg76  1  -0.00046139  0.08301717  0.25015726  1
  Mg  Mg77  1  0.66475481  0.41560671  0.24959705  1
  Mg  Mg78  1  -0.00102249  0.91328681  0.24862504  1
  Mg  Mg79  1  0.50160400  0.66713058  0.75454360  1
  Mg  Mg80  1  0.33321572  0.41189303  0.74956519  1
  Mg  Mg81  1  0.16714643  0.66486194  0.25043527  1
  Mg  Mg82  1  0.00035922  0.41446545  0.24783176  1
  Mg  Mg83  1  0.00016743  0.08397814  0.74736379  1
  Mg  Mg84  1  0.00138906  0.91566539  0.74887410  1
  Mg  Mg85  1  0.49742817  0.66837954  0.25034907  1
  Mg  Mg86  1  0.49615722  0.33361686  0.24934085  1
  Mg  Mg87  1  0.83212617  0.83515204  0.74930292  1
  Mg  Mg88  1  -0.00011408  0.58461615  0.25176622  1
  Mg  Mg89  1  0.33655706  0.91920636  0.75102452  1
  Mg  Mg90  1  0.66526616  0.58463132  0.25105232  1
  Mg  Mg91  1  0.49780941  0.16476737  0.75263687  1
  Mg  Mg92  1  -0.00141922  0.41294893  0.74636537  1
  Mg  Mg93  1  0.83403930  0.66590532  0.25223721  1
  Mg  Mg94  1  0.17105252  0.16564361  0.74602595  1
  Mg  Mg95  1  0.83255186  0.33588336  0.74760143  1
  Fe  Fe96  1  0.31204782  0.16665456  0.38902178  1
  Fe  Fe97  1  0.02716891  0.33183665  0.10752150  1
  Fe  Fe98  1  0.69368878  0.83427773  0.10975113  1
  Fe  Fe99  1  0.64082275  0.16822879  0.89360394  1
  Fe  Fe100  1  0.02930016  0.32771273  0.60446854  1
  Fe  Fe101  1  0.31293252  0.83385232  0.89156776  1
  Fe  Fe102  1  0.85804426  0.41703911  0.60584556  1
  Fe  Fe103  1  0.81315092  0.08187315  0.89251593  1
  Fe  Fe104  1  0.81365632  0.41814771  0.89125620  1
  Fe  Fe105  1  0.35600386  0.16724629  0.10752005  1
  Fe  Fe106  1  0.97549998  0.66307210  0.39283396  1
  Fe  Fe107  1  0.02792110  0.83708595  0.61034893  1
  Fe  Fe108  1  0.02371050  0.83133672  0.10876520  1
  Fe  Fe109  1  0.97389397  0.83924618  0.39092904  1
  Fe  Fe110  1  0.64071921  0.66914129  0.89531690  1
  Fe  Fe111  1  0.51969932  0.91777337  0.61475171  1
  Fe  Fe112  1  0.68682883  0.16720991  0.60823469  1
  Si  Si113  1  0.30105465  0.16709479  0.88329285  1
  Si  Si114  1  0.52673079  0.08471386  0.11204495  1
  Si  Si115  1  0.19235256  0.57876242  0.61501524  1
  Si  Si116  1  0.52624257  0.92018839  0.11307403  1
  Si  Si117  1  0.14631670  0.57883851  0.38848451  1
  Si  Si118  1  0.80187980  0.57797697  0.38903289  1
  Si  Si119  1  0.47595986  0.58798322  0.38506086  1
  Si  Si120  1  0.81784798  0.58730480  0.89071662  1
  Si  Si121  1  0.47601446  0.92528168  0.89016206  1
  Si  Si122  1  0.13934386  0.91782532  0.88691468  1
  Si  Si123  1  0.68873393  0.33149703  0.11385378  1
  Si  Si124  1  0.64691106  0.84181172  0.88997817  1
  Si  Si125  1  0.86036150  0.92153211  0.11090799  1
  Si  Si126  1  0.80430003  0.08686855  0.38509664  1
  Si  Si127  1  0.02192673  0.15921264  0.11074759  1
  Si  Si128  1  0.80498225  0.41120570  0.38447654  1
  Si  Si129  1  0.68981503  0.16642941  0.11583246  1
  Si  Si130  1  0.85344079  0.58696783  0.61283061  1
  Si  Si131  1  0.36006519  0.17433757  0.61757572  1
  Si  Si132  1  0.63549880  0.33309094  0.38461299  1
  Si  Si133  1  0.85799543  0.08164587  0.61218669  1
  Si  Si134  1  0.14078387  0.41639207  0.88334151  1
  Si  Si135  1  0.19989738  0.41380958  0.61080181  1
  Si  Si136  1  0.01898955  0.66155548  0.11201580  1
  Si  Si137  1  0.30260868  0.33175344  0.88363144  1
  Si  Si138  1  0.19962642  0.91992748  0.61109966  1
  Si  Si139  1  0.19846502  0.08471986  0.61512504  1
  Si  Si140  1  0.35559827  0.66395513  0.61668347  1
  Si  Si141  1  0.35928888  0.34071542  0.11201589  1
  Si  Si142  1  0.30555539  0.66141575  0.88792971  1
  Si  Si143  1  0.85453576  0.57904466  0.11608986  1
  Si  Si144  1  0.14823680  0.92128062  0.38686522  1
  Si  Si145  1  0.35561376  0.82689983  0.61323652  1
  Si  Si146  1  0.85337922  0.41568879  0.11309798  1
  Si  Si147  1  0.46969387  0.57795316  0.89007124  1
  Si  Si148  1  0.81704639  0.91329911  0.88821342  1
  Si  Si149  1  0.68938905  0.66312881  0.11448505  1
  Si  Si150  1  0.36455534  0.83234034  0.11604044  1
  Si  Si151  1  0.69044021  0.66982761  0.61741687  1
  Si  Si152  1  0.69066241  0.83495532  0.61480142  1
  Si  Si153  1  0.14314077  0.41349809  0.38496737  1
  Si  Si154  1  0.68496195  0.33484026  0.61038375  1
  Si  Si155  1  0.36708150  0.33804416  0.61559779  1
  Si  Si156  1  0.47999276  0.07529297  0.38750679  1
  Si  Si157  1  0.64146000  0.83155807  0.38493157  1
  Si  Si158  1  0.85515641  0.08226876  0.11630931  1
  Si  Si159  1  0.63901259  0.16743617  0.38469797  1
  Si  Si160  1  0.18817808  0.07478630  0.11006177  1
  Si  Si161  1  0.64159768  0.33994658  0.89023473  1
  Si  Si162  1  0.19700040  0.90924566  0.11243652  1
  Si  Si163  1  0.46835679  0.08931269  0.88865337  1
  Si  Si164  1  0.19627651  0.42290800  0.11037454  1
  Si  Si165  1  0.46989305  0.41243778  0.88659535  1
  Si  Si166  1  0.52765539  0.42211560  0.61668611  1
  Si  Si167  1  0.52569576  0.41660949  0.11391497  1
  Si  Si168  1  0.13854352  0.58094600  0.88347426  1
  Si  Si169  1  0.14143883  0.08675921  0.38650251  1
  Si  Si170  1  0.30944039  0.83200213  0.38555449  1
  Si  Si171  1  0.97992584  0.16917654  0.88412866  1
  Si  Si172  1  0.14000503  0.08278822  0.88300974  1
  Si  Si173  1  0.31103090  0.33931140  0.38539909  1
  Si  Si174  1  0.97974722  0.33010491  0.88545976  1
  Si  Si175  1  0.97682054  0.83191180  0.88382659  1
  Si  Si176  1  0.52339994  0.58165339  0.11507861  1
  Si  Si177  1  0.97490683  0.33199225  0.38472970  1
  Si  Si178  1  0.47467283  0.42336108  0.38547027  1
  Si  Si179  1  0.35940808  0.66789425  0.11488012  1
  Si  Si180  1  0.19009746  0.58798938  0.11418178  1
  Si  Si181  1  0.64065798  0.66716502  0.38610401  1
  Si  Si182  1  0.52428510  0.58632305  0.61774297  1
  Si  Si183  1  0.80128638  0.92280113  0.38995463  1
  Si  Si184  1  0.85481138  0.91755471  0.61399591  1
  Si  Si185  1  0.30824670  0.66660586  0.38504529  1
  Si  Si186  1  0.97915477  0.66952953  0.88326205  1
  Si  Si187  1  0.97545690  0.16552171  0.38394187  1
  Si  Si188  1  0.47658349  0.91106390  0.38339872  1
  Si  Si189  1  0.51681110  0.08447054  0.61093735  1
  Si  Si190  1  0.02583752  0.66316975  0.61302049  1
  Si  Si191  1  0.02540845  0.15597614  0.60970260  1
  O  O192  1  0.25986475  0.11025484  0.07397317  1
  O  O193  1  0.27122063  0.13167581  0.58656469  1
  O  O194  1  0.26954130  0.62651569  0.08534106  1
  O  O195  1  0.27459867  0.61159891  0.58692989  1
  O  O196  1  0.61477000  0.10991461  0.08556641  1
  O  O197  1  0.59456410  0.10880535  0.57343237  1
  O  O198  1  0.60730118  0.60985655  0.08766140  1
  O  O199  1  0.60546109  0.62044307  0.58855493  1
  O  O200  1  0.93558942  0.11175024  0.08442316  1
  O  O201  1  0.94761652  0.09816781  0.58520992  1
  O  O202  1  0.93968490  0.60394302  0.08791736  1
  O  O203  1  0.93885776  0.61692721  0.58671892  1
  O  O204  1  0.11866184  0.37441003  0.07381028  1
  O  O205  1  0.12916085  0.35958755  0.57456562  1
  O  O206  1  0.12461644  0.85422082  0.07828979  1
  O  O207  1  0.11308765  0.88255972  0.57415649  1
  O  O208  1  0.44300954  0.36976076  0.08151193  1
  O  O209  1  0.44792350  0.37050454  0.58464593  1
  O  O210  1  0.44440533  0.86683333  0.08761114  1
  O  O211  1  0.43597257  0.84846810  0.58039464  1
  O  O212  1  0.76969869  0.36489721  0.08590086  1
  O  O213  1  0.76347120  0.35871883  0.57502240  1
  O  O214  1  0.78970542  0.86400486  0.07729445  1
  O  O215  1  0.77678344  0.86124768  0.58762078  1
  O  O216  1  0.28434825  0.39987936  0.08474874  1
  O  O217  1  0.28917817  0.39305011  0.58548078  1
  O  O218  1  0.28373303  0.88336822  0.08569818  1
  O  O219  1  0.27547449  0.87867580  0.58106711  1
  O  O220  1  0.60652033  0.38249755  0.08504748  1
  O  O221  1  0.61035029  0.39751420  0.58667920  1
  O  O222  1  0.60116349  0.89310852  0.07584665  1
  O  O223  1  0.61411286  0.88340712  0.57752226  1
  O  O224  1  0.93068189  0.38977060  0.07873298  1
  O  O225  1  0.94591350  0.38939176  0.56374665  1
  O  O226  1  0.94736548  0.90684500  0.08266789  1
  O  O227  1  0.93228940  0.89269711  0.57882676  1
  O  O228  1  0.09749100  0.11553728  0.08238897  1
  O  O229  1  0.10725623  0.12104606  0.58173355  1
  O  O230  1  0.10232715  0.63045626  0.08249184  1
  O  O231  1  0.10544428  0.62251209  0.58615942  1
  O  O232  1  0.45406448  0.13819624  0.07570087  1
  O  O233  1  0.43583791  0.14029315  0.58318822  1
  O  O234  1  0.43668191  0.62667737  0.08512952  1
  O  O235  1  0.43878997  0.63322198  0.58750263  1
  O  O236  1  0.77743895  0.13988901  0.09259893  1
  O  O237  1  0.78693798  0.13740806  0.57706884  1
  O  O238  1  0.77270732  0.62968295  0.08726132  1
  O  O239  1  0.77293774  0.64213131  0.58710746  1
  O  O240  1  0.05516400  0.11341850  0.41494546  1
  O  O241  1  0.05925604  0.11455176  0.91250838  1
  O  O242  1  0.07296820  0.60776794  0.42540049  1
  O  O243  1  0.05769143  0.61470187  0.91224357  1
  O  O244  1  0.40663799  0.10796250  0.42310612  1
  O  O245  1  0.38253718  0.11925872  0.91649066  1
  O  O246  1  0.39637269  0.62285076  0.41480401  1
  O  O247  1  0.38088624  0.60243504  0.91398951  1
  O  O248  1  0.73250043  0.13463293  0.41441600  1
  O  O249  1  0.72779897  0.11014773  0.93600921  1
  O  O250  1  0.71806719  0.61218207  0.41518050  1
  O  O251  1  0.73962912  0.61477996  0.92500835  1
  O  O252  1  0.22729065  0.36690693  0.41650960  1
  O  O253  1  0.22594350  0.37103450  0.91513246  1
  O  O254  1  0.23434225  0.87322245  0.41535305  1
  O  O255  1  0.21684304  0.86951962  0.92372747  1
  O  O256  1  0.56127374  0.37713123  0.41469834  1
  O  O257  1  0.55195388  0.36419445  0.91619188  1
  O  O258  1  0.55769039  0.85951436  0.41352395  1
  O  O259  1  0.57080269  0.88843350  0.91421184  1
  O  O260  1  0.89399340  0.36886449  0.41244497  1
  O  O261  1  0.90201680  0.35186018  0.92171303  1
  O  O262  1  0.88484674  0.88242534  0.42631161  1
  O  O263  1  0.89152428  0.85130970  0.91315434  1
  O  O264  1  0.06093048  0.37891984  0.41308528  1
  O  O265  1  0.06025793  0.38494637  0.91271188  1
  O  O266  1  0.07306322  0.89233962  0.42186705  1
  O  O267  1  0.05211709  0.88894873  0.91245883  1
  O  O268  1  0.39144198  0.39516317  0.41402563  1
  O  O269  1  0.38882794  0.37734914  0.91468636  1
  O  O270  1  0.39768287  0.87489202  0.41393649  1
  O  O271  1  0.41111630  0.88308645  0.93064232  1
  O  O272  1  0.72783912  0.37017700  0.41325903  1
  O  O273  1  0.71081439  0.40092646  0.92032762  1
  O  O274  1  0.71939328  0.88497251  0.41647007  1
  O  O275  1  0.73482081  0.88612818  0.91914887  1
  O  O276  1  0.21512335  0.13907622  0.42334410  1
  O  O277  1  0.22105440  0.13289773  0.91438500  1
  O  O278  1  0.23505524  0.62341410  0.41627858  1
  O  O279  1  0.22159580  0.62802009  0.91499235  1
  O  O280  1  0.56895408  0.12017912  0.41476559  1
  O  O281  1  0.54373745  0.13992290  0.92682502  1
  O  O282  1  0.55865472  0.63726067  0.41655831  1
  O  O283  1  0.54823703  0.62482069  0.92687149  1
  O  O284  1  0.89328810  0.13077518  0.41086022  1
  O  O285  1  0.90278685  0.14829881  0.92053650  1
  O  O286  1  0.88418370  0.61874753  0.42618982  1
  O  O287  1  0.89605947  0.64675448  0.91352798  1
  O  O288  1  0.17410551  -0.00910283  0.08356862  1
  O  O289  1  0.20073747  0.00361924  0.58329576  1
  O  O290  1  0.18083725  0.50662610  0.08243058  1
  O  O291  1  0.17922213  0.49747660  0.58418419  1
  O  O292  1  0.50103790  0.00248418  0.08537282  1
  O  O293  1  0.48404705  0.00719772  0.57840608  1
  O  O294  1  0.50832656  0.49918069  0.08560498  1
  O  O295  1  0.50602043  0.50461863  0.58716004  1
  O  O296  1  0.82604178  0.00338348  0.08506972  1
  O  O297  1  0.82669528  -0.00056809  0.58752177  1
  O  O298  1  0.82695395  0.49845210  0.08742721  1
  O  O299  1  0.82654312  0.51208291  0.57623853  1
  O  O300  1  0.01068793  0.23708042  0.07503345  1
  O  O301  1  0.00318757  0.23221615  0.57282995  1
  O  O302  1  -0.00959261  0.73742982  0.07701837  1
  O  O303  1  0.01447239  0.74138714  0.57966583  1
  O  O304  1  0.33173141  0.26381512  0.07917182  1
  O  O305  1  0.34584532  0.25714960  0.58535742  1
  O  O306  1  0.35006917  0.75007622  0.08425711  1
  O  O307  1  0.33002370  0.74315048  0.58562084  1
  O  O308  1  0.66996722  0.24908050  0.08582483  1
  O  O309  1  0.64809204  0.25944791  0.57782167  1
  O  O310  1  0.66713921  0.73943787  0.07958164  1
  O  O311  1  0.67067490  0.75081556  0.58774368  1
  O  O312  1  0.16771775  0.00451355  0.41331907  1
  O  O313  1  0.15454774  0.00141259  0.91420686  1
  O  O314  1  0.16418027  0.49474276  0.41480895  1
  O  O315  1  0.15496006  0.49906135  0.91315993  1
  O  O316  1  0.49827092  -0.00837970  0.41489189  1
  O  O317  1  0.48405083  0.00765410  0.92104238  1
  O  O318  1  0.49259158  0.50560246  0.41550245  1
  O  O319  1  0.48296170  0.49395364  0.91774519  1
  O  O320  1  0.80599725  0.00670925  0.41903590  1
  O  O321  1  0.85197278  -0.01175853  0.92152640  1
  O  O322  1  0.80751432  0.49284129  0.41471553  1
  O  O323  1  0.85353854  0.51044677  0.92112792  1
  O  O324  1  0.33951455  0.26231590  0.41749699  1
  O  O325  1  0.31365074  0.25025372  0.91452130  1
  O  O326  1  0.31797397  0.74919936  0.41594629  1
  O  O327  1  0.32702512  0.73739400  0.92406262  1
  O  O328  1  0.63715696  0.25059716  0.41291074  1
  O  O329  1  0.66888469  0.26342929  0.92441286  1
  O  O330  1  0.66152687  0.74901116  0.41515467  1
  O  O331  1  0.65221420  0.76416088  0.92745585  1
  O  O332  1  0.98747852  0.24909952  0.41387058  1
  O  O333  1  1.01582052  0.24970154  0.90947134  1
  O  O334  1  0.99366210  0.75144513  0.43256680  1
  O  O335  1  1.00829857  0.75060342  0.91046094  1
  O  O336  1  0.20742134  0.07782753  0.19094113  1
  O  O337  1  0.20754380  0.08258606  0.69413109  1
  O  O338  1  0.20470169  0.58529162  0.19382986  1
  O  O339  1  0.21062443  0.58048263  0.69566952  1
  O  O340  1  0.54388132  0.08368468  0.19343015  1
  O  O341  1  0.54216652  0.08927999  0.69083440  1
  O  O342  1  0.54185298  0.58293054  0.19553700  1
  O  O343  1  0.54134006  0.58308401  0.69775762  1
  O  O344  1  0.88027961  0.07707231  0.19564829  1
  O  O345  1  0.87798779  0.08371922  0.69310254  1
  O  O346  1  0.87330365  0.58030976  0.19672533  1
  O  O347  1  0.87421548  0.58495920  0.69416754  1
  O  O348  1  0.04527994  0.33474702  0.19914068  1
  O  O349  1  0.04504272  0.33268190  0.69698708  1
  O  O350  1  0.04626046  0.83093536  0.20066870  1
  O  O351  1  0.04763173  0.83315825  0.70175594  1
  O  O352  1  0.38129364  0.34393630  0.19207773  1
  O  O353  1  0.38352168  0.34021515  0.69492053  1
  O  O354  1  0.37545816  0.82934874  0.19560942  1
  O  O355  1  0.36710745  0.82874011  0.69265794  1
  O  O356  1  0.70651253  0.33392472  0.19448776  1
  O  O357  1  0.70611861  0.33496318  0.69189358  1
  O  O358  1  0.71209766  0.83364599  0.20167222  1
  O  O359  1  0.70940811  0.83376118  0.69569880  1
  O  O360  1  0.20942943  0.41999738  0.19132687  1
  O  O361  1  0.21215251  0.41534915  0.69185810  1
  O  O362  1  0.21210336  0.91187138  0.19365698  1
  O  O363  1  0.20921462  0.91723632  0.69145449  1
  O  O364  1  0.54367641  0.41743880  0.19448415  1
  O  O365  1  0.54367239  0.42043405  0.69713498  1
  O  O366  1  0.54669682  0.91973382  0.19335626  1
  O  O367  1  0.55065217  0.92473265  0.70158835  1
  O  O368  1  0.87317479  0.41690632  0.19446690  1
  O  O369  1  0.87951689  0.41772452  0.69812808  1
  O  O370  1  0.87434688  0.91848544  0.19272157  1
  O  O371  1  0.87663570  0.91642454  0.69507178  1
  O  O372  1  0.04153650  0.16328284  0.19180975  1
  O  O373  1  0.04334899  0.16313329  0.69065394  1
  O  O374  1  0.04230023  0.66355342  0.19303058  1
  O  O375  1  0.04443398  0.66411262  0.69416398  1
  O  O376  1  0.38314691  0.15741941  0.19713286  1
  O  O377  1  0.38034386  0.17228520  0.69605939  1
  O  O378  1  0.37827704  0.66810838  0.19434938  1
  O  O379  1  0.37500560  0.66273860  0.69704653  1
  O  O380  1  0.69871427  0.16914030  0.19511739  1
  O  O381  1  0.71155761  0.16842985  0.69906117  1
  O  O382  1  0.70870795  0.66355715  0.19570431  1
  O  O383  1  0.71067238  0.66671203  0.69754548  1
  O  O384  1  0.12282266  0.08397747  0.30539274  1
  O  O385  1  0.12270692  0.08293752  0.80273443  1
  O  O386  1  0.12521585  0.58205009  0.30741239  1
  O  O387  1  0.12239432  0.58103777  0.80301803  1
  O  O388  1  0.46077735  0.07831910  0.30679273  1
  O  O389  1  0.45617355  0.08925785  0.80954407  1
  O  O390  1  0.46186794  0.58493740  0.30573222  1
  O  O391  1  0.45600309  0.57987063  0.80893347  1
  O  O392  1  0.78404715  0.07928644  0.30600232  1
  O  O393  1  0.79220773  0.08372339  0.80065707  1
  O  O394  1  0.78720158  0.58058462  0.30778613  1
  O  O395  1  0.79471347  0.58574191  0.80879375  1
  O  O396  1  0.28727387  0.34414410  0.30551673  1
  O  O397  1  0.28472423  0.33608195  0.80412025  1
  O  O398  1  0.29065333  0.83101200  0.30516211  1
  O  O399  1  0.28753323  0.83202897  0.80023041  1
  O  O400  1  0.61972501  0.33591657  0.30430655  1
  O  O401  1  0.62336564  0.33784481  0.80840999  1
  O  O402  1  0.62564869  0.83149209  0.30552423  1
  O  O403  1  0.63707513  0.83415019  0.81065242  1
  O  O404  1  0.95542362  0.33344916  0.30458814  1
  O  O405  1  0.95857066  0.33279118  0.80481801  1
  O  O406  1  0.95156206  0.83369574  0.29900988  1
  O  O407  1  0.95675441  0.83232626  0.80340300  1
  O  O408  1  0.12393130  0.41638746  0.30468783  1
  O  O409  1  0.12474260  0.41673787  0.80304647  1
  O  O410  1  0.12864566  0.91730436  0.30605038  1
  O  O411  1  0.12360275  0.91680010  0.80622361  1
  O  O412  1  0.45808244  0.42025232  0.30520141  1
  O  O413  1  0.45422370  0.41650221  0.80629229  1
  O  O414  1  0.45627190  0.91519155  0.30390905  1
  O  O415  1  0.44772579  0.92239430  0.81195516  1
  O  O416  1  0.78773622  0.41524487  0.30397089  1
  O  O417  1  0.78906518  0.41742240  0.79950455  1
  O  O418  1  0.78849463  0.91991020  0.30910825  1
  O  O419  1  0.79606796  0.91526930  0.80708784  1
  O  O420  1  0.28306428  0.15653488  0.29969284  1
  O  O421  1  0.28346683  0.16834034  0.80463401  1
  O  O422  1  0.28846179  0.66832694  0.30558847  1
  O  O423  1  0.28691539  0.66254224  0.80678420  1
  O  O424  1  0.62211058  0.16685769  0.30441709  1
  O  O425  1  0.62111279  0.16849952  0.80168738  1
  O  O426  1  0.62272215  0.66593834  0.30570633  1
  O  O427  1  0.62253551  0.66705999  0.80377235  1
  O  O428  1  0.96624007  0.16840943  0.30472893  1
  O  O429  1  0.95940872  0.16671940  0.80296022  1
  O  O430  1  0.95461058  0.66480384  0.30003512  1
  O  O431  1  0.95971661  0.66673552  0.80259824  1
  F  F432  1  0.04730316  -0.00123486  0.20466305  1
  F  F433  1  0.04714574  -0.00125197  0.70153487  1
  F  F434  1  0.04527664  0.50077497  0.20393896  1
  F  F435  1  0.04640944  0.50021885  0.69936168  1
  F  F436  1  0.37889429  -0.00399999  0.20128888  1
  F  F437  1  0.37169404  -0.00152696  0.70011164  1
  F  F438  1  0.38029058  0.50105291  0.20005085  1
  F  F439  1  0.37878642  0.50065685  0.70427884  1
  F  F440  1  0.71156645  -0.00018901  0.20261051  1
  F  F441  1  0.71398633  -0.00191680  0.70201425  1
  F  F442  1  0.71006880  0.49975324  0.20330546  1
  F  F443  1  0.70964916  0.50523407  0.70403786  1
  F  F444  1  0.19772352  0.25059505  0.19449210  1
  F  F445  1  0.20609985  0.24935604  0.69551563  1
  F  F446  1  0.21290795  0.74803661  0.20278592  1
  F  F447  1  0.21017852  0.74493584  0.70132403  1
  F  F448  1  0.54459447  0.25258869  0.20119721  1
  F  F449  1  0.54516658  0.25541227  0.70280398  1
  F  F450  1  0.54618869  0.74439268  0.20091087  1
  F  F451  1  0.54733280  0.74117095  0.69978018  1
  F  F452  1  0.88223225  0.26005707  0.19694662  1
  F  F453  1  0.87891392  0.25024266  0.70146114  1
  F  F454  1  0.87377868  0.74761942  0.20020055  1
  F  F455  1  0.87882383  0.74936230  0.70165381  1
  F  F456  1  0.28950443  -0.00474756  0.29561625  1
  F  F457  1  0.28180477  -0.00709334  0.80293651  1
  F  F458  1  0.28709823  0.50036624  0.29746897  1
  F  F459  1  0.28632824  0.49733521  0.79766078  1
  F  F460  1  0.62049639  0.00012420  0.29752546  1
  F  F461  1  0.63611971  0.00401477  0.80598099  1
  F  F462  1  0.61980751  0.49957166  0.29788578  1
  F  F463  1  0.62091183  0.50142459  0.80033620  1
  F  F464  1  0.95524186  -0.00121689  0.29906826  1
  F  F465  1  0.95672750  0.00006077  0.79549179  1
  F  F466  1  0.95399478  0.49738893  0.29830412  1
  F  F467  1  0.95889497  0.50175949  0.79657691  1
  F  F468  1  0.12246713  0.24907817  0.29696892  1
  F  F469  1  0.12178797  0.24733778  0.79524604  1
  F  F470  1  0.12288757  0.74644058  0.29950520  1
  F  F471  1  0.12229751  0.74554704  0.79923346  1
  F  F472  1  0.46824452  0.25147251  0.30237866  1
  F  F473  1  0.45790841  0.25326525  0.80225760  1
  F  F474  1  0.45272552  0.74430851  0.30257560  1
  F  F475  1  0.44819136  0.73849086  0.80433214  1
  F  F476  1  0.78136385  0.26122962  0.30176505  1
  F  F477  1  0.78971593  0.25394580  0.79702644  1
  F  F478  1  0.78666107  0.74657385  0.29979522  1
  F  F479  1  0.79012885  0.75005405  0.79718529  1
