# generated using pymatgen
data_K24Na3Li5Mg64Fe17Si79(O5F)48
_symmetry_space_group_name_H-M   'P 1'
_cell_length_a   16.09138383
_cell_length_b   18.58499742
_cell_length_c   20.55111314
_cell_angle_alpha   90.00515045
_cell_angle_beta   100.02466336
_cell_angle_gamma   90.00729480
_symmetry_Int_Tables_number   1
_chemical_formula_structural   K24Na3Li5Mg64Fe17Si79(O5F)48
_chemical_formula_sum   'K24 Na3 Li5 Mg64 Fe17 Si79 O240 F48'
_cell_volume   6052.15019597
_cell_formula_units_Z   1
loop_
 _symmetry_equiv_pos_site_id
 _symmetry_equiv_pos_as_xyz
  1  'x, y, z'
loop_
 _atom_site_type_symbol
 _atom_site_label
 _atom_site_symmetry_multiplicity
 _atom_site_fract_x
 _atom_site_fract_y
 _atom_site_fract_z
 _atom_site_occupancy
  K  K0  1  0.00204683  -0.00529845  0.00712228  1
  K  K1  1  0.00038842  -0.01043141  0.49848301  1
  K  K2  1  -0.00279957  0.50830236  0.00479406  1
  K  K3  1  -0.00693790  0.50460689  0.49929083  1
  K  K4  1  0.33463057  -0.00518654  0.00259002  1
  K  K5  1  0.32766468  -0.00422716  0.49971154  1
  K  K6  1  0.33872263  0.51141031  0.00540093  1
  K  K7  1  0.33493583  0.50398740  0.50398326  1
  K  K8  1  0.66183315  -0.00807513  0.00780327  1
  K  K9  1  0.66301261  -0.00984655  0.49857972  1
  K  K10  1  0.66313842  0.50521571  -0.00154985  1
  K  K11  1  0.67042879  0.51302209  0.50177238  1
  K  K12  1  0.15993564  0.24347361  0.00571509  1
  K  K13  1  0.17661922  0.24369047  0.50226972  1
  K  K14  1  0.16699835  0.75111832  0.00227374  1
  K  K15  1  0.17238607  0.75827333  0.49656360  1
  K  K16  1  0.50394853  0.24414142  0.00120719  1
  K  K17  1  0.49214413  0.24935162  0.50270000  1
  K  K18  1  0.49701496  0.75062765  0.00320610  1
  K  K19  1  0.49555725  0.75391639  0.49526914  1
  K  K20  1  0.83537648  0.25215774  0.00155285  1
  K  K21  1  0.83265886  0.24578007  0.49773176  1
  K  K22  1  0.83562065  0.75123998  -0.00283666  1
  K  K23  1  0.82561018  0.74540153  0.50299206  1
  Na  Na24  1  0.50031057  -0.00233025  0.24803641  1
  Na  Na25  1  0.83223882  0.82825321  0.76286275  1
  Na  Na26  1  0.00179312  0.08174884  0.24403103  1
  Li  Li27  1  0.67185723  0.75019172  0.75511116  1
  Li  Li28  1  0.00151749  0.75156449  0.25118106  1
  Li  Li29  1  0.33200717  0.08375349  0.74264552  1
  Li  Li30  1  0.49852112  0.83556845  0.24936891  1
  Li  Li31  1  0.16134810  0.16413548  0.24696833  1
  Mg  Mg32  1  -0.00254553  0.74951309  0.75282268  1
  Mg  Mg33  1  0.16883956  0.00057641  0.74889370  1
  Mg  Mg34  1  0.00213837  0.25158913  0.74778836  1
  Mg  Mg35  1  0.66263280  0.75141608  0.25077829  1
  Mg  Mg36  1  0.49938001  0.50152705  0.25198809  1
  Mg  Mg37  1  0.16555094  0.49991985  0.24953250  1
  Mg  Mg38  1  0.33743384  0.75220321  0.25308955  1
  Mg  Mg39  1  0.33209856  0.75210323  0.75209807  1
  Mg  Mg40  1  0.66601783  0.24773186  0.24607835  1
  Mg  Mg41  1  0.49646958  -0.00021267  0.74755556  1
  Mg  Mg42  1  0.16868279  0.50032448  0.74736705  1
  Mg  Mg43  1  0.83405225  0.50039050  0.74993415  1
  Mg  Mg44  1  0.00295005  0.24916273  0.24753150  1
  Mg  Mg45  1  0.32936427  0.24703542  0.24953138  1
  Mg  Mg46  1  0.66765914  0.24878163  0.74659861  1
  Mg  Mg47  1  0.83410978  -0.00178118  0.75303836  1
  Mg  Mg48  1  0.50149971  0.50223984  0.75049389  1
  Mg  Mg49  1  0.16633556  0.00115786  0.25097920  1
  Mg  Mg50  1  0.33593986  0.24756614  0.74444699  1
  Mg  Mg51  1  0.83167932  0.50275963  0.25242916  1
  Mg  Mg52  1  0.83627504  -0.00245261  0.24583187  1
  Mg  Mg53  1  0.33233578  0.41500651  0.25176305  1
  Mg  Mg54  1  0.33533231  0.58486215  0.75057818  1
  Mg  Mg55  1  0.33401202  0.41618797  0.74583453  1
  Mg  Mg56  1  0.83392481  0.66800562  0.25346026  1
  Mg  Mg57  1  0.16747189  0.83277208  0.25327363  1
  Mg  Mg58  1  0.66429173  0.91561120  0.24629258  1
  Mg  Mg59  1  0.16294315  0.33042952  0.24826969  1
  Mg  Mg60  1  0.33015190  0.91921773  0.74919275  1
  Mg  Mg61  1  0.66504141  0.58624436  0.25449864  1
  Mg  Mg62  1  0.50065337  0.33414737  0.74500132  1
  Mg  Mg63  1  0.83524216  0.16577471  0.24489244  1
  Mg  Mg64  1  0.16577756  0.66654212  0.75030116  1
  Mg  Mg65  1  0.00299886  0.08417772  0.75174827  1
  Mg  Mg66  1  0.50221854  0.66811453  0.75349667  1
  Mg  Mg67  1  -0.00009709  0.91393426  0.24841956  1
  Mg  Mg68  1  0.83368280  0.33510208  0.24877422  1
  Mg  Mg69  1  0.66771588  0.91389466  0.75370962  1
  Mg  Mg70  1  0.00044731  0.91480931  0.75401957  1
  Mg  Mg71  1  0.83366828  0.66576852  0.75151315  1
  Mg  Mg72  1  0.17088185  0.16515184  0.74707991  1
  Mg  Mg73  1  0.33006000  0.08320757  0.24955338  1
  Mg  Mg74  1  0.00069708  0.41650025  0.74496846  1
  Mg  Mg75  1  0.16707975  0.66789980  0.25469010  1
  Mg  Mg76  1  0.33452982  0.58572058  0.25269140  1
  Mg  Mg77  1  0.83449858  0.16567248  0.74904548  1
  Mg  Mg78  1  0.66760311  0.41560082  0.74700768  1
  Mg  Mg79  1  0.66555207  0.41581256  0.25123590  1
  Mg  Mg80  1  -0.00116489  0.41621388  0.24845990  1
  Mg  Mg81  1  0.49704291  0.16341629  0.74615015  1
  Mg  Mg82  1  0.49809034  0.16362066  0.24632039  1
  Mg  Mg83  1  0.50183555  0.83281606  0.75147935  1
  Mg  Mg84  1  0.83534374  0.83197288  0.24625971  1
  Mg  Mg85  1  0.16426133  0.83714446  0.75088425  1
  Mg  Mg86  1  -0.00177441  0.58482681  0.75053459  1
  Mg  Mg87  1  0.49759119  0.66688419  0.25378518  1
  Mg  Mg88  1  0.33637274  0.91532951  0.25189073  1
  Mg  Mg89  1  0.66680331  0.08174595  0.24486935  1
  Mg  Mg90  1  0.83189631  0.33408738  0.74619611  1
  Mg  Mg91  1  0.66855041  0.58862452  0.75326770  1
  Mg  Mg92  1  -0.00054746  0.58773550  0.25393216  1
  Mg  Mg93  1  0.16981266  0.33478776  0.74541944  1
  Mg  Mg94  1  0.66754168  0.08184002  0.74909759  1
  Mg  Mg95  1  0.49864140  0.33265162  0.25071163  1
  Fe  Fe96  1  0.35651094  0.67147308  0.11065934  1
  Fe  Fe97  1  0.19003452  0.42080238  0.60644948  1
  Fe  Fe98  1  0.85803859  0.58052043  0.61057541  1
  Fe  Fe99  1  0.52742766  0.58072310  0.11201228  1
  Fe  Fe100  1  0.02089142  0.33164091  0.10712262  1
  Fe  Fe101  1  0.80677312  0.58641455  0.39258804  1
  Fe  Fe102  1  0.52465187  0.08599911  0.10479346  1
  Fe  Fe103  1  0.47464002  0.57952043  0.39429136  1
  Fe  Fe104  1  0.69141711  0.32765542  0.60711612  1
  Fe  Fe105  1  0.31174088  0.83423881  0.39316115  1
  Fe  Fe106  1  0.47640378  0.58392491  0.89065140  1
  Fe  Fe107  1  0.13956120  0.92159245  0.89225717  1
  Fe  Fe108  1  0.80791901  0.92038824  0.89441333  1
  Fe  Fe109  1  0.35947662  0.16554741  0.60634045  1
  Fe  Fe110  1  0.85718178  0.91279340  0.10618191  1
  Fe  Fe111  1  0.97696445  0.66234034  0.89347478  1
  Fe  Fe112  1  0.18589554  0.91593443  0.60820752  1
  Si  Si113  1  0.36366896  0.33920765  0.60789811  1
  Si  Si114  1  0.03456233  0.83227790  0.11522386  1
  Si  Si115  1  0.97784547  0.34053807  0.88271427  1
  Si  Si116  1  0.80790002  0.41307879  0.38779696  1
  Si  Si117  1  0.02185105  0.16555792  0.10927315  1
  Si  Si118  1  0.47665242  0.92081563  0.38921259  1
  Si  Si119  1  0.97520731  0.83481140  0.38400167  1
  Si  Si120  1  0.52555464  0.58804944  0.61634086  1
  Si  Si121  1  0.85749979  0.91675901  0.61761254  1
  Si  Si122  1  0.36094653  0.83351693  0.61498460  1
  Si  Si123  1  0.97866668  0.83150754  0.89357022  1
  Si  Si124  1  0.30551519  0.33226191  0.38588080  1
  Si  Si125  1  0.97366699  0.33153992  0.38518984  1
  Si  Si126  1  0.47783249  0.40867974  0.38893123  1
  Si  Si127  1  0.02068776  0.16794879  0.61405816  1
  Si  Si128  1  0.47515248  0.08096898  0.88242220  1
  Si  Si129  1  0.13821550  0.92081349  0.38835546  1
  Si  Si130  1  0.86005821  0.08075738  0.61509461  1
  Si  Si131  1  0.14322700  0.57843186  0.88579581  1
  Si  Si132  1  0.52600974  0.91207889  0.11053198  1
  Si  Si133  1  0.30648112  0.83158377  0.88801432  1
  Si  Si134  1  0.85415802  0.42550092  0.11254793  1
  Si  Si135  1  0.69766880  0.17239730  0.10826202  1
  Si  Si136  1  0.19060201  0.59136071  0.61271601  1
  Si  Si137  1  0.02715052  0.66713222  0.61467522  1
  Si  Si138  1  0.14820074  0.41526505  0.88267546  1
  Si  Si139  1  0.19360629  0.41478846  0.11409737  1
  Si  Si140  1  0.14545222  0.09200554  0.88759705  1
  Si  Si141  1  0.80213667  0.58082128  0.89035236  1
  Si  Si142  1  0.64262817  0.32673205  0.38447864  1
  Si  Si143  1  0.81034894  0.91650867  0.38271738  1
  Si  Si144  1  0.69127929  0.15806570  0.61161547  1
  Si  Si145  1  0.35914820  0.66882761  0.61659153  1
  Si  Si146  1  0.97489955  0.67044357  0.38978410  1
  Si  Si147  1  0.64421296  0.84062670  0.38480444  1
  Si  Si148  1  0.64535454  0.16299774  0.38336561  1
  Si  Si149  1  0.69513606  0.66326235  0.11668268  1
  Si  Si150  1  0.63703678  0.67528920  0.39253211  1
  Si  Si151  1  0.03058586  0.66627283  0.11914805  1
  Si  Si152  1  0.31261297  0.33150714  0.88260483  1
  Si  Si153  1  0.31167789  0.16922895  0.88204543  1
  Si  Si154  1  0.69101445  0.66970144  0.61466593  1
  Si  Si155  1  0.47460593  0.08812168  0.38517728  1
  Si  Si156  1  0.86219920  0.59050374  0.11806337  1
  Si  Si157  1  0.13579534  0.58175475  0.38797898  1
  Si  Si158  1  0.13942248  0.41602656  0.38549509  1
  Si  Si159  1  0.64091977  0.67172720  0.88909432  1
  Si  Si160  1  0.52892589  0.07699322  0.61114971  1
  Si  Si161  1  0.18804985  0.08266829  0.11529890  1
  Si  Si162  1  0.51958165  0.41015078  0.11456214  1
  Si  Si163  1  0.19557628  0.91931714  0.11780944  1
  Si  Si164  1  0.81486325  0.08912269  0.88745637  1
  Si  Si165  1  0.35046327  0.16797562  0.11096277  1
  Si  Si166  1  0.69038709  0.83450515  0.61896456  1
  Si  Si167  1  0.97715484  0.17507364  0.88424726  1
  Si  Si168  1  0.02608078  0.33111354  0.61087255  1
  Si  Si169  1  0.52683292  0.91304706  0.61614774  1
  Si  Si170  1  0.30328363  0.66078071  0.39334666  1
  Si  Si171  1  0.18206836  0.08536585  0.60831856  1
  Si  Si172  1  0.69152093  0.33835205  0.11410580  1
  Si  Si173  1  0.64163058  0.32742112  0.88312321  1
  Si  Si174  1  0.01728419  0.82959447  0.61302594  1
  Si  Si175  1  0.85503679  0.08338585  0.10980424  1
  Si  Si176  1  0.86045447  0.41037240  0.60990263  1
  Si  Si177  1  0.53027022  0.42291329  0.61196791  1
  Si  Si178  1  0.30834979  0.16639880  0.38548512  1
  Si  Si179  1  0.63709128  0.83768707  0.88922325  1
  Si  Si180  1  0.47016728  0.91519484  0.88508329  1
  Si  Si181  1  0.14268209  0.08535826  0.38369883  1
  Si  Si182  1  0.35612412  0.83790090  0.11398159  1
  Si  Si183  1  0.64163909  0.16251603  0.88319806  1
  Si  Si184  1  0.19097798  0.57977819  0.11524721  1
  Si  Si185  1  0.81163425  0.08212519  0.38175836  1
  Si  Si186  1  0.80619913  0.41497046  0.88489788  1
  Si  Si187  1  0.97537664  0.16850066  0.38291637  1
  Si  Si188  1  0.47924633  0.41315624  0.88520631  1
  Si  Si189  1  0.30379440  0.66576922  0.88614793  1
  Si  Si190  1  0.35558266  0.33162610  0.11686148  1
  Si  Si191  1  0.68752585  0.82583725  0.11115446  1
  O  O192  1  0.26567801  0.11917328  0.08320385  1
  O  O193  1  0.26002676  0.11377821  0.57423574  1
  O  O194  1  0.26569255  0.60765426  0.07918118  1
  O  O195  1  0.27669000  0.61959631  0.58611515  1
  O  O196  1  0.61588253  0.12979392  0.07048887  1
  O  O197  1  0.61987529  0.09558203  0.58701518  1
  O  O198  1  0.63103155  0.60128019  0.08419607  1
  O  O199  1  0.60245181  0.62447689  0.58525537  1
  O  O200  1  0.94255923  0.10930885  0.08485587  1
  O  O201  1  0.94040805  0.11459775  0.58530975  1
  O  O202  1  0.94423718  0.62040552  0.08887320  1
  O  O203  1  0.95885839  0.60815177  0.58162359  1
  O  O204  1  0.12033491  0.36190145  0.07741896  1
  O  O205  1  0.10641629  0.35007706  0.57669004  1
  O  O206  1  0.11933488  0.86330969  0.08762851  1
  O  O207  1  0.09268681  0.85595490  0.57584397  1
  O  O208  1  0.44236515  0.35174403  0.08905779  1
  O  O209  1  0.45049137  0.37002183  0.58361286  1
  O  O210  1  0.43898355  0.86563864  0.08331090  1
  O  O211  1  0.44779916  0.85950639  0.58868796  1
  O  O212  1  0.76367972  0.38402164  0.08445636  1
  O  O213  1  0.79472924  0.34685837  0.58053672  1
  O  O214  1  0.76540615  0.85119352  0.07620791  1
  O  O215  1  0.77026633  0.87176299  0.58940011  1
  O  O216  1  0.28281116  0.39127064  0.08882910  1
  O  O217  1  0.28989864  0.39570752  0.57729258  1
  O  O218  1  0.28049757  0.89795048  0.08819161  1
  O  O219  1  0.28438089  0.88300239  0.57865280  1
  O  O220  1  0.60095096  0.37621610  0.08528331  1
  O  O221  1  0.60949477  0.39865608  0.57827236  1
  O  O222  1  0.60278657  0.87221430  0.07905462  1
  O  O223  1  0.60774808  0.88356115  0.58469238  1
  O  O224  1  0.92632494  0.39185602  0.07587285  1
  O  O225  1  0.95058141  0.38887595  0.58489199  1
  O  O226  1  0.95461831  0.87772981  0.07727335  1
  O  O227  1  0.93241421  0.87907143  0.58431970  1
  O  O228  1  0.10363500  0.12838454  0.08232118  1
  O  O229  1  0.10191098  0.14312903  0.58234162  1
  O  O230  1  0.10471182  0.62612666  0.08690741  1
  O  O231  1  0.11807485  0.65321180  0.58863027  1
  O  O232  1  0.42586479  0.14248264  0.07353295  1
  O  O233  1  0.45576990  0.12917639  0.57412128  1
  O  O234  1  0.44660818  0.64338752  0.07135874  1
  O  O235  1  0.44005211  0.63492401  0.58823018  1
  O  O236  1  0.78295435  0.14522592  0.08110018  1
  O  O237  1  0.77746642  0.12999768  0.58471094  1
  O  O238  1  0.78560915  0.64600276  0.09079590  1
  O  O239  1  0.76463728  0.63902941  0.57754341  1
  O  O240  1  0.06427982  0.12701102  0.41171550  1
  O  O241  1  0.06431574  0.13192343  0.91432887  1
  O  O242  1  0.05692420  0.61736368  0.41737857  1
  O  O243  1  0.06396135  0.59411181  0.92155988  1
  O  O244  1  0.39906701  0.12764624  0.41819293  1
  O  O245  1  0.39592808  0.11991680  0.91068941  1
  O  O246  1  0.37656565  0.60497718  0.42604434  1
  O  O247  1  0.37669205  0.61115805  0.91932557  1
  O  O248  1  0.73161680  0.11656412  0.41265590  1
  O  O249  1  0.73024959  0.12207010  0.91364532  1
  O  O250  1  0.71775352  0.62754736  0.42665583  1
  O  O251  1  0.72202948  0.61835708  0.91774893  1
  O  O252  1  0.22754386  0.37234956  0.41479919  1
  O  O253  1  0.22889115  0.36206571  0.91076353  1
  O  O254  1  0.22024375  0.87804879  0.42546480  1
  O  O255  1  0.23147654  0.85992883  0.92402794  1
  O  O256  1  0.55830196  0.35260122  0.41281033  1
  O  O257  1  0.56138032  0.35995347  0.91290355  1
  O  O258  1  0.57110964  0.88382488  0.41616782  1
  O  O259  1  0.54937013  0.86336722  0.91636355  1
  O  O260  1  0.89302880  0.36364867  0.41527523  1
  O  O261  1  0.89827934  0.37593043  0.91280610  1
  O  O262  1  0.89408070  0.86873635  0.41441697  1
  O  O263  1  0.88777933  0.84758519  0.91624170  1
  O  O264  1  0.06037762  0.37735264  0.41389261  1
  O  O265  1  0.06423507  0.38635877  0.91188440  1
  O  O266  1  0.05467965  0.88712791  0.41505340  1
  O  O267  1  0.04547200  0.89331513  0.92734570  1
  O  O268  1  0.39506909  0.37246406  0.41587079  1
  O  O269  1  0.39623965  0.37937708  0.91267913  1
  O  O270  1  0.41078021  0.88529060  0.43169186  1
  O  O271  1  0.38987323  0.88289521  0.91508477  1
  O  O272  1  0.72703665  0.37368735  0.41405898  1
  O  O273  1  0.73160811  0.36852901  0.91289088  1
  O  O274  1  0.73219927  0.88493119  0.41615631  1
  O  O275  1  0.70853369  0.89272351  0.92488725  1
  O  O276  1  0.23186945  0.12707993  0.41639503  1
  O  O277  1  0.22936987  0.14335412  0.91364783  1
  O  O278  1  0.21765677  0.62896063  0.41986166  1
  O  O279  1  0.21727069  0.63826581  0.91209153  1
  O  O280  1  0.56498669  0.13074824  0.41370687  1
  O  O281  1  0.56290576  0.12571982  0.91305440  1
  O  O282  1  0.55650885  0.64937986  0.42462792  1
  O  O283  1  0.56427098  0.64611612  0.92590759  1
  O  O284  1  0.89729592  0.12863296  0.41300098  1
  O  O285  1  0.89376320  0.14686652  0.91255152  1
  O  O286  1  0.90005218  0.64415054  0.42751305  1
  O  O287  1  0.88645928  0.61982844  0.92799454  1
  O  O288  1  0.17124220  0.00017403  0.08654741  1
  O  O289  1  0.15059968  0.00785651  0.57634059  1
  O  O290  1  0.16874674  0.49676670  0.08789288  1
  O  O291  1  0.16055998  0.51577254  0.57690472  1
  O  O292  1  0.51141296  -0.00948711  0.07405434  1
  O  O293  1  0.50605360  -0.00617644  0.58500383  1
  O  O294  1  0.49412088  0.48605144  0.08020860  1
  O  O295  1  0.50554602  0.50628265  0.58715204  1
  O  O296  1  0.82691412  0.00708258  0.07513578  1
  O  O297  1  0.84340184  -0.00093911  0.58481189  1
  O  O298  1  0.83855576  0.50974103  0.08697014  1
  O  O299  1  0.82969748  0.48723653  0.57775059  1
  O  O300  1  -0.00095687  0.24008158  0.06756189  1
  O  O301  1  -0.00810642  0.24910517  0.58684223  1
  O  O302  1  0.02234538  0.74765963  0.08867413  1
  O  O303  1  -0.00778728  0.74693618  0.58750192  1
  O  O304  1  0.32406599  0.25228856  0.08715286  1
  O  O305  1  0.34416017  0.26104186  0.57346051  1
  O  O306  1  0.32362853  0.76357099  0.07705894  1
  O  O307  1  0.34377222  0.75023175  0.58685020  1
  O  O308  1  0.68823496  0.25753496  0.08239681  1
  O  O309  1  0.66011163  0.23314887  0.57591905  1
  O  O310  1  0.66360707  0.74233730  0.08662668  1
  O  O311  1  0.67402455  0.75354387  0.58708828  1
  O  O312  1  0.14576541  0.00464207  0.41695309  1
  O  O313  1  0.16489578  0.01641038  0.92476478  1
  O  O314  1  0.14805782  0.49800180  0.41611274  1
  O  O315  1  0.17653423  0.49577611  0.91057680  1
  O  O316  1  0.48955654  0.00662848  0.41511994  1
  O  O317  1  0.48557239  -0.00118155  0.91328082  1
  O  O318  1  0.50213192  0.48392047  0.42575780  1
  O  O319  1  0.50306416  0.48908961  0.92077706  1
  O  O320  1  0.82696973  -0.00000200  0.41140524  1
  O  O321  1  0.84272130  0.01474018  0.92416450  1
  O  O322  1  0.82367411  0.49022476  0.42275363  1
  O  O323  1  0.80542985  0.49499487  0.91748490  1
  O  O324  1  0.31262234  0.24974346  0.41525138  1
  O  O325  1  0.33341481  0.25061494  0.91353927  1
  O  O326  1  0.32141310  0.73964321  0.42692616  1
  O  O327  1  0.32818613  0.74793014  0.91327971  1
  O  O328  1  0.66364450  0.24477982  0.41329384  1
  O  O329  1  0.65269897  0.24518657  0.91267590  1
  O  O330  1  0.65559172  0.76019460  0.41790581  1
  O  O331  1  0.66305408  0.75501902  0.91511433  1
  O  O332  1  0.98655162  0.24983994  0.41623946  1
  O  O333  1  0.99258718  0.25835361  0.91177531  1
  O  O334  1  0.99858393  0.75409730  0.41519906  1
  O  O335  1  1.01130813  0.75328897  0.92594055  1
  O  O336  1  0.20899671  0.08294847  0.19468803  1
  O  O337  1  0.20032598  0.08490335  0.68918006  1
  O  O338  1  0.20929204  0.58146011  0.19650164  1
  O  O339  1  0.21087610  0.58546440  0.69391647  1
  O  O340  1  0.55013872  0.09260294  0.19470467  1
  O  O341  1  0.54424268  0.08169194  0.69203669  1
  O  O342  1  0.54676227  0.58187100  0.20413454  1
  O  O343  1  0.54580574  0.58552628  0.69651127  1
  O  O344  1  0.86557448  0.08300948  0.18973026  1
  O  O345  1  0.87815329  0.08391184  0.69552599  1
  O  O346  1  0.87968852  0.58460012  0.19813746  1
  O  O347  1  0.87735112  0.57989753  0.70192169  1
  O  O348  1  0.04160711  0.33600831  0.19876120  1
  O  O349  1  0.04510440  0.33262591  0.69235491  1
  O  O350  1  0.04899385  0.83416994  0.19523465  1
  O  O351  1  0.03925342  0.83290755  0.69370440  1
  O  O352  1  0.37495746  0.33203700  0.19753226  1
  O  O353  1  0.37927370  0.33551862  0.68995569  1
  O  O354  1  0.37390535  0.83438771  0.19391249  1
  O  O355  1  0.37607351  0.83374957  0.69585982  1
  O  O356  1  0.70979360  0.33526027  0.19470696  1
  O  O357  1  0.71125927  0.33155147  0.69928554  1
  O  O358  1  0.70899343  0.83099635  0.19207621  1
  O  O359  1  0.70163910  0.83522787  0.69719039  1
  O  O360  1  0.20898560  0.41452561  0.19526902  1
  O  O361  1  0.21232358  0.41771146  0.69841037  1
  O  O362  1  0.21082452  0.91795744  0.19783523  1
  O  O363  1  0.21062697  0.91623601  0.69930607  1
  O  O364  1  0.54153725  0.41278470  0.19577572  1
  O  O365  1  0.54592368  0.41876363  0.69338267  1
  O  O366  1  0.55010404  0.91248272  0.18948737  1
  O  O367  1  0.54351064  0.91633683  0.69636919  1
  O  O368  1  0.87378627  0.41985147  0.19362077  1
  O  O369  1  0.87746788  0.41353679  0.69198355  1
  O  O370  1  0.87812556  0.91450421  0.19744894  1
  O  O371  1  0.88178311  0.92299277  0.69644546  1
  O  O372  1  0.04190932  0.17701277  0.18770765  1
  O  O373  1  0.04132854  0.16723396  0.69469021  1
  O  O374  1  0.04761008  0.66302203  0.19877987  1
  O  O375  1  0.04595845  0.66544224  0.69556988  1
  O  O376  1  0.37344900  0.16678397  0.19179415  1
  O  O377  1  0.38042167  0.16789096  0.69686062  1
  O  O378  1  0.37499762  0.66731691  0.20267364  1
  O  O379  1  0.37506243  0.66895164  0.69680850  1
  O  O380  1  0.71131307  0.16981910  0.18945152  1
  O  O381  1  0.71143020  0.16396212  0.69290269  1
  O  O382  1  0.70999053  0.66626348  0.19747682  1
  O  O383  1  0.71124975  0.66287035  0.69431333  1
  O  O384  1  0.13113078  0.08312286  0.30545653  1
  O  O385  1  0.12508792  0.08873832  0.80656566  1
  O  O386  1  0.12137276  0.58104871  0.30751151  1
  O  O387  1  0.12467870  0.58020474  0.80458015  1
  O  O388  1  0.45199107  0.09249538  0.30605487  1
  O  O389  1  0.46265538  0.08199921  0.80325314  1
  O  O390  1  0.45367030  0.57900118  0.30331978  1
  O  O391  1  0.45551164  0.58315538  0.79889517  1
  O  O392  1  0.79237419  0.08496387  0.30178755  1
  O  O393  1  0.79336158  0.08775170  0.80622205  1
  O  O394  1  0.78767147  0.58349082  0.30104147  1
  O  O395  1  0.78853855  0.57807781  0.80979537  1
  O  O396  1  0.28827512  0.33303562  0.30567141  1
  O  O397  1  0.29425736  0.33207837  0.80219435  1
  O  O398  1  0.28897029  0.83351328  0.30201020  1
  O  O399  1  0.28945184  0.83347276  0.80707043  1
  O  O400  1  0.62425282  0.32972916  0.30384954  1
  O  O401  1  0.62352093  0.33103649  0.80303805  1
  O  O402  1  0.62948424  0.83701751  0.30557689  1
  O  O403  1  0.61794443  0.83968064  0.80918331  1
  O  O404  1  0.95426512  0.33442067  0.30497330  1
  O  O405  1  0.95813259  0.33622685  0.80234191  1
  O  O406  1  0.95548658  0.83392562  0.30474748  1
  O  O407  1  0.97156264  0.83245165  0.81265702  1
  O  O408  1  0.12282651  0.41731566  0.30535823  1
  O  O409  1  0.12502639  0.41433765  0.80247678  1
  O  O410  1  0.12358257  0.91773759  0.30799802  1
  O  O411  1  0.12156476  0.92034106  0.80055549  1
  O  O412  1  0.45710713  0.41217618  0.30782554  1
  O  O413  1  0.45976183  0.41449392  0.80401227  1
  O  O414  1  0.45074989  0.91428856  0.31083331  1
  O  O415  1  0.45413125  0.91659338  0.80467651  1
  O  O416  1  0.79028766  0.41411063  0.30659186  1
  O  O417  1  0.79077602  0.41530587  0.80466331  1
  O  O418  1  0.79032039  0.91542824  0.30294527  1
  O  O419  1  0.78273936  0.92802628  0.80463673  1
  O  O420  1  0.29455630  0.16723072  0.30617779  1
  O  O421  1  0.28955562  0.17156689  0.80272955  1
  O  O422  1  0.28634066  0.66194173  0.31208973  1
  O  O423  1  0.28816247  0.66616703  0.80489571  1
  O  O424  1  0.62729741  0.16613765  0.30336215  1
  O  O425  1  0.62410160  0.16486233  0.80263281  1
  O  O426  1  0.62400410  0.67017381  0.31149276  1
  O  O427  1  0.61973076  0.66407648  0.80915722  1
  O  O428  1  0.95187362  0.17409723  0.30393983  1
  O  O429  1  0.95905437  0.17058373  0.80373001  1
  O  O430  1  0.95410798  0.66400170  0.30993146  1
  O  O431  1  0.95792836  0.66471533  0.80232110  1
  F  F432  1  0.05121381  -0.01081564  0.19779721  1
  F  F433  1  0.04338795  0.00370181  0.70251170  1
  F  F434  1  0.04357387  0.50135585  0.20348675  1
  F  F435  1  0.04649060  0.49990639  0.70172354  1
  F  F436  1  0.36539352  0.00134210  0.19983117  1
  F  F437  1  0.38029771  -0.00444188  0.69820948  1
  F  F438  1  0.37681973  0.49526458  0.20374521  1
  F  F439  1  0.37983627  0.49974675  0.70020634  1
  F  F440  1  0.71379122  -0.00091924  0.19860520  1
  F  F441  1  0.71289882  0.00324728  0.70041258  1
  F  F442  1  0.71079236  0.49638324  0.20378689  1
  F  F443  1  0.71213935  0.50060292  0.70365171  1
  F  F444  1  0.21342120  0.25376376  0.20092173  1
  F  F445  1  0.21262453  0.25058242  0.69882080  1
  F  F446  1  0.21222168  0.74688977  0.20479572  1
  F  F447  1  0.21223042  0.75113839  0.70341081  1
  F  F448  1  0.54459190  0.25129670  0.20111930  1
  F  F449  1  0.54680773  0.24883562  0.70019221  1
  F  F450  1  0.54588849  0.74522259  0.20457212  1
  F  F451  1  0.53813118  0.74977105  0.70323233  1
  F  F452  1  0.87701572  0.25359737  0.19952662  1
  F  F453  1  0.87999265  0.24918639  0.70205725  1
  F  F454  1  0.87622544  0.74674678  0.20237918  1
  F  F455  1  0.88121525  0.74379089  0.70041365  1
  F  F456  1  0.28787283  0.00168128  0.30117899  1
  F  F457  1  0.28848570  0.00273831  0.79745280  1
  F  F458  1  0.28533209  0.49689356  0.29878409  1
  F  F459  1  0.29065209  0.50002268  0.79687546  1
  F  F460  1  0.63799199  0.00119042  0.30074400  1
  F  F461  1  0.61839855  0.00283515  0.79637163  1
  F  F462  1  0.62241160  0.49452378  0.30180370  1
  F  F463  1  0.62283151  0.49767836  0.79794043  1
  F  F464  1  0.95116088  -0.00655544  0.30098813  1
  F  F465  1  0.95624145  0.00439305  0.80006224  1
  F  F466  1  0.95449943  0.49820016  0.29907860  1
  F  F467  1  0.95684491  0.49394087  0.79851272  1
  F  F468  1  0.11893886  0.25484611  0.30239522  1
  F  F469  1  0.12320533  0.25143864  0.79480710  1
  F  F470  1  0.12565243  0.74985162  0.30256127  1
  F  F471  1  0.12281382  0.74990607  0.79660189  1
  F  F472  1  0.45441882  0.24872940  0.29629741  1
  F  F473  1  0.45817503  0.25224372  0.79614117  1
  F  F474  1  0.45399179  0.74733687  0.30434990  1
  F  F475  1  0.45223254  0.75145070  0.80047155  1
  F  F476  1  0.78692546  0.24974714  0.29477074  1
  F  F477  1  0.79018837  0.24857803  0.79786727  1
  F  F478  1  0.78668064  0.75211699  0.29848858  1
  F  F479  1  0.78444105  0.73299538  0.80672955  1
