# generated using pymatgen
data_K24Na3Li5Mg64Fe17Si79(O5F)48
_symmetry_space_group_name_H-M   'P 1'
_cell_length_a   16.09060843
_cell_length_b   18.59204389
_cell_length_c   20.56112375
_cell_angle_alpha   90.00554979
_cell_angle_beta   100.01688815
_cell_angle_gamma   89.98938970
_symmetry_Int_Tables_number   1
_chemical_formula_structural   K24Na3Li5Mg64Fe17Si79(O5F)48
_chemical_formula_sum   'K24 Na3 Li5 Mg64 Fe17 Si79 O240 F48'
_cell_volume   6057.24734954
_cell_formula_units_Z   1
loop_
 _symmetry_equiv_pos_site_id
 _symmetry_equiv_pos_as_xyz
  1  'x, y, z'
loop_
 _atom_site_type_symbol
 _atom_site_label
 _atom_site_symmetry_multiplicity
 _atom_site_fract_x
 _atom_site_fract_y
 _atom_site_fract_z
 _atom_site_occupancy
  K  K0  1  0.01419253  0.00070386  -0.00054122  1
  K  K1  1  0.00409716  0.00698196  0.50507112  1
  K  K2  1  -0.00343701  0.49795737  -0.00435850  1
  K  K3  1  0.00359262  0.49455475  0.51101327  1
  K  K4  1  0.32790734  -0.00864730  -0.00379091  1
  K  K5  1  0.33180510  -0.00208047  0.50212375  1
  K  K6  1  0.32622543  0.51123089  -0.01079816  1
  K  K7  1  0.32855940  0.50680420  0.50989815  1
  K  K8  1  0.65905236  -0.00422969  -0.01063002  1
  K  K9  1  0.66319602  0.00022080  0.50432617  1
  K  K10  1  0.66293484  0.50191607  -0.01685326  1
  K  K11  1  0.67019075  0.50804217  0.51196044  1
  K  K12  1  0.16500037  0.25146317  -0.00031377  1
  K  K13  1  0.16931776  0.25208293  0.50864350  1
  K  K14  1  0.17242081  0.74976853  -0.00433600  1
  K  K15  1  0.18688597  0.74882709  0.50088405  1
  K  K16  1  0.50868188  0.24906222  -0.00747674  1
  K  K17  1  0.49658235  0.25381375  0.50625783  1
  K  K18  1  0.48725874  0.73954266  -0.00241361  1
  K  K19  1  0.50042837  0.74667002  0.50368084  1
  K  K20  1  0.82881930  0.26489609  -0.01280520  1
  K  K21  1  0.84045951  0.24766702  0.50698539  1
  K  K22  1  0.84232833  0.74950284  -0.00335012  1
  K  K23  1  0.82655628  0.74937319  0.50773211  1
  Na  Na24  1  0.50428911  0.49785884  0.75281242  1
  Na  Na25  1  0.49982428  0.83332061  0.74920315  1
  Na  Na26  1  0.83164677  0.17112686  0.75194568  1
  Li  Li27  1  0.16758590  0.50387108  0.74767016  1
  Li  Li28  1  0.49896969  -0.00206702  0.74915079  1
  Li  Li29  1  0.66415178  0.41960103  0.75546685  1
  Li  Li30  1  0.16557522  0.33192378  0.25177903  1
  Li  Li31  1  0.49541204  0.83332098  0.25197003  1
  Mg  Mg32  1  0.32991659  0.25059468  0.25193623  1
  Mg  Mg33  1  -0.00037147  0.24889752  0.25413352  1
  Mg  Mg34  1  0.66278122  0.75022451  0.24719446  1
  Mg  Mg35  1  0.83207602  -0.00157273  0.25345655  1
  Mg  Mg36  1  0.33351706  0.74915514  0.75226877  1
  Mg  Mg37  1  0.16785823  0.00097643  0.74825486  1
  Mg  Mg38  1  0.16781383  -0.00076066  0.25051447  1
  Mg  Mg39  1  0.83360256  0.00110947  0.75139775  1
  Mg  Mg40  1  0.66706890  0.25291496  0.75289471  1
  Mg  Mg41  1  -0.00096570  0.74935855  0.74948387  1
  Mg  Mg42  1  0.33731059  0.74913506  0.24987653  1
  Mg  Mg43  1  0.33470588  0.25228182  0.74639053  1
  Mg  Mg44  1  0.00166300  0.74907036  0.24543721  1
  Mg  Mg45  1  0.66657319  0.24772213  0.25391231  1
  Mg  Mg46  1  0.49739350  -0.00068303  0.25477569  1
  Mg  Mg47  1  0.50054007  0.49967043  0.24901076  1
  Mg  Mg48  1  -0.00097433  0.25186413  0.74899296  1
  Mg  Mg49  1  0.83125045  0.50204707  0.74870003  1
  Mg  Mg50  1  0.83455628  0.50114738  0.24582307  1
  Mg  Mg51  1  0.16670648  0.49714402  0.25068324  1
  Mg  Mg52  1  0.66532289  0.74885770  0.74645033  1
  Mg  Mg53  1  0.66213351  0.91478720  0.25113714  1
  Mg  Mg54  1  0.83363841  0.66580033  0.24436039  1
  Mg  Mg55  1  0.16565603  0.16831586  0.25241655  1
  Mg  Mg56  1  0.33094450  0.41452214  0.25091322  1
  Mg  Mg57  1  0.66516084  0.08335117  0.25630130  1
  Mg  Mg58  1  0.33603313  0.91757815  0.74894848  1
  Mg  Mg59  1  0.66670838  0.58488957  0.24526537  1
  Mg  Mg60  1  0.33017627  0.58284939  0.74933193  1
  Mg  Mg61  1  0.66238618  0.91797035  0.75027989  1
  Mg  Mg62  1  0.83365288  0.16351566  0.25440725  1
  Mg  Mg63  1  0.49954328  0.66499187  0.74823936  1
  Mg  Mg64  1  0.83455077  0.33315127  0.25154307  1
  Mg  Mg65  1  0.82976717  0.33648270  0.75093407  1
  Mg  Mg66  1  0.33506641  0.08284199  0.74778039  1
  Mg  Mg67  1  0.50114925  0.33314153  0.25130897  1
  Mg  Mg68  1  0.83423534  0.66536329  0.74807819  1
  Mg  Mg69  1  0.00138513  0.41837440  0.74890829  1
  Mg  Mg70  1  0.16831203  0.16652144  0.74863362  1
  Mg  Mg71  1  0.17281640  0.83356862  0.25030002  1
  Mg  Mg72  1  0.49863602  0.66708850  0.24830824  1
  Mg  Mg73  1  -0.00055180  0.58311352  0.24702446  1
  Mg  Mg74  1  0.00227745  0.91693060  0.75174941  1
  Mg  Mg75  1  0.17032444  0.66478631  0.24937083  1
  Mg  Mg76  1  0.33159427  0.42013838  0.74983756  1
  Mg  Mg77  1  0.33396643  0.58464362  0.25052373  1
  Mg  Mg78  1  0.00184857  0.91456282  0.24842508  1
  Mg  Mg79  1  0.00152264  0.41382415  0.25055201  1
  Mg  Mg80  1  0.50276788  0.33514565  0.75037744  1
  Mg  Mg81  1  0.00059914  0.08572837  0.75157122  1
  Mg  Mg82  1  0.66746846  0.58231507  0.74801151  1
  Mg  Mg83  1  0.50160507  0.16426545  0.75074071  1
  Mg  Mg84  1  0.33415518  0.08441920  0.25275765  1
  Mg  Mg85  1  0.33570822  0.91277076  0.25111433  1
  Mg  Mg86  1  0.16857056  0.83545882  0.75125142  1
  Mg  Mg87  1  0.00012977  0.58345093  0.74747160  1
  Mg  Mg88  1  0.16534340  0.66386622  0.74854565  1
  Mg  Mg89  1  0.83217160  0.83293035  0.24864113  1
  Mg  Mg90  1  0.83201824  0.83441672  0.74938185  1
  Mg  Mg91  1  0.16671094  0.33739445  0.74917186  1
  Mg  Mg92  1  0.66567144  0.08244022  0.75268754  1
  Mg  Mg93  1  -0.00067247  0.08401075  0.25319959  1
  Mg  Mg94  1  0.66838287  0.41551535  0.25006023  1
  Mg  Mg95  1  0.50080275  0.16552676  0.25424250  1
  Fe  Fe96  1  0.64314699  0.33340018  0.89244896  1
  Fe  Fe97  1  0.19279030  0.91971118  0.11001922  1
  Fe  Fe98  1  0.68906776  0.67008895  0.60718267  1
  Fe  Fe99  1  0.47375988  0.08841635  0.39376139  1
  Fe  Fe100  1  0.86142267  0.58140963  0.60629058  1
  Fe  Fe101  1  0.19406557  0.08117294  0.60900839  1
  Fe  Fe102  1  0.31493945  0.83470217  0.39302532  1
  Fe  Fe103  1  0.13816291  0.57468400  0.88962993  1
  Fe  Fe104  1  0.96915030  0.16557428  0.39269558  1
  Fe  Fe105  1  0.14271894  0.92450776  0.88870313  1
  Fe  Fe106  1  0.64376574  0.17046839  0.39440214  1
  Fe  Fe107  1  0.19124857  0.42319703  0.61067585  1
  Fe  Fe108  1  0.97396918  0.66829415  0.88955900  1
  Fe  Fe109  1  0.31237348  0.66264384  0.39202801  1
  Fe  Fe110  1  0.30700292  0.66683938  0.88864828  1
  Fe  Fe111  1  0.85666799  0.58288789  0.10584332  1
  Fe  Fe112  1  0.35991738  0.66272428  0.10882736  1
  Si  Si113  1  0.14149133  0.41812616  0.38426056  1
  Si  Si114  1  0.97348839  0.66881185  0.38209768  1
  Si  Si115  1  0.13555320  0.58311916  0.38594651  1
  Si  Si116  1  0.52558650  0.58029810  0.61141216  1
  Si  Si117  1  0.31504588  0.17021556  0.88464761  1
  Si  Si118  1  0.64023392  0.66371751  0.38263563  1
  Si  Si119  1  0.68936183  0.16451258  0.61710151  1
  Si  Si120  1  0.64618846  0.16253259  0.89064850  1
  Si  Si121  1  0.03099351  0.66339020  0.11216325  1
  Si  Si122  1  0.47258712  0.58233990  0.88502085  1
  Si  Si123  1  0.47450386  0.92057288  0.88356232  1
  Si  Si124  1  0.85406290  0.41161025  0.61242853  1
  Si  Si125  1  0.35725778  0.33688193  0.11465888  1
  Si  Si126  1  0.19244652  0.59368321  0.60965633  1
  Si  Si127  1  0.14590120  0.09469785  0.88905928  1
  Si  Si128  1  0.97475388  0.33725253  0.38909486  1
  Si  Si129  1  0.31388344  0.83688655  0.88890795  1
  Si  Si130  1  0.64034298  0.82895682  0.38364519  1
  Si  Si131  1  0.35892685  0.17145485  0.11553431  1
  Si  Si132  1  0.68720249  0.84164243  0.61111798  1
  Si  Si133  1  0.68789183  0.83721706  0.11395144  1
  Si  Si134  1  0.80984846  0.07683710  0.88716746  1
  Si  Si135  1  0.31019526  0.33199788  0.88486347  1
  Si  Si136  1  0.85844173  0.08329243  0.61705090  1
  Si  Si137  1  0.52198007  0.08309744  0.11576424  1
  Si  Si138  1  0.65091146  0.33766971  0.38754399  1
  Si  Si139  1  0.30884967  0.33444952  0.38589644  1
  Si  Si140  1  0.02136063  0.83356549  0.61381904  1
  Si  Si141  1  0.52738151  0.08481044  0.61647498  1
  Si  Si142  1  0.81007620  0.42509749  0.38382710  1
  Si  Si143  1  0.47025988  0.41460136  0.88753372  1
  Si  Si144  1  0.02798196  0.67050786  0.60929839  1
  Si  Si145  1  0.13876337  0.91555759  0.38631638  1
  Si  Si146  1  0.80292697  0.07393261  0.39192119  1
  Si  Si147  1  0.47975483  0.57464263  0.38689699  1
  Si  Si148  1  0.53344730  0.57960783  0.11076115  1
  Si  Si149  1  0.47599655  0.08300541  0.88529773  1
  Si  Si150  1  0.36393613  0.16905820  0.61196602  1
  Si  Si151  1  0.52317828  0.92332430  0.61585814  1
  Si  Si152  1  0.85736176  0.91391206  0.11421264  1
  Si  Si153  1  0.97418518  0.16727901  0.88657298  1
  Si  Si154  1  0.80322639  0.58843343  0.88653476  1
  Si  Si155  1  0.35958988  0.83215468  0.61546572  1
  Si  Si156  1  0.69190643  0.32794230  0.61492653  1
  Si  Si157  1  0.97474959  0.83266880  0.38317001  1
  Si  Si158  1  0.69150024  0.16002823  0.11684238  1
  Si  Si159  1  0.69203682  0.67289546  0.11045507  1
  Si  Si160  1  0.80828904  0.58880963  0.38138558  1
  Si  Si161  1  0.85786856  0.07965700  0.11553987  1
  Si  Si162  1  0.97260366  0.33266473  0.88636826  1
  Si  Si163  1  0.19107837  0.91037526  0.61033319  1
  Si  Si164  1  0.47985277  0.41083729  0.38575026  1
  Si  Si165  1  0.14251553  0.40417401  0.88869484  1
  Si  Si166  1  0.36298980  0.66663454  0.61378110  1
  Si  Si167  1  0.64025441  0.83233275  0.88436504  1
  Si  Si168  1  0.48230213  0.92034435  0.38960807  1
  Si  Si169  1  0.19015113  0.09141090  0.11400179  1
  Si  Si170  1  0.13792796  0.08080558  0.38588484  1
  Si  Si171  1  0.53063815  0.41299878  0.61536732  1
  Si  Si172  1  0.80453734  0.91319977  0.88583266  1
  Si  Si173  1  0.02209230  0.16688748  0.61366071  1
  Si  Si174  1  0.02127444  0.16762878  0.11589419  1
  Si  Si175  1  0.18667462  0.41296101  0.11662897  1
  Si  Si176  1  0.52615335  0.91993238  0.11621472  1
  Si  Si177  1  0.36300264  0.83525066  0.11148471  1
  Si  Si178  1  0.63593447  0.66686369  0.88444809  1
  Si  Si179  1  0.69110116  0.32528177  0.11667345  1
  Si  Si180  1  0.02260511  0.33241076  0.61326220  1
  Si  Si181  1  0.85302104  0.41176415  0.11208412  1
  Si  Si182  1  0.81234718  0.42297698  0.88695663  1
  Si  Si183  1  0.36281550  0.33584238  0.61162086  1
  Si  Si184  1  0.97382873  0.83847990  0.88761571  1
  Si  Si185  1  0.02321869  0.83034153  0.11119792  1
  Si  Si186  1  0.29988210  0.16774472  0.38884832  1
  Si  Si187  1  0.80741268  0.90894095  0.38547363  1
  Si  Si188  1  0.01993858  0.33096454  0.11650357  1
  Si  Si189  1  0.52782946  0.41371014  0.11458008  1
  Si  Si190  1  0.19190723  0.57628856  0.11376613  1
  Si  Si191  1  0.85813209  0.92001665  0.61473482  1
  O  O192  1  0.26854211  0.13300489  0.08559731  1
  O  O193  1  0.28414080  0.12314637  0.57513730  1
  O  O194  1  0.27335024  0.59537528  0.08199646  1
  O  O195  1  0.27326876  0.62971999  0.58044035  1
  O  O196  1  0.60349480  0.11719542  0.08643407  1
  O  O197  1  0.60931954  0.11313400  0.58481086  1
  O  O198  1  0.61508559  0.61622711  0.08413708  1
  O  O199  1  0.59257780  0.61574947  0.57041385  1
  O  O200  1  0.93711639  0.11782710  0.08709252  1
  O  O201  1  0.93398620  0.12201634  0.58585649  1
  O  O202  1  0.95644140  0.61051079  0.07814229  1
  O  O203  1  0.95747338  0.61545375  0.57269726  1
  O  O204  1  0.10354362  0.36178494  0.08874956  1
  O  O205  1  0.09556087  0.36492311  0.57679881  1
  O  O206  1  0.09435901  0.86603586  0.07571513  1
  O  O207  1  0.10293111  0.86408502  0.58409892  1
  O  O208  1  0.43517062  0.37702625  0.08612916  1
  O  O209  1  0.44603221  0.36637235  0.58268734  1
  O  O210  1  0.45026312  0.86587852  0.08573000  1
  O  O211  1  0.43684932  0.87585107  0.58893216  1
  O  O212  1  0.77190111  0.35675327  0.08725150  1
  O  O213  1  0.77270799  0.35833674  0.58409219  1
  O  O214  1  0.76989065  0.86981686  0.08500525  1
  O  O215  1  0.76949901  0.87937800  0.58415271  1
  O  O216  1  0.26715331  0.37765782  0.08582697  1
  O  O217  1  0.28195586  0.38100402  0.57542907  1
  O  O218  1  0.28951817  0.89120347  0.07878299  1
  O  O219  1  0.26812906  0.86796711  0.58138488  1
  O  O220  1  0.60180451  0.36654042  0.08741430  1
  O  O221  1  0.60901173  0.37694648  0.58286192  1
  O  O222  1  0.61042166  0.89249954  0.08611080  1
  O  O223  1  0.60359651  0.89257881  0.58326106  1
  O  O224  1  0.93541682  0.37730483  0.08402970  1
  O  O225  1  0.93417776  0.37477515  0.58422379  1
  O  O226  1  0.93241947  0.87358457  0.08434375  1
  O  O227  1  0.93690768  0.88316326  0.58465270  1
  O  O228  1  0.10392753  0.14023115  0.08621055  1
  O  O229  1  0.09481946  0.13410967  0.57733049  1
  O  O230  1  0.11745142  0.63570007  0.08738189  1
  O  O231  1  0.11649256  0.65237874  0.58246554  1
  O  O232  1  0.43732778  0.13176567  0.08663851  1
  O  O233  1  0.44946179  0.13881952  0.58657063  1
  O  O234  1  0.45107024  0.62116651  0.07518429  1
  O  O235  1  0.43374179  0.62029965  0.58319492  1
  O  O236  1  0.76915851  0.12225779  0.08600797  1
  O  O237  1  0.77187185  0.12935521  0.59032186  1
  O  O238  1  0.77250840  0.65274450  0.07712185  1
  O  O239  1  0.77323180  0.63733580  0.56356093  1
  O  O240  1  0.05741807  0.10069710  0.41931668  1
  O  O241  1  0.06708865  0.13362935  0.91996120  1
  O  O242  1  0.04772872  0.61151072  0.41081534  1
  O  O243  1  0.04708170  0.59899584  0.92864445  1
  O  O244  1  0.37279436  0.11483171  0.42429607  1
  O  O245  1  0.39624218  0.11877061  0.91640211  1
  O  O246  1  0.40158684  0.59649566  0.42152977  1
  O  O247  1  0.40029311  0.60922743  0.92451186  1
  O  O248  1  0.71732312  0.09173968  0.41972497  1
  O  O249  1  0.73099497  0.11163907  0.91856462  1
  O  O250  1  0.72630624  0.61759571  0.41077913  1
  O  O251  1  0.71712857  0.61615929  0.91404804  1
  O  O252  1  0.22977213  0.37426796  0.41318064  1
  O  O253  1  0.22399281  0.34904150  0.91437886  1
  O  O254  1  0.21166142  0.86245273  0.42074789  1
  O  O255  1  0.23591307  0.86727918  0.92220209  1
  O  O256  1  0.56276059  0.36073853  0.41386288  1
  O  O257  1  0.54734415  0.36626921  0.92684407  1
  O  O258  1  0.56130574  0.86131238  0.41373055  1
  O  O259  1  0.56103455  0.87252917  0.91140645  1
  O  O260  1  0.89391076  0.37805211  0.41463345  1
  O  O261  1  0.90269714  0.37976089  0.91747890  1
  O  O262  1  0.88928089  0.85666714  0.41185526  1
  O  O263  1  0.88444505  0.86166755  0.91421529  1
  O  O264  1  0.06142596  0.38442193  0.41440225  1
  O  O265  1  0.06553872  0.36351882  0.92036810  1
  O  O266  1  0.04931509  0.89025930  0.41175613  1
  O  O267  1  0.04095525  0.90099769  0.91605080  1
  O  O268  1  0.39818184  0.37795308  0.41519371  1
  O  O269  1  0.38357208  0.38939878  0.91710058  1
  O  O270  1  0.40340345  0.89870234  0.42541916  1
  O  O271  1  0.39680330  0.88963243  0.91719443  1
  O  O272  1  0.72401303  0.40059994  0.41081056  1
  O  O273  1  0.74210338  0.38662602  0.92478903  1
  O  O274  1  0.72763432  0.87421791  0.41494071  1
  O  O275  1  0.72452227  0.88033762  0.91746710  1
  O  O276  1  0.21184782  0.14047861  0.41232971  1
  O  O277  1  0.23003212  0.14668439  0.91418821  1
  O  O278  1  0.21171718  0.63243443  0.42155366  1
  O  O279  1  0.22109123  0.63714732  0.93075973  1
  O  O280  1  0.54680717  0.16137042  0.42874971  1
  O  O281  1  0.56389771  0.12552855  0.91767409  1
  O  O282  1  0.56390005  0.62554929  0.41295440  1
  O  O283  1  0.55835541  0.63072211  0.91519896  1
  O  O284  1  0.87849540  0.12585535  0.42696504  1
  O  O285  1  0.89915987  0.12093454  0.91449100  1
  O  O286  1  0.88707792  0.64335084  0.40871523  1
  O  O287  1  0.87436488  0.64365728  0.92143756  1
  O  O288  1  0.17319188  0.01509308  0.07798458  1
  O  O289  1  0.17752024  -0.01255457  0.57336313  1
  O  O290  1  0.16189748  0.49366076  0.08714663  1
  O  O291  1  0.17144281  0.51666823  0.57299223  1
  O  O292  1  0.50620451  0.00190878  0.08441556  1
  O  O293  1  0.50374168  0.00470229  0.58420736  1
  O  O294  1  0.53098014  0.49458903  0.08467609  1
  O  O295  1  0.51430880  0.49514893  0.58568881  1
  O  O296  1  0.84761117  -0.00281459  0.08551270  1
  O  O297  1  0.84729109  0.00203582  0.58396513  1
  O  O298  1  0.82757462  0.48783996  0.07707906  1
  O  O299  1  0.83549703  0.48693031  0.57355760  1
  O  O300  1  0.00128190  0.24904530  0.08589916  1
  O  O301  1  0.00266416  0.24920201  0.58683221  1
  O  O302  1  0.00764637  0.74637359  0.08624344  1
  O  O303  1  0.00020649  0.75343516  0.58226532  1
  O  O304  1  0.35206115  0.25411698  0.08509851  1
  O  O305  1  0.35215500  0.25204924  0.58380098  1
  O  O306  1  0.34331318  0.75685721  0.07692094  1
  O  O307  1  0.36220431  0.75001626  0.58555224  1
  O  O308  1  0.67830574  0.24252144  0.08848191  1
  O  O309  1  0.67412189  0.24536049  0.58423941  1
  O  O310  1  0.66331421  0.75615864  0.08555201  1
  O  O311  1  0.67047235  0.76580726  0.57385140  1
  O  O312  1  0.16483829  -0.00164301  0.41151841  1
  O  O313  1  0.16553942  0.01819167  0.92478555  1
  O  O314  1  0.15248750  0.50003840  0.41388331  1
  O  O315  1  0.16517886  0.47972422  0.92517777  1
  O  O316  1  0.51920927  -0.00260558  0.41974812  1
  O  O317  1  0.49266790  0.00188866  0.91709107  1
  O  O318  1  0.50619431  0.49169892  0.41330465  1
  O  O319  1  0.49399736  0.49829958  0.91051173  1
  O  O320  1  0.83002065  -0.01075972  0.41513999  1
  O  O321  1  0.82276732  -0.00537665  0.91839487  1
  O  O322  1  0.83168060  0.50767361  0.41013145  1
  O  O323  1  0.82513665  0.50618167  0.91585728  1
  O  O324  1  0.31588824  0.25223447  0.41607648  1
  O  O325  1  0.34141659  0.25116166  0.91416313  1
  O  O326  1  0.34533339  0.74776551  0.43415300  1
  O  O327  1  0.34202842  0.75899314  0.91921942  1
  O  O328  1  0.68896308  0.26371673  0.42020491  1
  O  O329  1  0.66321557  0.23833631  0.92878237  1
  O  O330  1  0.65568199  0.74572321  0.41173004  1
  O  O331  1  0.65012575  0.74999930  0.91544496  1
  O  O332  1  0.98781704  0.26035230  0.42523431  1
  O  O333  1  0.96848375  0.24948488  0.91608228  1
  O  O334  1  0.99823578  0.75048787  0.41096931  1
  O  O335  1  1.00345486  0.76243336  0.92191165  1
  O  O336  1  0.20892438  0.08813272  0.19483789  1
  O  O337  1  0.21147542  0.08438224  0.70066145  1
  O  O338  1  0.20834382  0.57731011  0.19491000  1
  O  O339  1  0.21060579  0.58915325  0.68910231  1
  O  O340  1  0.54262240  0.08338234  0.19551886  1
  O  O341  1  0.54595528  0.08566199  0.69621433  1
  O  O342  1  0.54647218  0.57980764  0.19198119  1
  O  O343  1  0.54819959  0.58801389  0.69062553  1
  O  O344  1  0.87398654  0.07982986  0.19575159  1
  O  O345  1  0.88077276  0.07769393  0.69606474  1
  O  O346  1  0.87805833  0.58293342  0.19826983  1
  O  O347  1  0.87723264  0.58286840  0.69781063  1
  O  O348  1  0.03451703  0.33071806  0.19600918  1
  O  O349  1  0.04323941  0.33370896  0.69406677  1
  O  O350  1  0.04138513  0.83355299  0.19238448  1
  O  O351  1  0.03938273  0.83479699  0.69394265  1
  O  O352  1  0.37646097  0.33469956  0.19488926  1
  O  O353  1  0.37744532  0.33457252  0.69240582  1
  O  O354  1  0.37663914  0.83354175  0.19203737  1
  O  O355  1  0.36655993  0.83259594  0.69417677  1
  O  O356  1  0.70956843  0.33010003  0.19708722  1
  O  O357  1  0.71238925  0.32689560  0.69407288  1
  O  O358  1  0.70922798  0.83541495  0.19432322  1
  O  O359  1  0.70834360  0.83826088  0.69186717  1
  O  O360  1  0.21042991  0.41515059  0.19608131  1
  O  O361  1  0.21141677  0.41589948  0.70057317  1
  O  O362  1  0.21010377  0.91874329  0.20137350  1
  O  O363  1  0.20967759  0.91609348  0.69088293  1
  O  O364  1  0.54474869  0.41424437  0.19529216  1
  O  O365  1  0.54709880  0.40837136  0.69361479  1
  O  O366  1  0.54567243  0.92282055  0.19567254  1
  O  O367  1  0.54860625  0.92470857  0.69409621  1
  O  O368  1  0.87425120  0.41369459  0.19326678  1
  O  O369  1  0.87388380  0.41576047  0.69306937  1
  O  O370  1  0.87482697  0.91563252  0.19474570  1
  O  O371  1  0.87661462  0.91842663  0.69513702  1
  O  O372  1  0.04056115  0.16594011  0.19586083  1
  O  O373  1  0.04251756  0.16597814  0.69452628  1
  O  O374  1  0.04476331  0.66440434  0.19356325  1
  O  O375  1  0.04264038  0.67039275  0.68973681  1
  O  O376  1  0.37608978  0.17066825  0.19557013  1
  O  O377  1  0.37734485  0.16709862  0.69284311  1
  O  O378  1  0.38069189  0.66306485  0.20029754  1
  O  O379  1  0.37813753  0.66652648  0.69337253  1
  O  O380  1  0.71200147  0.16182803  0.19698724  1
  O  O381  1  0.69972023  0.16607452  0.69626825  1
  O  O382  1  0.71050462  0.66909604  0.19169894  1
  O  O383  1  0.71307947  0.66794279  0.69895341  1
  O  O384  1  0.12135564  0.08229450  0.30440715  1
  O  O385  1  0.12419646  0.08899608  0.80853809  1
  O  O386  1  0.12052573  0.58240102  0.30466466  1
  O  O387  1  0.11898980  0.58423706  0.79859877  1
  O  O388  1  0.45383959  0.08583073  0.30063161  1
  O  O389  1  0.45520842  0.08736526  0.80601206  1
  O  O390  1  0.46153057  0.57790609  0.30588134  1
  O  O391  1  0.45177750  0.58916555  0.80580163  1
  O  O392  1  0.79033598  0.07889303  0.30974631  1
  O  O393  1  0.78829186  0.07605873  0.80816307  1
  O  O394  1  0.78846219  0.58562194  0.30097461  1
  O  O395  1  0.79020796  0.58633944  0.80637958  1
  O  O396  1  0.29485752  0.33354809  0.30617728  1
  O  O397  1  0.29132411  0.33072556  0.80481210  1
  O  O398  1  0.29224081  0.83069222  0.30063779  1
  O  O399  1  0.29202307  0.83749685  0.80742613  1
  O  O400  1  0.62711642  0.33553434  0.30602642  1
  O  O401  1  0.61960266  0.33004080  0.80306856  1
  O  O402  1  0.62833307  0.83086122  0.30398341  1
  O  O403  1  0.63373499  0.83217014  0.80567724  1
  O  O404  1  0.95513265  0.33431394  0.30776019  1
  O  O405  1  0.95665618  0.33299430  0.80640552  1
  O  O406  1  0.95570034  0.83241600  0.30237263  1
  O  O407  1  0.95489303  0.83658135  0.80580017  1
  O  O408  1  0.12148478  0.41757955  0.30448634  1
  O  O409  1  0.11803048  0.40656315  0.80919452  1
  O  O410  1  0.11984303  0.91509959  0.30518773  1
  O  O411  1  0.12318993  0.91993045  0.79700460  1
  O  O412  1  0.45881894  0.41331026  0.30497290  1
  O  O413  1  0.45029016  0.40597330  0.80825902  1
  O  O414  1  0.45743585  0.91968637  0.30874665  1
  O  O415  1  0.45189025  0.92457135  0.80540892  1
  O  O416  1  0.79187762  0.41923341  0.30301784  1
  O  O417  1  0.79705944  0.41945971  0.80729816  1
  O  O418  1  0.78919377  0.91235115  0.30470267  1
  O  O419  1  0.78885529  0.91664347  0.80551857  1
  O  O420  1  0.28787452  0.16825257  0.30751016  1
  O  O421  1  0.29479823  0.16859335  0.80460234  1
  O  O422  1  0.28814270  0.66436907  0.29980757  1
  O  O423  1  0.28512316  0.66688820  0.79719778  1
  O  O424  1  0.62218369  0.16766298  0.30087561  1
  O  O425  1  0.62646137  0.16455977  0.81021321  1
  O  O426  1  0.62390705  0.66409327  0.30207599  1
  O  O427  1  0.62088270  0.66888166  0.80471159  1
  O  O428  1  0.95272912  0.16540993  0.30038389  1
  O  O429  1  0.96566506  0.16771226  0.80761056  1
  O  O430  1  0.95644435  0.66935537  0.30156506  1
  O  O431  1  0.95541729  0.66924875  0.79754691  1
  F  F432  1  0.04270157  0.00084139  0.20184498  1
  F  F433  1  0.04375583  0.00378761  0.70122693  1
  F  F434  1  0.04439602  0.49715907  0.20162934  1
  F  F435  1  0.03796794  0.49776637  0.69788094  1
  F  F436  1  0.37713515  0.00085064  0.20230395  1
  F  F437  1  0.37153947  0.00123604  0.69773993  1
  F  F438  1  0.38001908  0.49598147  0.20329316  1
  F  F439  1  0.36746544  0.50049668  0.69727258  1
  F  F440  1  0.71216791  -0.00009486  0.20447905  1
  F  F441  1  0.71367845  0.00100480  0.70201678  1
  F  F442  1  0.71174336  0.49823246  0.19976166  1
  F  F443  1  0.71462897  0.50374018  0.69828400  1
  F  F444  1  0.21250794  0.24712827  0.20174988  1
  F  F445  1  0.21254586  0.25006331  0.70093397  1
  F  F446  1  0.20952464  0.74883307  0.19914955  1
  F  F447  1  0.21011079  0.75458157  0.70155589  1
  F  F448  1  0.54500423  0.25204105  0.20127863  1
  F  F449  1  0.54447623  0.24619117  0.70288200  1
  F  F450  1  0.54866111  0.74368006  0.19789511  1
  F  F451  1  0.54858110  0.74269686  0.69619263  1
  F  F452  1  0.87532241  0.24935850  0.20238559  1
  F  F453  1  0.88263667  0.25945802  0.70041105  1
  F  F454  1  0.87807878  0.75206752  0.19876888  1
  F  F455  1  0.87729451  0.75612290  0.69860988  1
  F  F456  1  0.28725176  0.00339047  0.29885937  1
  F  F457  1  0.28836114  0.00056362  0.79844139  1
  F  F458  1  0.28883407  0.49778170  0.29860645  1
  F  F459  1  0.29364568  0.50151996  0.80181075  1
  F  F460  1  0.62246240  -0.00164332  0.29954119  1
  F  F461  1  0.62924094  -0.00003034  0.80371572  1
  F  F462  1  0.62367878  0.50009193  0.29529719  1
  F  F463  1  0.63622157  0.50570209  0.80524844  1
  F  F464  1  0.95340545  -0.00339258  0.29720538  1
  F  F465  1  0.95563353  0.00129645  0.79940050  1
  F  F466  1  0.95445805  0.49768796  0.29695937  1
  F  F467  1  0.95420677  0.49763205  0.79761259  1
  F  F468  1  0.11827659  0.24730657  0.30000850  1
  F  F469  1  0.12194492  0.24940603  0.79537342  1
  F  F470  1  0.11950516  0.74948073  0.29477674  1
  F  F471  1  0.12004451  0.75253658  0.79568479  1
  F  F472  1  0.45334813  0.25248532  0.29715298  1
  F  F473  1  0.45378309  0.24752985  0.79653712  1
  F  F474  1  0.45868887  0.74662083  0.29951714  1
  F  F475  1  0.45190417  0.74250083  0.80004717  1
  F  F476  1  0.78884169  0.24981591  0.29870107  1
  F  F477  1  0.78505124  0.26023281  0.80615152  1
  F  F478  1  0.78775139  0.74888651  0.29450147  1
  F  F479  1  0.78849439  0.75347917  0.79617082  1
