# generated using pymatgen
data_K24Na3Li5Mg64Fe17Si79(O5F)48
_symmetry_space_group_name_H-M   'P 1'
_cell_length_a   16.10714512
_cell_length_b   18.60724004
_cell_length_c   20.58104914
_cell_angle_alpha   89.98209939
_cell_angle_beta   100.03486786
_cell_angle_gamma   90.02078075
_symmetry_Int_Tables_number   1
_chemical_formula_structural   K24Na3Li5Mg64Fe17Si79(O5F)48
_chemical_formula_sum   'K24 Na3 Li5 Mg64 Fe17 Si79 O240 F48'
_cell_volume   6073.97182005
_cell_formula_units_Z   1
loop_
 _symmetry_equiv_pos_site_id
 _symmetry_equiv_pos_as_xyz
  1  'x, y, z'
loop_
 _atom_site_type_symbol
 _atom_site_label
 _atom_site_symmetry_multiplicity
 _atom_site_fract_x
 _atom_site_fract_y
 _atom_site_fract_z
 _atom_site_occupancy
  K  K0  1  0.00455817  -0.01534600  -0.00487930  1
  K  K1  1  -0.00260147  -0.00778210  0.50361968  1
  K  K2  1  0.00668040  0.50951834  -0.00101254  1
  K  K3  1  -0.00085035  0.51090575  0.50091260  1
  K  K4  1  0.32744659  -0.00497754  0.00326763  1
  K  K5  1  0.33092103  -0.01554267  0.49718218  1
  K  K6  1  0.33058297  0.49879613  -0.00472447  1
  K  K7  1  0.32948673  0.49824374  0.50048290  1
  K  K8  1  0.67033819  -0.00077813  -0.00137372  1
  K  K9  1  0.66163270  -0.00828363  0.49960114  1
  K  K10  1  0.65842613  0.50760919  -0.00338209  1
  K  K11  1  0.67370648  0.50478088  0.50322044  1
  K  K12  1  0.17516939  0.25817385  -0.00168875  1
  K  K13  1  0.17744452  0.25592824  0.50522880  1
  K  K14  1  0.16411557  0.74729769  0.00312081  1
  K  K15  1  0.17789781  0.73406927  0.49540651  1
  K  K16  1  0.48433908  0.25760633  -0.00463390  1
  K  K17  1  0.49406317  0.26508337  0.50051296  1
  K  K18  1  0.51110316  0.74402276  0.00026969  1
  K  K19  1  0.48518838  0.74629565  0.50199010  1
  K  K20  1  0.83587548  0.25607766  -0.00134721  1
  K  K21  1  0.83527876  0.26447195  0.50706997  1
  K  K22  1  0.82863405  0.75046449  -0.00218520  1
  K  K23  1  0.84284212  0.74210514  0.49415297  1
  Na  Na24  1  0.50416630  0.50260745  0.75023437  1
  Na  Na25  1  0.16820429  0.33051326  0.75176641  1
  Na  Na26  1  0.16453561  0.66751401  0.24944370  1
  Li  Li27  1  0.49993095  0.49978919  0.25142140  1
  Li  Li28  1  0.32766726  0.25318244  0.74712417  1
  Li  Li29  1  -0.00169556  0.91526804  0.75257025  1
  Li  Li30  1  0.00254424  0.41920248  0.25196436  1
  Li  Li31  1  0.66251842  0.58326353  0.75097359  1
  Mg  Mg32  1  0.16736214  0.50124920  0.75063546  1
  Mg  Mg33  1  0.83490078  0.49818559  0.25108908  1
  Mg  Mg34  1  0.00001347  0.75007738  0.25225983  1
  Mg  Mg35  1  0.33169729  0.74717999  0.24752277  1
  Mg  Mg36  1  0.83393931  -0.00151663  0.25099578  1
  Mg  Mg37  1  0.16364192  0.49817627  0.24865204  1
  Mg  Mg38  1  0.33421540  0.25283496  0.25053947  1
  Mg  Mg39  1  0.49946030  -0.00001656  0.74972924  1
  Mg  Mg40  1  0.00175046  0.25204985  0.25033504  1
  Mg  Mg41  1  0.83106898  0.50182354  0.74421296  1
  Mg  Mg42  1  0.66513032  0.25345394  0.74894808  1
  Mg  Mg43  1  0.16845863  -0.00215896  0.25038192  1
  Mg  Mg44  1  0.66426494  0.74930170  0.75163710  1
  Mg  Mg45  1  0.33569774  0.74947935  0.74741195  1
  Mg  Mg46  1  -0.00094563  0.75330226  0.75184603  1
  Mg  Mg47  1  0.66610892  0.25029710  0.24988529  1
  Mg  Mg48  1  0.83468088  -0.00081683  0.75512357  1
  Mg  Mg49  1  0.16279902  -0.00073521  0.74899396  1
  Mg  Mg50  1  0.49967145  -0.00304173  0.24656428  1
  Mg  Mg51  1  0.00056389  0.25119412  0.74966281  1
  Mg  Mg52  1  0.66884663  0.74871428  0.24845175  1
  Mg  Mg53  1  0.16843357  0.83301786  0.24846294  1
  Mg  Mg54  1  0.16963777  0.16743016  0.75356609  1
  Mg  Mg55  1  0.33455292  0.57944947  0.24939338  1
  Mg  Mg56  1  0.83329730  0.83263898  0.24996264  1
  Mg  Mg57  1  0.50073604  0.66242290  0.25006767  1
  Mg  Mg58  1  0.33290125  0.41661456  0.75061439  1
  Mg  Mg59  1  0.49744682  0.16904073  0.75160929  1
  Mg  Mg60  1  0.16912695  0.16636781  0.25011699  1
  Mg  Mg61  1  0.33204422  0.91133402  0.24699059  1
  Mg  Mg62  1  0.83645212  0.33361190  0.25220051  1
  Mg  Mg63  1  0.49634581  0.33552452  0.75328738  1
  Mg  Mg64  1  0.66653208  0.41999791  0.74757428  1
  Mg  Mg65  1  0.66524683  0.91364275  0.24732011  1
  Mg  Mg66  1  0.83341226  0.16706615  0.75197503  1
  Mg  Mg67  1  0.16806395  0.66638953  0.74954177  1
  Mg  Mg68  1  0.49957583  0.83392659  0.74913128  1
  Mg  Mg69  1  0.33235609  0.91609506  0.74759090  1
  Mg  Mg70  1  0.49761453  0.16607587  0.24684162  1
  Mg  Mg71  1  0.66446602  0.08304251  0.24802364  1
  Mg  Mg72  1  0.66635756  0.41664879  0.25193097  1
  Mg  Mg73  1  0.33250291  0.08306939  0.24784086  1
  Mg  Mg74  1  0.16408426  0.83587238  0.74850998  1
  Mg  Mg75  1  -0.00026601  0.57997156  0.25023897  1
  Mg  Mg76  1  0.00128223  0.58656530  0.74853280  1
  Mg  Mg77  1  0.00022773  0.41845365  0.74821931  1
  Mg  Mg78  1  0.49974555  0.83249092  0.24467616  1
  Mg  Mg79  1  0.83033046  0.66719468  0.75006233  1
  Mg  Mg80  1  0.00167988  0.91405260  0.25051660  1
  Mg  Mg81  1  0.33317600  0.58418042  0.74874167  1
  Mg  Mg82  1  -0.00011477  0.08220915  0.75192988  1
  Mg  Mg83  1  0.49881491  0.33711965  0.25040007  1
  Mg  Mg84  1  0.50041553  0.66438476  0.74697805  1
  Mg  Mg85  1  0.00166362  0.08425288  0.25053663  1
  Mg  Mg86  1  0.83366272  0.83682418  0.75465867  1
  Mg  Mg87  1  0.66785923  0.91569588  0.75283919  1
  Mg  Mg88  1  0.66715952  0.58122938  0.25154554  1
  Mg  Mg89  1  0.16748667  0.33547774  0.25104862  1
  Mg  Mg90  1  0.33221596  0.08626694  0.75132979  1
  Mg  Mg91  1  0.83521980  0.66249243  0.25063752  1
  Mg  Mg92  1  0.83381582  0.33646793  0.74556317  1
  Mg  Mg93  1  0.66701252  0.08563881  0.75290120  1
  Mg  Mg94  1  0.83389308  0.16571599  0.25070301  1
  Mg  Mg95  1  0.33581250  0.41542010  0.25092455  1
  Fe  Fe96  1  0.19463855  0.91265048  0.10882287  1
  Fe  Fe97  1  0.30508910  0.82797584  0.38917895  1
  Fe  Fe98  1  0.97356835  0.83623603  0.39010848  1
  Fe  Fe99  1  0.35715576  0.33833896  0.11026938  1
  Fe  Fe100  1  0.70183920  0.83394105  0.10902286  1
  Fe  Fe101  1  0.36162630  0.65858786  0.60581839  1
  Fe  Fe102  1  0.31026883  0.32773646  0.88936350  1
  Fe  Fe103  1  0.52600020  0.91691677  0.10611448  1
  Fe  Fe104  1  0.85998596  0.42247881  0.60696660  1
  Fe  Fe105  1  0.80901363  0.92387932  0.89487811  1
  Fe  Fe106  1  0.14549732  0.58674718  0.89055755  1
  Fe  Fe107  1  0.35592529  0.83507764  0.60825133  1
  Fe  Fe108  1  0.01580281  0.66854693  0.11031783  1
  Fe  Fe109  1  0.31324766  0.33529415  0.39171120  1
  Fe  Fe110  1  0.80859527  0.58045892  0.39051295  1
  Fe  Fe111  1  0.63743692  0.82992786  0.89085572  1
  Fe  Fe112  1  0.18680116  0.57571523  0.60841798  1
  Si  Si113  1  0.85667594  0.08197216  0.61664936  1
  Si  Si114  1  0.69383878  0.67323315  0.61503189  1
  Si  Si115  1  0.80706962  0.08454829  0.38576794  1
  Si  Si116  1  0.02334440  0.83589927  0.11218985  1
  Si  Si117  1  0.63901779  0.17256845  0.88604449  1
  Si  Si118  1  0.14102439  0.57527724  0.38428813  1
  Si  Si119  1  0.31186893  0.65653608  0.38493112  1
  Si  Si120  1  0.47267394  0.58757950  0.88568146  1
  Si  Si121  1  0.63832460  0.66902507  0.38758427  1
  Si  Si122  1  0.85787732  0.59424224  0.61197423  1
  Si  Si123  1  0.31407409  0.16404719  0.38660853  1
  Si  Si124  1  0.13850063  0.91383305  0.88386910  1
  Si  Si125  1  0.18968537  0.40980140  0.61414277  1
  Si  Si126  1  0.18953996  0.08354463  0.11264799  1
  Si  Si127  1  0.80973585  0.40883274  0.38798820  1
  Si  Si128  1  0.52436793  0.08611660  0.61540945  1
  Si  Si129  1  0.13844223  0.41204704  0.38821122  1
  Si  Si130  1  0.85878568  0.08687178  0.11520832  1
  Si  Si131  1  0.97406207  0.32746144  0.38570167  1
  Si  Si132  1  0.85675349  0.91765191  0.61737134  1
  Si  Si133  1  0.35839088  0.65839617  0.11405956  1
  Si  Si134  1  0.80815345  0.41414150  0.88302298  1
  Si  Si135  1  0.18695547  0.92408753  0.61194320  1
  Si  Si136  1  0.02432541  0.32968216  0.61294698  1
  Si  Si137  1  0.69006515  0.33131259  0.61079462  1
  Si  Si138  1  0.63706576  0.83359020  0.38424887  1
  Si  Si139  1  0.47378276  0.41972485  0.88901700  1
  Si  Si140  1  0.30670882  0.84068448  0.88371843  1
  Si  Si141  1  0.69032990  0.66175712  0.11252818  1
  Si  Si142  1  0.52674344  0.58013457  0.11670364  1
  Si  Si143  1  0.36364558  0.82371578  0.10784012  1
  Si  Si144  1  0.64123809  0.33076258  0.38580959  1
  Si  Si145  1  0.96859432  0.66472833  0.88622458  1
  Si  Si146  1  0.97391833  0.83025657  0.88826363  1
  Si  Si147  1  0.53298750  0.41436721  0.11448971  1
  Si  Si148  1  0.36120445  0.33536398  0.61586454  1
  Si  Si149  1  0.69160706  0.16612900  0.61564772  1
  Si  Si150  1  0.63960534  0.16601499  0.38426231  1
  Si  Si151  1  0.86794064  0.92246194  0.11441810  1
  Si  Si152  1  0.02561628  0.33347444  0.11608752  1
  Si  Si153  1  0.53659993  0.58273054  0.61137485  1
  Si  Si154  1  0.47718487  0.58303245  0.38400573  1
  Si  Si155  1  0.02586530  0.16928663  0.11494531  1
  Si  Si156  1  0.98128045  0.66524264  0.39072771  1
  Si  Si157  1  0.52792509  0.41408146  0.61463286  1
  Si  Si158  1  0.69538121  0.33166013  0.11596289  1
  Si  Si159  1  0.13859087  0.92187755  0.38870213  1
  Si  Si160  1  0.69299970  0.83594022  0.61499991  1
  Si  Si161  1  0.64273214  0.66115709  0.88539125  1
  Si  Si162  1  0.13843675  0.07952092  0.88662910  1
  Si  Si163  1  0.97698998  0.16350528  0.38631185  1
  Si  Si164  1  0.02150308  0.16564628  0.61614340  1
  Si  Si165  1  0.69033538  0.16679124  0.11472573  1
  Si  Si166  1  0.97800669  0.17202069  0.88529910  1
  Si  Si167  1  0.14588846  0.08562550  0.38522318  1
  Si  Si168  1  0.47798297  0.08114712  0.88590623  1
  Si  Si169  1  0.81060303  0.09489041  0.89028672  1
  Si  Si170  1  0.35446930  0.16846747  0.11358428  1
  Si  Si171  1  0.35908714  0.16839403  0.61695172  1
  Si  Si172  1  0.47323253  0.91570075  0.38444807  1
  Si  Si173  1  0.80517292  0.57864425  0.88038299  1
  Si  Si174  1  0.18958231  0.08914500  0.61636118  1
  Si  Si175  1  0.97455379  0.33596492  0.88454933  1
  Si  Si176  1  0.19133659  0.58270731  0.11458492  1
  Si  Si177  1  0.80125139  0.91847947  0.38834099  1
  Si  Si178  1  0.02327725  0.83930559  0.61672699  1
  Si  Si179  1  0.47110153  0.91774630  0.88548242  1
  Si  Si180  1  0.47657812  0.07952591  0.38238230  1
  Si  Si181  1  0.48250307  0.42078866  0.38859678  1
  Si  Si182  1  0.52035832  0.08751759  0.11123567  1
  Si  Si183  1  0.02493035  0.67528744  0.61258803  1
  Si  Si184  1  0.85836111  0.41144936  0.11702127  1
  Si  Si185  1  0.30858797  0.15619827  0.89038240  1
  Si  Si186  1  0.31330202  0.67645320  0.88896760  1
  Si  Si187  1  0.52924444  0.92083083  0.61242257  1
  Si  Si188  1  0.64005800  0.33849632  0.88508548  1
  Si  Si189  1  0.85425533  0.57490573  0.11136335  1
  Si  Si190  1  0.13818626  0.41804484  0.88776373  1
  Si  Si191  1  0.18584384  0.42050309  0.11176374  1
  O  O192  1  0.27551598  0.11284186  0.08709442  1
  O  O193  1  0.26886213  0.12712077  0.58723487  1
  O  O194  1  0.27858217  0.60561160  0.08570620  1
  O  O195  1  0.27442941  0.60035499  0.56654684  1
  O  O196  1  0.60568959  0.12062574  0.08506400  1
  O  O197  1  0.60342900  0.12378387  0.58627225  1
  O  O198  1  0.60350344  0.61519532  0.08405334  1
  O  O199  1  0.61967887  0.61697556  0.58287581  1
  O  O200  1  0.93849612  0.12380582  0.08646054  1
  O  O201  1  0.93683179  0.11633288  0.58678121  1
  O  O202  1  0.92765394  0.60378275  0.07391959  1
  O  O203  1  0.93674048  0.63198056  0.58396740  1
  O  O204  1  0.10163025  0.36943913  0.08375442  1
  O  O205  1  0.11647297  0.34675007  0.59231907  1
  O  O206  1  0.10365925  0.85293929  0.07631840  1
  O  O207  1  0.09741522  0.88117245  0.58559102  1
  O  O208  1  0.45574164  0.36524499  0.07888648  1
  O  O209  1  0.43625427  0.37581733  0.58350366  1
  O  O210  1  0.44728522  0.84353688  0.07725821  1
  O  O211  1  0.44956951  0.87655089  0.57587779  1
  O  O212  1  0.77918428  0.35702348  0.08645967  1
  O  O213  1  0.76158675  0.36709359  0.57527558  1
  O  O214  1  0.80051326  0.86529759  0.07926658  1
  O  O215  1  0.77354285  0.86987777  0.58472053  1
  O  O216  1  0.26231347  0.39411852  0.07603703  1
  O  O217  1  0.27229160  0.37503538  0.58529074  1
  O  O218  1  0.28707777  0.87638687  0.07451347  1
  O  O219  1  0.26189440  0.89520112  0.57723907  1
  O  O220  1  0.61837869  0.38548922  0.08563674  1
  O  O221  1  0.59776931  0.36758970  0.58134330  1
  O  O222  1  0.62308395  0.90115931  0.07321025  1
  O  O223  1  0.61462445  0.89050107  0.58614729  1
  O  O224  1  0.93860717  0.37797664  0.08703242  1
  O  O225  1  0.95067852  0.38018686  0.57253144  1
  O  O226  1  0.95905321  0.90622941  0.09228730  1
  O  O227  1  0.93719606  0.88588934  0.58772654  1
  O  O228  1  0.10789050  0.13826622  0.08660007  1
  O  O229  1  0.10322780  0.13481758  0.58655418  1
  O  O230  1  0.11845593  0.63907915  0.08384721  1
  O  O231  1  0.09758807  0.64137631  0.57771668  1
  O  O232  1  0.44188896  0.14409668  0.08723210  1
  O  O233  1  0.43611982  0.12874499  0.58564622  1
  O  O234  1  0.43995890  0.62418817  0.08573828  1
  O  O235  1  0.45547266  0.62325640  0.57032055  1
  O  O236  1  0.77290391  0.13432520  0.08662204  1
  O  O237  1  0.77009006  0.12731943  0.58675551  1
  O  O238  1  0.76506021  0.61743786  0.08382423  1
  O  O239  1  0.77840619  0.64917940  0.58585059  1
  O  O240  1  0.06307269  0.11738174  0.41430516  1
  O  O241  1  0.06046159  0.12151576  0.91460177  1
  O  O242  1  0.06667996  0.61537410  0.41578702  1
  O  O243  1  0.04756636  0.61738230  0.92153415  1
  O  O244  1  0.39366946  0.10738988  0.41173839  1
  O  O245  1  0.39575513  0.10778171  0.91651778  1
  O  O246  1  0.39269837  0.60333667  0.41464019  1
  O  O247  1  0.39991891  0.62982929  0.91878064  1
  O  O248  1  0.72935592  0.12521784  0.41424068  1
  O  O249  1  0.73005139  0.13515472  0.91698945  1
  O  O250  1  0.71620149  0.62084378  0.42391123  1
  O  O251  1  0.72196603  0.60442534  0.90991101  1
  O  O252  1  0.21732842  0.36446037  0.42560267  1
  O  O253  1  0.20859785  0.35777106  0.91459993  1
  O  O254  1  0.21361171  0.86865179  0.42168859  1
  O  O255  1  0.22597957  0.87137259  0.91489273  1
  O  O256  1  0.56770154  0.37101834  0.41715765  1
  O  O257  1  0.56895548  0.38255217  0.91656784  1
  O  O258  1  0.55684001  0.86647349  0.41384460  1
  O  O259  1  0.53641807  0.85827705  0.91933757  1
  O  O260  1  0.89099521  0.35550199  0.41433158  1
  O  O261  1  0.89021869  0.36330462  0.91346670  1
  O  O262  1  0.87893467  0.87170684  0.42563718  1
  O  O263  1  0.90702096  0.86975877  0.92619759  1
  O  O264  1  0.05431530  0.37812167  0.41487585  1
  O  O265  1  0.05018926  0.39019074  0.91508296  1
  O  O266  1  0.05356461  0.90790118  0.41907301  1
  O  O267  1  0.06559784  0.87087747  0.91398656  1
  O  O268  1  0.40856580  0.39220993  0.42652944  1
  O  O269  1  0.40733493  0.38177591  0.92861671  1
  O  O270  1  0.39725155  0.89040065  0.42008009  1
  O  O271  1  0.38022030  0.90054575  0.90950766  1
  O  O272  1  0.73167059  0.36743523  0.41582020  1
  O  O273  1  0.73100971  0.37723296  0.91508402  1
  O  O274  1  0.71522770  0.88848796  0.41344236  1
  O  O275  1  0.71803854  0.89425725  0.92999042  1
  O  O276  1  0.22879141  0.13503998  0.41406404  1
  O  O277  1  0.22938416  0.11518069  0.91919008  1
  O  O278  1  0.22986378  0.61834590  0.40970353  1
  O  O279  1  0.23787193  0.64755673  0.92478686  1
  O  O280  1  0.56126063  0.12764458  0.41274941  1
  O  O281  1  0.56176838  0.13155615  0.91449298  1
  O  O282  1  0.55131553  0.64189965  0.41305453  1
  O  O283  1  0.56342360  0.62551506  0.91650918  1
  O  O284  1  0.89670796  0.12626733  0.41469526  1
  O  O285  1  0.89350349  0.14803034  0.91496036  1
  O  O286  1  0.90627958  0.63164181  0.42568028  1
  O  O287  1  0.88386917  0.63165093  0.91177720  1
  O  O288  1  0.16614773  0.00760160  0.07678057  1
  O  O289  1  0.17029231  0.00852739  0.58535515  1
  O  O290  1  0.16073390  0.50218147  0.08443766  1
  O  O291  1  0.15672957  0.48189952  0.57411318  1
  O  O292  1  0.49277949  0.01223209  0.07636686  1
  O  O293  1  0.51877195  0.00511038  0.58432677  1
  O  O294  1  0.51718531  0.49771003  0.08739219  1
  O  O295  1  0.53144341  0.49633088  0.58705919  1
  O  O296  1  0.84287991  0.00570852  0.08655592  1
  O  O297  1  0.84112696  0.00037483  0.58648818  1
  O  O298  1  0.83426601  0.49052067  0.08506312  1
  O  O299  1  0.83825110  0.51714223  0.57624500  1
  O  O300  1  0.00863299  0.25100999  0.08501708  1
  O  O301  1  0.00108729  0.24583155  0.58524709  1
  O  O302  1  -0.02051568  0.76206980  0.08137272  1
  O  O303  1  0.00763789  0.75893073  0.58486347  1
  O  O304  1  0.32678313  0.24475571  0.08035993  1
  O  O305  1  0.35375923  0.25096470  0.58716112  1
  O  O306  1  0.33825176  0.73926719  0.08398810  1
  O  O307  1  0.33480650  0.74833273  0.56798425  1
  O  O308  1  0.67519637  0.24938078  0.08667519  1
  O  O309  1  0.68098765  0.24649209  0.58390590  1
  O  O310  1  0.67761839  0.73935516  0.07772859  1
  O  O311  1  0.67092931  0.75531845  0.58419907  1
  O  O312  1  0.16820341  0.00556566  0.41433810  1
  O  O313  1  0.14071755  -0.00353384  0.91473348  1
  O  O314  1  0.15031661  0.49455765  0.41774885  1
  O  O315  1  0.16539465  0.49364592  0.92544949  1
  O  O316  1  0.50063142  -0.00121616  0.41089103  1
  O  O317  1  0.50051039  -0.00038015  0.91332708  1
  O  O318  1  0.50958306  0.50342612  0.41357242  1
  O  O319  1  0.48223203  0.50461028  0.91477965  1
  O  O320  1  0.81223806  0.00330779  0.41645500  1
  O  O321  1  0.83078800  0.02001175  0.92757605  1
  O  O322  1  0.82509781  0.48532777  0.42370905  1
  O  O323  1  0.82614013  0.49629401  0.91107011  1
  O  O324  1  0.34062649  0.23963427  0.42229107  1
  O  O325  1  0.32392880  0.23290352  0.92601691  1
  O  O326  1  0.32805949  0.73394463  0.42096921  1
  O  O327  1  0.33444627  0.76106027  0.91416940  1
  O  O328  1  0.64702793  0.24749537  0.41455028  1
  O  O329  1  0.64449363  0.25532743  0.91506812  1
  O  O330  1  0.65566536  0.75287944  0.41500340  1
  O  O331  1  0.66714600  0.73636295  0.92307925  1
  O  O332  1  0.99135354  0.24485493  0.41679410  1
  O  O333  1  0.99813271  0.25403593  0.91407393  1
  O  O334  1  1.00427872  0.74453370  0.42263682  1
  O  O335  1  0.98337392  0.74692547  0.91585425  1
  O  O336  1  0.20798182  0.08423414  0.19393623  1
  O  O337  1  0.20825170  0.08420059  0.69628864  1
  O  O338  1  0.21476792  0.57506621  0.19384475  1
  O  O339  1  0.21146719  0.58512688  0.70016533  1
  O  O340  1  0.54275765  0.08524234  0.19260071  1
  O  O341  1  0.54346769  0.08631452  0.69581755  1
  O  O342  1  0.54719909  0.58380096  0.19618598  1
  O  O343  1  0.54860235  0.59091446  0.69002547  1
  O  O344  1  0.87670364  0.08671377  0.19579263  1
  O  O345  1  0.87420954  0.08437424  0.69681299  1
  O  O346  1  0.87457566  0.57803764  0.19201400  1
  O  O347  1  0.87637547  0.58862647  0.69262245  1
  O  O348  1  0.04555961  0.32910894  0.19546627  1
  O  O349  1  0.03022306  0.33153434  0.69238417  1
  O  O350  1  0.04520802  0.83543146  0.19353025  1
  O  O351  1  0.04298938  0.83525666  0.69620934  1
  O  O352  1  0.38079933  0.33304456  0.20142779  1
  O  O353  1  0.38197570  0.33595463  0.69487379  1
  O  O354  1  0.37971943  0.82971102  0.18928057  1
  O  O355  1  0.37802616  0.83587271  0.70039997  1
  O  O356  1  0.71234497  0.33024555  0.19640253  1
  O  O357  1  0.70973347  0.33120844  0.69165641  1
  O  O358  1  0.71373091  0.83322392  0.20173247  1
  O  O359  1  0.71142869  0.83554489  0.69481092  1
  O  O360  1  0.20624730  0.41535676  0.19233015  1
  O  O361  1  0.21210927  0.42198200  0.69296110  1
  O  O362  1  0.21147013  0.91911226  0.20009916  1
  O  O363  1  0.20685358  0.92029678  0.69277167  1
  O  O364  1  0.55042883  0.41013383  0.19441231  1
  O  O365  1  0.54810989  0.40691736  0.69368148  1
  O  O366  1  0.54517650  0.91723984  0.19923214  1
  O  O367  1  0.54419922  0.92174274  0.69309055  1
  O  O368  1  0.87270478  0.41226150  0.19641357  1
  O  O369  1  0.87815675  0.41755455  0.69813691  1
  O  O370  1  0.87706545  0.92222786  0.19521894  1
  O  O371  1  0.87207520  0.91940814  0.69659301  1
  O  O372  1  0.04258470  0.16720150  0.19547597  1
  O  O373  1  0.03950369  0.16454558  0.69609988  1
  O  O374  1  0.02905998  0.66600727  0.20006012  1
  O  O375  1  0.04134622  0.67313559  0.69342970  1
  O  O376  1  0.37481453  0.16660435  0.19488677  1
  O  O377  1  0.37942613  0.16386857  0.69635225  1
  O  O378  1  0.37831649  0.66191158  0.19424799  1
  O  O379  1  0.37787251  0.66665829  0.69809619  1
  O  O380  1  0.70970469  0.16605492  0.19536672  1
  O  O381  1  0.70967742  0.16671652  0.69604633  1
  O  O382  1  0.70872753  0.66402265  0.19339061  1
  O  O383  1  0.71225388  0.67482904  0.69448340  1
  O  O384  1  0.12470528  0.08643865  0.30469339  1
  O  O385  1  0.12189266  0.08167929  0.80644453  1
  O  O386  1  0.11848240  0.57163629  0.30538496  1
  O  O387  1  0.12015236  0.58702903  0.79937302  1
  O  O388  1  0.45868450  0.08280437  0.30202730  1
  O  O389  1  0.45885444  0.08416025  0.80545239  1
  O  O390  1  0.45808338  0.58373801  0.30442357  1
  O  O391  1  0.45198632  0.59110911  0.80680039  1
  O  O392  1  0.78959484  0.08505793  0.30536260  1
  O  O393  1  0.78985088  0.08965272  0.80923717  1
  O  O394  1  0.78864650  0.58075416  0.29898015  1
  O  O395  1  0.79297453  0.58101088  0.80093123  1
  O  O396  1  0.28821067  0.33254511  0.30055719  1
  O  O397  1  0.30099022  0.33183843  0.80218253  1
  O  O398  1  0.29169537  0.83062385  0.29833822  1
  O  O399  1  0.28613141  0.83770480  0.80354549  1
  O  O400  1  0.62417034  0.33055987  0.30548588  1
  O  O401  1  0.62498056  0.33448815  0.80507234  1
  O  O402  1  0.62167748  0.83217060  0.30435851  1
  O  O403  1  0.62046300  0.83479970  0.79845656  1
  O  O404  1  0.95449602  0.32478437  0.30615585  1
  O  O405  1  0.95536372  0.33250786  0.80451750  1
  O  O406  1  0.95219499  0.83564156  0.29836197  1
  O  O407  1  0.95358764  0.83170855  0.80808693  1
  O  O408  1  0.12665531  0.41204740  0.30819698  1
  O  O409  1  0.11536394  0.42519276  0.80771887  1
  O  O410  1  0.12199383  0.92143786  0.30738538  1
  O  O411  1  0.12558638  0.91765175  0.80445425  1
  O  O412  1  0.45989613  0.41382058  0.30910717  1
  O  O413  1  0.45485829  0.41224323  0.80977883  1
  O  O414  1  0.45539067  0.91568721  0.30375367  1
  O  O415  1  0.45661527  0.92035618  0.80457505  1
  O  O416  1  0.79018519  0.41136908  0.30715856  1
  O  O417  1  0.78994373  0.41275543  0.80322815  1
  O  O418  1  0.78882741  0.92016249  0.30776574  1
  O  O419  1  0.78770518  0.92001242  0.80232603  1
  O  O420  1  0.29310856  0.16522745  0.30558052  1
  O  O421  1  0.28742641  0.15677479  0.81057485  1
  O  O422  1  0.30140772  0.66242826  0.30549425  1
  O  O423  1  0.29135254  0.67289401  0.80853881  1
  O  O424  1  0.62368609  0.16539803  0.30395414  1
  O  O425  1  0.62422221  0.16923742  0.80568941  1
  O  O426  1  0.62447410  0.66692168  0.30671988  1
  O  O427  1  0.62087793  0.66841977  0.80581027  1
  O  O428  1  0.95717862  0.16488372  0.30585255  1
  O  O429  1  0.95607772  0.16806355  0.80510148  1
  O  O430  1  0.95615474  0.66465105  0.30978901  1
  O  O431  1  0.95438265  0.66723973  0.80520028  1
  F  F432  1  0.04528347  0.00316658  0.20426879  1
  F  F433  1  0.04407146  0.00560461  0.70050392  1
  F  F434  1  0.04405640  0.49769668  0.20034931  1
  F  F435  1  0.04252279  0.50137821  0.69921027  1
  F  F436  1  0.37804543  0.00006548  0.20132255  1
  F  F437  1  0.37842675  0.00334076  0.70181140  1
  F  F438  1  0.37864800  0.49634140  0.20272465  1
  F  F439  1  0.36956124  0.49938704  0.70088807  1
  F  F440  1  0.71363361  0.00278064  0.20302459  1
  F  F441  1  0.71204967  0.00619543  0.70342928  1
  F  F442  1  0.71232345  0.49471292  0.20124504  1
  F  F443  1  0.71552457  0.49159969  0.69390118  1
  F  F444  1  0.21065013  0.24764319  0.20195551  1
  F  F445  1  0.21267900  0.23507155  0.69699999  1
  F  F446  1  0.21588009  0.75649753  0.19576621  1
  F  F447  1  0.21114968  0.75297711  0.70271864  1
  F  F448  1  0.54724515  0.24864823  0.20238991  1
  F  F449  1  0.54618424  0.24830121  0.70133725  1
  F  F450  1  0.54743132  0.74638129  0.20168605  1
  F  F451  1  0.54440089  0.75154609  0.69942946  1
  F  F452  1  0.87814169  0.24735008  0.20199771  1
  F  F453  1  0.87629075  0.24745271  0.70144058  1
  F  F454  1  0.87462084  0.74708909  0.20364248  1
  F  F455  1  0.87764502  0.75353138  0.70424672  1
  F  F456  1  0.29058737  0.00340982  0.29842630  1
  F  F457  1  0.28635925  -0.00002620  0.79542904  1
  F  F458  1  0.28745146  0.49644743  0.29818601  1
  F  F459  1  0.28839591  0.50001728  0.80133468  1
  F  F460  1  0.62217238  0.00310382  0.29813102  1
  F  F461  1  0.62052206  0.00376924  0.79812573  1
  F  F462  1  0.62827563  0.49755109  0.30040304  1
  F  F463  1  0.63741669  0.49583018  0.80300513  1
  F  F464  1  0.95349879  0.00449104  0.29880458  1
  F  F465  1  0.95267242  0.00708918  0.80252454  1
  F  F466  1  0.95131020  0.49961900  0.29918743  1
  F  F467  1  0.95213231  0.50354934  0.79523997  1
  F  F468  1  0.12175766  0.24715021  0.29874785  1
  F  F469  1  0.11377040  0.23860252  0.80266623  1
  F  F470  1  0.11788097  0.76155406  0.30186076  1
  F  F471  1  0.12083570  0.75265418  0.79780608  1
  F  F472  1  0.45889853  0.24635836  0.29929756  1
  F  F473  1  0.46728581  0.24918098  0.80320478  1
  F  F474  1  0.45630060  0.74962291  0.29397972  1
  F  F475  1  0.45693141  0.75128660  0.79811333  1
  F  F476  1  0.78747443  0.24702395  0.29879586  1
  F  F477  1  0.78693677  0.25189004  0.79668430  1
  F  F478  1  0.78842404  0.74657392  0.30006001  1
  F  F479  1  0.78715608  0.75112012  0.79942638  1
