# generated using pymatgen
data_K24Na3Li5Mg64Fe17Si79(O5F)48
_symmetry_space_group_name_H-M   'P 1'
_cell_length_a   16.08301632
_cell_length_b   18.57787614
_cell_length_c   20.54411089
_cell_angle_alpha   89.99750461
_cell_angle_beta   100.01029653
_cell_angle_gamma   90.00115810
_symmetry_Int_Tables_number   1
_chemical_formula_structural   K24Na3Li5Mg64Fe17Si79(O5F)48
_chemical_formula_sum   'K24 Na3 Li5 Mg64 Fe17 Si79 O240 F48'
_cell_volume   6044.89283451
_cell_formula_units_Z   1
loop_
 _symmetry_equiv_pos_site_id
 _symmetry_equiv_pos_as_xyz
  1  'x, y, z'
loop_
 _atom_site_type_symbol
 _atom_site_label
 _atom_site_symmetry_multiplicity
 _atom_site_fract_x
 _atom_site_fract_y
 _atom_site_fract_z
 _atom_site_occupancy
  K  K0  1  0.00029864  0.00558414  -0.00740673  1
  K  K1  1  -0.01269353  0.00934642  0.50433667  1
  K  K2  1  -0.00449256  0.48538427  -0.00562739  1
  K  K3  1  0.00243547  0.49860168  0.50920670  1
  K  K4  1  0.34598518  0.00635811  -0.00414969  1
  K  K5  1  0.33953758  0.00066725  0.50390687  1
  K  K6  1  0.33533224  0.49016226  -0.01356512  1
  K  K7  1  0.33075718  0.49190441  0.50757279  1
  K  K8  1  0.66394356  0.01011947  -0.00327930  1
  K  K9  1  0.66330035  -0.00531692  0.50234498  1
  K  K10  1  0.66185307  0.50647741  -0.00441465  1
  K  K11  1  0.66381753  0.48708922  0.50372296  1
  K  K12  1  0.16639620  0.25248345  -0.00625624  1
  K  K13  1  0.15966165  0.24345592  0.49986152  1
  K  K14  1  0.17538423  0.74794652  -0.00901157  1
  K  K15  1  0.16612195  0.74743024  0.51324675  1
  K  K16  1  0.50901589  0.24579224  0.00532901  1
  K  K17  1  0.50142336  0.25821624  0.50256153  1
  K  K18  1  0.48730657  0.75383927  -0.01078693  1
  K  K19  1  0.49513405  0.75848693  0.50078204  1
  K  K20  1  0.83518596  0.24494426  -0.00534873  1
  K  K21  1  0.83687454  0.25135696  0.50322944  1
  K  K22  1  0.82619022  0.75303887  -0.00649359  1
  K  K23  1  0.84120892  0.75921203  0.50784859  1
  Na  Na24  1  0.16677300  0.49976342  0.24965388  1
  Na  Na25  1  -0.00422054  0.08013957  0.74820642  1
  Na  Na26  1  0.33456688  0.91787368  0.75170396  1
  Li  Li27  1  0.66825293  0.25020282  0.75441959  1
  Li  Li28  1  0.83638676  0.49880727  0.25051676  1
  Li  Li29  1  -0.00750387  0.08697346  0.25677344  1
  Li  Li30  1  0.66507081  0.08795036  0.25633527  1
  Li  Li31  1  0.33426503  0.41620593  0.75007589  1
  Mg  Mg32  1  0.66756225  0.24797997  0.25091374  1
  Mg  Mg33  1  -0.00327575  0.24780186  0.25241076  1
  Mg  Mg34  1  0.50041579  0.49859651  0.25319202  1
  Mg  Mg35  1  -0.00213840  0.25015901  0.74905211  1
  Mg  Mg36  1  0.33129419  0.25025391  0.25147014  1
  Mg  Mg37  1  0.66841161  0.74973477  0.25018863  1
  Mg  Mg38  1  0.16652109  -0.00229795  0.74862188  1
  Mg  Mg39  1  0.66727837  0.75098703  0.75382842  1
  Mg  Mg40  1  0.33415524  0.75073092  0.25162147  1
  Mg  Mg41  1  0.16211274  0.00124867  0.24979834  1
  Mg  Mg42  1  0.17041713  0.49739295  0.74599598  1
  Mg  Mg43  1  0.33287600  0.74919968  0.75064991  1
  Mg  Mg44  1  0.83108115  0.00339661  0.25113280  1
  Mg  Mg45  1  0.83318375  0.49744425  0.74908043  1
  Mg  Mg46  1  0.00040189  0.74906809  0.24691600  1
  Mg  Mg47  1  0.50235168  0.00194248  0.25388467  1
  Mg  Mg48  1  0.50040732  0.00252799  0.75484273  1
  Mg  Mg49  1  0.83344514  -0.00154075  0.74985007  1
  Mg  Mg50  1  0.00017258  0.75066050  0.74248984  1
  Mg  Mg51  1  0.49691559  0.49774834  0.75324217  1
  Mg  Mg52  1  0.33336149  0.25193506  0.75069033  1
  Mg  Mg53  1  -0.00167566  0.91498069  0.74664570  1
  Mg  Mg54  1  0.50317661  0.16525138  0.25197547  1
  Mg  Mg55  1  0.50470207  0.16927672  0.75348566  1
  Mg  Mg56  1  0.66868212  0.41347969  0.75348721  1
  Mg  Mg57  1  -0.00192659  0.41811237  0.24989318  1
  Mg  Mg58  1  0.16801907  0.66377917  0.74482386  1
  Mg  Mg59  1  0.16717916  0.66606947  0.24833931  1
  Mg  Mg60  1  0.33439414  0.41626605  0.25336122  1
  Mg  Mg61  1  0.66950300  0.08704529  0.75390424  1
  Mg  Mg62  1  0.67059063  0.41730824  0.25152900  1
  Mg  Mg63  1  0.66785654  0.91803513  0.24963246  1
  Mg  Mg64  1  0.83130526  0.16802322  0.75221576  1
  Mg  Mg65  1  0.50286880  0.33453054  0.25466213  1
  Mg  Mg66  1  -0.00230857  0.41423114  0.74663611  1
  Mg  Mg67  1  0.83527306  0.66377607  0.24838340  1
  Mg  Mg68  1  0.49940253  0.66439877  0.75256193  1
  Mg  Mg69  1  0.83326835  0.83602869  0.74657988  1
  Mg  Mg70  1  0.16684419  0.83525947  0.24944802  1
  Mg  Mg71  1  0.83422533  0.83411770  0.24828122  1
  Mg  Mg72  1  0.16066632  0.16406621  0.25223813  1
  Mg  Mg73  1  0.83444070  0.33634437  0.25057374  1
  Mg  Mg74  1  0.50182922  0.83603628  0.25195756  1
  Mg  Mg75  1  0.83152711  0.16404068  0.25140924  1
  Mg  Mg76  1  -0.00021925  0.58128999  0.24770612  1
  Mg  Mg77  1  0.50015812  0.83491847  0.75633694  1
  Mg  Mg78  1  0.33446443  0.58318675  0.25178203  1
  Mg  Mg79  1  0.16608305  0.83352998  0.74615882  1
  Mg  Mg80  1  0.33339347  0.08513970  0.25160955  1
  Mg  Mg81  1  0.33411612  0.57930015  0.74988778  1
  Mg  Mg82  1  0.66746974  0.58318157  0.75361542  1
  Mg  Mg83  1  0.66725349  0.91680817  0.75316779  1
  Mg  Mg84  1  0.67074922  0.58177482  0.24982425  1
  Mg  Mg85  1  0.16471164  0.33369030  0.25132575  1
  Mg  Mg86  1  0.83380699  0.66572537  0.74746583  1
  Mg  Mg87  1  0.50162906  0.33306246  0.75449090  1
  Mg  Mg88  1  0.33520952  0.91736024  0.25182542  1
  Mg  Mg89  1  0.83185407  0.33471375  0.74976614  1
  Mg  Mg90  1  0.50210224  0.66550097  0.25166935  1
  Mg  Mg91  1  -0.00128894  0.91880374  0.24721290  1
  Mg  Mg92  1  0.16693992  0.33405078  0.74678126  1
  Mg  Mg93  1  0.33485491  0.08425594  0.75286884  1
  Mg  Mg94  1  -0.00045743  0.58287723  0.74185896  1
  Mg  Mg95  1  0.16468806  0.16531665  0.74942584  1
  Fe  Fe96  1  0.02702740  0.83915395  0.60455572  1
  Fe  Fe97  1  0.81221066  0.91340814  0.88988355  1
  Fe  Fe98  1  0.47740404  0.92117463  0.89491650  1
  Fe  Fe99  1  0.85402595  0.41520143  0.60560912  1
  Fe  Fe100  1  0.97461975  0.33151431  0.89061269  1
  Fe  Fe101  1  0.63910849  0.16921282  0.39240130  1
  Fe  Fe102  1  0.85094636  0.92097170  0.60395199  1
  Fe  Fe103  1  0.47608752  0.91987956  0.39159595  1
  Fe  Fe104  1  0.30360916  0.83267231  0.89047853  1
  Fe  Fe105  1  0.52663663  0.08268420  0.11162076  1
  Fe  Fe106  1  0.47401999  0.41625393  0.39275799  1
  Fe  Fe107  1  0.80625674  0.42173369  0.89335215  1
  Fe  Fe108  1  0.47599710  0.57827188  0.89190978  1
  Fe  Fe109  1  0.19499031  0.57871053  0.60647581  1
  Fe  Fe110  1  0.80199337  0.07880966  0.39212123  1
  Fe  Fe111  1  0.64835329  0.17284401  0.89120340  1
  Fe  Fe112  1  0.97068534  0.16915571  0.39248527  1
  Si  Si113  1  0.69469602  0.66370924  0.11350634  1
  Si  Si114  1  0.30420839  0.33093137  0.88366203  1
  Si  Si115  1  0.30200630  0.83314800  0.38760389  1
  Si  Si116  1  0.36525051  0.83259037  0.61599686  1
  Si  Si117  1  0.64672049  0.66608534  0.38523629  1
  Si  Si118  1  0.52647032  0.41661014  0.11584991  1
  Si  Si119  1  0.97540112  0.82919870  0.38137047  1
  Si  Si120  1  0.02609783  0.83463278  0.11197993  1
  Si  Si121  1  0.02678437  0.66798897  0.11081428  1
  Si  Si122  1  0.52603965  0.08185651  0.61734931  1
  Si  Si123  1  0.02577674  0.33176654  0.11489167  1
  Si  Si124  1  0.29952954  0.33191551  0.38938840  1
  Si  Si125  1  0.35766712  0.83030389  0.11531909  1
  Si  Si126  1  0.36342997  0.32982269  0.61730115  1
  Si  Si127  1  0.14290463  0.41906989  0.88413046  1
  Si  Si128  1  0.19368590  0.08478408  0.61386910  1
  Si  Si129  1  0.86193286  0.41791311  0.11527398  1
  Si  Si130  1  0.68695072  0.16965459  0.61711527  1
  Si  Si131  1  0.85141781  0.58636035  0.60970635  1
  Si  Si132  1  0.52840840  0.58282711  0.61646396  1
  Si  Si133  1  0.81295312  0.90985785  0.38475520  1
  Si  Si134  1  0.52727711  0.91716339  0.61716167  1
  Si  Si135  1  0.64111894  0.33922557  0.88994793  1
  Si  Si136  1  0.35430135  0.16945774  0.11339386  1
  Si  Si137  1  0.47795932  0.58845895  0.38870498  1
  Si  Si138  1  0.30186226  0.16641595  0.88550181  1
  Si  Si139  1  0.86284132  0.58377195  0.11303886  1
  Si  Si140  1  0.47525972  0.09342576  0.89047357  1
  Si  Si141  1  0.35867076  0.66439929  0.11474581  1
  Si  Si142  1  0.65083615  0.33643459  0.38965768  1
  Si  Si143  1  0.81026303  0.42203245  0.38348402  1
  Si  Si144  1  0.30754913  0.66758170  0.38553820  1
  Si  Si145  1  0.97583166  0.82868595  0.88383959  1
  Si  Si146  1  0.68561495  0.82900914  0.61275328  1
  Si  Si147  1  0.64688247  0.66714427  0.88918748  1
  Si  Si148  1  0.47456374  0.40800225  0.88900213  1
  Si  Si149  1  0.68503518  0.33261619  0.61389274  1
  Si  Si150  1  0.81153000  0.58564113  0.38369027  1
  Si  Si151  1  0.52638570  0.58315712  0.11573568  1
  Si  Si152  1  0.68817837  0.66641701  0.61595151  1
  Si  Si153  1  0.19000003  0.08405736  0.11514581  1
  Si  Si154  1  0.85861582  0.91698303  0.11288793  1
  Si  Si155  1  0.35732479  0.33580771  0.11525846  1
  Si  Si156  1  0.81623347  0.59008085  0.88643863  1
  Si  Si157  1  0.36140000  0.16623398  0.61667684  1
  Si  Si158  1  0.64592016  0.83034068  0.38673483  1
  Si  Si159  1  0.19798471  0.91871364  0.61015509  1
  Si  Si160  1  0.13712885  0.91419908  0.38382970  1
  Si  Si161  1  0.52325508  0.41829556  0.61783308  1
  Si  Si162  1  0.14152516  0.58442617  0.38301624  1
  Si  Si163  1  0.52628103  0.90979112  0.11243942  1
  Si  Si164  1  0.02463536  0.16511465  0.61491372  1
  Si  Si165  1  0.97557753  0.33936335  0.38784039  1
  Si  Si166  1  0.85950977  0.08339259  0.11446705  1
  Si  Si167  1  0.02064203  0.66478539  0.60523231  1
  Si  Si168  1  0.69443510  0.82968369  0.11355972  1
  Si  Si169  1  0.97897229  0.16696793  0.88657883  1
  Si  Si170  1  0.69798827  0.17211365  0.11178384  1
  Si  Si171  1  0.14124303  0.07950543  0.88319378  1
  Si  Si172  1  0.30480937  0.66235529  0.88777966  1
  Si  Si173  1  0.64181564  0.83225460  0.89129262  1
  Si  Si174  1  0.97822224  0.66562276  0.38346119  1
  Si  Si175  1  0.84801895  0.09072200  0.61296439  1
  Si  Si176  1  0.13760310  0.58262058  0.87971702  1
  Si  Si177  1  0.46840712  0.09184052  0.39139097  1
  Si  Si178  1  0.19278477  0.41553500  0.11534188  1
  Si  Si179  1  0.13569784  0.91561623  0.88655894  1
  Si  Si180  1  0.69483331  0.33744613  0.11411063  1
  Si  Si181  1  0.02797913  0.32911503  0.60907354  1
  Si  Si182  1  0.36466914  0.66856968  0.61121596  1
  Si  Si183  1  0.19409167  0.40796044  0.61023790  1
  Si  Si184  1  0.29803252  0.16514960  0.38613255  1
  Si  Si185  1  0.13690369  0.07779930  0.38658323  1
  Si  Si186  1  0.19351148  0.58383597  0.11373196  1
  Si  Si187  1  0.02498211  0.16627196  0.11537910  1
  Si  Si188  1  0.97928221  0.66823667  0.87951423  1
  Si  Si189  1  0.81610037  0.08232109  0.89081213  1
  Si  Si190  1  0.19363478  0.91734729  0.11451335  1
  Si  Si191  1  0.13600982  0.41830978  0.38407421  1
  O  O192  1  0.26265177  0.12875256  0.08551008  1
  O  O193  1  0.26902734  0.12989918  0.58525392  1
  O  O194  1  0.27284862  0.61897157  0.08267649  1
  O  O195  1  0.28546340  0.62289198  0.57279705  1
  O  O196  1  0.61244200  0.13199879  0.07746690  1
  O  O197  1  0.60438021  0.11783742  0.58698567  1
  O  O198  1  0.60485699  0.62155418  0.08629534  1
  O  O199  1  0.61197265  0.60967269  0.58636579  1
  O  O200  1  0.93882528  0.12134507  0.08521984  1
  O  O201  1  0.93610874  0.12190580  0.58968260  1
  O  O202  1  0.93705650  0.62726171  0.08123603  1
  O  O203  1  0.93212428  0.61855604  0.58008362  1
  O  O204  1  0.10436964  0.37211478  0.08584489  1
  O  O205  1  0.11295945  0.35596998  0.58081961  1
  O  O206  1  0.10433629  0.87540867  0.08441933  1
  O  O207  1  0.12086737  0.87384520  0.56832139  1
  O  O208  1  0.43720156  0.37393496  0.08688751  1
  O  O209  1  0.43734774  0.37338426  0.58670439  1
  O  O210  1  0.43905266  0.86141722  0.08714821  1
  O  O211  1  0.44272782  0.87111531  0.58546598  1
  O  O212  1  0.76908938  0.38280305  0.08527314  1
  O  O213  1  0.75764021  0.35908130  0.57350773  1
  O  O214  1  0.77150689  0.87113552  0.08487112  1
  O  O215  1  0.76057447  0.85436147  0.57578858  1
  O  O216  1  0.27165310  0.38197445  0.08263516  1
  O  O217  1  0.27439135  0.36774047  0.58411619  1
  O  O218  1  0.27094666  0.87603425  0.08628848  1
  O  O219  1  0.28414704  0.88390339  0.58747890  1
  O  O220  1  0.60326536  0.37797789  0.08528041  1
  O  O221  1  0.59979644  0.38280592  0.58566064  1
  O  O222  1  0.60301545  0.86541928  0.08452280  1
  O  O223  1  0.60266497  0.87994992  0.58456261  1
  O  O224  1  0.93796882  0.37540431  0.08567786  1
  O  O225  1  0.94910686  0.37740253  0.57352051  1
  O  O226  1  0.93688073  0.87638923  0.08344255  1
  O  O227  1  0.93684388  0.89140308  0.56102104  1
  O  O228  1  0.10019327  0.12363299  0.08477435  1
  O  O229  1  0.10207735  0.12350608  0.58484020  1
  O  O230  1  0.10561471  0.62797701  0.08296074  1
  O  O231  1  0.09345549  0.62539464  0.57184099  1
  O  O232  1  0.42429919  0.13294673  0.07725308  1
  O  O233  1  0.43596868  0.12275128  0.58682248  1
  O  O234  1  0.43930005  0.62828895  0.08672644  1
  O  O235  1  0.45083079  0.63697102  0.58553887  1
  O  O236  1  0.77656461  0.13129289  0.08277604  1
  O  O237  1  0.76988910  0.14763698  0.58423260  1
  O  O238  1  0.77033688  0.62163571  0.08365736  1
  O  O239  1  0.77218951  0.64368216  0.58571687  1
  O  O240  1  0.06083525  0.10283832  0.42231759  1
  O  O241  1  0.05692051  0.10809812  0.91014874  1
  O  O242  1  0.06026260  0.61542004  0.41406599  1
  O  O243  1  0.05294171  0.60904339  0.90911992  1
  O  O244  1  0.37801395  0.11451085  0.41633106  1
  O  O245  1  0.38562781  0.11978182  0.91530504  1
  O  O246  1  0.39665174  0.62710406  0.41479564  1
  O  O247  1  0.37615510  0.60483429  0.92172633  1
  O  O248  1  0.70480097  0.09263109  0.42682149  1
  O  O249  1  0.73748959  0.10920099  0.92491832  1
  O  O250  1  0.72875645  0.61497075  0.41403400  1
  O  O251  1  0.73390637  0.62054394  0.91613239  1
  O  O252  1  0.21483311  0.36495316  0.41528093  1
  O  O253  1  0.22899700  0.37221413  0.91428250  1
  O  O254  1  0.21383477  0.85821877  0.41227922  1
  O  O255  1  0.20687282  0.86253080  0.92487448  1
  O  O256  1  0.57104701  0.36249164  0.42355323  1
  O  O257  1  0.54959636  0.35010203  0.91706153  1
  O  O258  1  0.56828725  0.85705925  0.42115456  1
  O  O259  1  0.55887793  0.84903970  0.92335594  1
  O  O260  1  0.89127729  0.37158343  0.41425726  1
  O  O261  1  0.88933050  0.35988279  0.93498361  1
  O  O262  1  0.88863392  0.84895531  0.40766899  1
  O  O263  1  0.89625075  0.84316252  0.92032986  1
  O  O264  1  0.05179238  0.39865863  0.41518776  1
  O  O265  1  0.06971407  0.39173844  0.92234340  1
  O  O266  1  0.05236217  0.88482551  0.41018551  1
  O  O267  1  0.04741791  0.89011571  0.91158294  1
  O  O268  1  0.38017257  0.37717830  0.42572811  1
  O  O269  1  0.39053759  0.37389801  0.91544434  1
  O  O270  1  0.37955617  0.88193548  0.42290353  1
  O  O271  1  0.38653846  0.89300318  0.93317505  1
  O  O272  1  0.72667685  0.39767648  0.41311957  1
  O  O273  1  0.70119851  0.40662031  0.91972940  1
  O  O274  1  0.73073452  0.87786900  0.41364197  1
  O  O275  1  0.71678578  0.88588717  0.92534529  1
  O  O276  1  0.21853182  0.13042851  0.41531740  1
  O  O277  1  0.22269829  0.13053906  0.91604160  1
  O  O278  1  0.22765649  0.63033423  0.41316556  1
  O  O279  1  0.21364208  0.63730921  0.91052046  1
  O  O280  1  0.53322859  0.15515092  0.42002452  1
  O  O281  1  0.54551102  0.15264015  0.92026389  1
  O  O282  1  0.56220369  0.63986157  0.41370244  1
  O  O283  1  0.57214893  0.63622462  0.92518091  1
  O  O284  1  0.88233409  0.14380887  0.43361907  1
  O  O285  1  0.89735934  0.13699032  0.91716208  1
  O  O286  1  0.89460034  0.63673315  0.41208281  1
  O  O287  1  0.89342185  0.64962988  0.90946662  1
  O  O288  1  0.18601839  0.00048213  0.08629544  1
  O  O289  1  0.19489606  0.00371722  0.58258476  1
  O  O290  1  0.18004970  0.49973483  0.08851634  1
  O  O291  1  0.18231554  0.48432736  0.57144411  1
  O  O292  1  0.51450477  -0.01290319  0.07748357  1
  O  O293  1  0.51403397  -0.00061166  0.58725567  1
  O  O294  1  0.51574920  0.50025005  0.08711887  1
  O  O295  1  0.50741426  0.50080692  0.58774427  1
  O  O296  1  0.85002233  -0.00036559  0.08402656  1
  O  O297  1  0.82335979  0.01577352  0.57452656  1
  O  O298  1  0.86037590  0.50090707  0.08537284  1
  O  O299  1  0.82591261  0.51013869  0.57399632  1
  O  O300  1  0.01821906  0.24928893  0.08458815  1
  O  O301  1  0.01454515  0.24542355  0.58088237  1
  O  O302  1  0.02007987  0.75142115  0.08233162  1
  O  O303  1  0.00516138  0.74393213  0.57246884  1
  O  O304  1  0.34130729  0.25409667  0.08586537  1
  O  O305  1  0.36055609  0.24784727  0.58542726  1
  O  O306  1  0.34295569  0.74710749  0.08674017  1
  O  O307  1  0.35341916  0.75209262  0.58111610  1
  O  O308  1  0.69274323  0.25667950  0.08240029  1
  O  O309  1  0.65672406  0.25009036  0.58903028  1
  O  O310  1  0.69163104  0.74618143  0.08429975  1
  O  O311  1  0.65652293  0.74601117  0.58708074  1
  O  O312  1  0.16408369  -0.00570600  0.41265946  1
  O  O313  1  0.15684563  -0.00148462  0.91544830  1
  O  O314  1  0.16176368  0.50155784  0.40846153  1
  O  O315  1  0.16522484  0.50278249  0.91017561  1
  O  O316  1  0.49389078  0.01344109  0.42514701  1
  O  O317  1  0.50232520  0.01653221  0.92501364  1
  O  O318  1  0.49462352  0.51184348  0.42476263  1
  O  O319  1  0.49540788  0.48433284  0.92740463  1
  O  O320  1  0.84388469  -0.01548377  0.41856617  1
  O  O321  1  0.84821560  0.00433216  0.92207619  1
  O  O322  1  0.83367325  0.50441463  0.41207366  1
  O  O323  1  0.84560845  0.51568913  0.92302233  1
  O  O324  1  0.30905060  0.24758153  0.41577540  1
  O  O325  1  0.31091764  0.24896881  0.91601132  1
  O  O326  1  0.31725864  0.74948222  0.41470212  1
  O  O327  1  0.32715774  0.73857481  0.92524635  1
  O  O328  1  0.68619938  0.26036104  0.42061820  1
  O  O329  1  0.68217894  0.26515959  0.92303004  1
  O  O330  1  0.67076641  0.74701892  0.41309161  1
  O  O331  1  0.67255436  0.74909955  0.91510777  1
  O  O332  1  1.00519077  0.26425343  0.42299470  1
  O  O333  1  1.01205626  0.24025114  0.92535990  1
  O  O334  1  1.00219441  0.74780959  0.40997750  1
  O  O335  1  1.01400397  0.74724138  0.90861117  1
  O  O336  1  0.20790061  0.08334448  0.19556054  1
  O  O337  1  0.21121256  0.08492519  0.69386638  1
  O  O338  1  0.21519690  0.59140574  0.19290210  1
  O  O339  1  0.21349168  0.58107334  0.69788901  1
  O  O340  1  0.53846132  0.08186855  0.20171951  1
  O  O341  1  0.54299181  0.08342516  0.69710863  1
  O  O342  1  0.54391144  0.58397489  0.19619005  1
  O  O343  1  0.54626322  0.58399862  0.69644410  1
  O  O344  1  0.87413576  0.08139955  0.19352044  1
  O  O345  1  0.86168511  0.08490926  0.69271338  1
  O  O346  1  0.88076697  0.58891098  0.19240073  1
  O  O347  1  0.87292047  0.58391986  0.69087432  1
  O  O348  1  0.04357952  0.33288419  0.19504285  1
  O  O349  1  0.04439560  0.33228734  0.68996462  1
  O  O350  1  0.04422651  0.83202942  0.19238441  1
  O  O351  1  0.04488397  0.83290902  0.69689906  1
  O  O352  1  0.37436441  0.33479940  0.19540530  1
  O  O353  1  0.37952728  0.33002713  0.69658095  1
  O  O354  1  0.37416964  0.83079394  0.19580946  1
  O  O355  1  0.38521365  0.82485297  0.69466517  1
  O  O356  1  0.71024668  0.33728481  0.19439513  1
  O  O357  1  0.70901205  0.33799745  0.69334425  1
  O  O358  1  0.71209546  0.82885978  0.19408648  1
  O  O359  1  0.70536581  0.83047124  0.69343798  1
  O  O360  1  0.21548246  0.40919412  0.19447797  1
  O  O361  1  0.20617762  0.41348739  0.69013970  1
  O  O362  1  0.21085682  0.91573660  0.19498904  1
  O  O363  1  0.20253549  0.91772751  0.68926033  1
  O  O364  1  0.54480636  0.41769610  0.19599661  1
  O  O365  1  0.54243049  0.41766078  0.69771965  1
  O  O366  1  0.54537958  0.91102974  0.19320416  1
  O  O367  1  0.54586312  0.91635531  0.69694419  1
  O  O368  1  0.87927915  0.41574329  0.19473672  1
  O  O369  1  0.87738000  0.41823268  0.69632981  1
  O  O370  1  0.87813507  0.91361019  0.19292111  1
  O  O371  1  0.87690524  0.91571509  0.69559188  1
  O  O372  1  0.04529499  0.16971398  0.19463954  1
  O  O373  1  0.04817137  0.17244053  0.69381325  1
  O  O374  1  0.04430182  0.66755926  0.19129259  1
  O  O375  1  0.04123750  0.66427675  0.68688909  1
  O  O376  1  0.37191236  0.16844858  0.19450157  1
  O  O377  1  0.37660992  0.16763162  0.69669152  1
  O  O378  1  0.37751637  0.66537991  0.19543063  1
  O  O379  1  0.37771874  0.66655224  0.69175891  1
  O  O380  1  0.71521411  0.17519274  0.19137411  1
  O  O381  1  0.70959045  0.16484829  0.69626971  1
  O  O382  1  0.71124423  0.66507722  0.19386781  1
  O  O383  1  0.70782571  0.66577365  0.69648092  1
  O  O384  1  0.12353687  0.08007669  0.30603034  1
  O  O385  1  0.13164401  0.08174402  0.80419541  1
  O  O386  1  0.11956126  0.59241275  0.30375440  1
  O  O387  1  0.11969849  0.58210053  0.79951294  1
  O  O388  1  0.45069043  0.08601160  0.30956934  1
  O  O389  1  0.45631383  0.08875359  0.80900061  1
  O  O390  1  0.45922604  0.58592636  0.30722773  1
  O  O391  1  0.45582978  0.58221080  0.80033594  1
  O  O392  1  0.78781431  0.08248610  0.30035665  1
  O  O393  1  0.79370456  0.08296799  0.80936999  1
  O  O394  1  0.79039932  0.58786043  0.30383455  1
  O  O395  1  0.79344806  0.58585435  0.80538781  1
  O  O396  1  0.28741584  0.33331194  0.30819531  1
  O  O397  1  0.28576784  0.32938218  0.80421728  1
  O  O398  1  0.28825535  0.83309042  0.30611706  1
  O  O399  1  0.28156760  0.82441323  0.80025353  1
  O  O400  1  0.62675541  0.33735694  0.30757745  1
  O  O401  1  0.62118113  0.33829746  0.80903818  1
  O  O402  1  0.62534073  0.83000746  0.30530790  1
  O  O403  1  0.62568770  0.83267191  0.80937595  1
  O  O404  1  0.95706713  0.33675011  0.30664941  1
  O  O405  1  0.95731510  0.33414376  0.79862563  1
  O  O406  1  0.95906519  0.83038053  0.30051102  1
  O  O407  1  0.95570976  0.82816509  0.80331123  1
  O  O408  1  0.11763242  0.41084640  0.30475537  1
  O  O409  1  0.12381580  0.41617624  0.80327454  1
  O  O410  1  0.12149409  0.91455747  0.30294927  1
  O  O411  1  0.12381879  0.91576120  0.80605761  1
  O  O412  1  0.45531842  0.41729571  0.30059069  1
  O  O413  1  0.45951748  0.41487109  0.80902175  1
  O  O414  1  0.45431367  0.91616907  0.29946612  1
  O  O415  1  0.46698217  0.91931942  0.80437817  1
  O  O416  1  0.79093445  0.41868844  0.30357002  1
  O  O417  1  0.78922702  0.41867519  0.80128103  1
  O  O418  1  0.79150726  0.91168400  0.30354713  1
  O  O419  1  0.78692582  0.91383972  0.79851333  1
  O  O420  1  0.28459714  0.16662613  0.30524731  1
  O  O421  1  0.28719750  0.16856375  0.80514912  1
  O  O422  1  0.29050522  0.66738691  0.30465122  1
  O  O423  1  0.29109174  0.66385484  0.80644737  1
  O  O424  1  0.61992710  0.17270263  0.30106472  1
  O  O425  1  0.62256272  0.16641974  0.80122881  1
  O  O426  1  0.62671966  0.66506201  0.30422137  1
  O  O427  1  0.62537640  0.66536709  0.80806447  1
  O  O428  1  0.95126236  0.17018022  0.30115030  1
  O  O429  1  0.95468604  0.17402134  0.80715171  1
  O  O430  1  0.95872394  0.66621309  0.30273814  1
  O  O431  1  0.95870804  0.66579679  0.79896906  1
  F  F432  1  0.04946141  -0.00887372  0.19478039  1
  F  F433  1  0.04990713  -0.00822496  0.69711573  1
  F  F434  1  0.03453759  0.50041984  0.19475747  1
  F  F435  1  0.04605317  0.49771510  0.69765827  1
  F  F436  1  0.37466645  0.00179463  0.20201729  1
  F  F437  1  0.38459306  0.01255769  0.69928901  1
  F  F438  1  0.37935314  0.50312368  0.20026165  1
  F  F439  1  0.38080202  0.49961083  0.69863622  1
  F  F440  1  0.71627693  -0.01199287  0.19606548  1
  F  F441  1  0.70767216  0.00127921  0.70299934  1
  F  F442  1  0.70556081  0.50120986  0.19883213  1
  F  F443  1  0.70950691  0.50308492  0.70239041  1
  F  F444  1  0.21014342  0.24932103  0.20342169  1
  F  F445  1  0.21301492  0.24861899  0.70003785  1
  F  F446  1  0.21289953  0.75129499  0.20107020  1
  F  F447  1  0.21249442  0.74559583  0.69571499  1
  F  F448  1  0.54265465  0.25590065  0.20092187  1
  F  F449  1  0.53567298  0.25255950  0.70097838  1
  F  F450  1  0.54572397  0.74801230  0.20290643  1
  F  F451  1  0.54700741  0.74915092  0.70696989  1
  F  F452  1  0.87911362  0.25572995  0.19962209  1
  F  F453  1  0.87713175  0.24889860  0.69913605  1
  F  F454  1  0.87926600  0.74885520  0.19859285  1
  F  F455  1  0.87601314  0.74844685  0.69820564  1
  F  F456  1  0.28455746  -0.00035776  0.29710144  1
  F  F457  1  0.28350781  0.00930876  0.80065019  1
  F  F458  1  0.30017618  0.50178928  0.30200453  1
  F  F459  1  0.28712085  0.49771334  0.79857934  1
  F  F460  1  0.61931807  -0.01036985  0.30102382  1
  F  F461  1  0.62312765  0.00169723  0.79971223  1
  F  F462  1  0.62215622  0.50229679  0.29896610  1
  F  F463  1  0.62081230  0.50137586  0.79881530  1
  F  F464  1  0.95331941  -0.00579744  0.29600484  1
  F  F465  1  0.95131445  -0.01061278  0.80083113  1
  F  F466  1  0.95983199  0.50275858  0.29885420  1
  F  F467  1  0.95705456  0.50328575  0.79418855  1
  F  F468  1  0.12065769  0.24975255  0.29890445  1
  F  F469  1  0.12260792  0.25135601  0.79658597  1
  F  F470  1  0.12174158  0.75039459  0.29502920  1
  F  F471  1  0.12033633  0.74420139  0.79232310  1
  F  F472  1  0.45069098  0.25150599  0.29683226  1
  F  F473  1  0.45169816  0.25015124  0.80086676  1
  F  F474  1  0.45516949  0.74878091  0.29826816  1
  F  F475  1  0.45487624  0.74682420  0.80049336  1
  F  F476  1  0.78889180  0.25428479  0.29617137  1
  F  F477  1  0.79169202  0.25213132  0.79805632  1
  F  F478  1  0.79094120  0.74788507  0.29548621  1
  F  F479  1  0.78948616  0.74869654  0.79540124  1
