# generated using pymatgen
data_K24Na3Li5Mg64Fe17Si79(O5F)48
_symmetry_space_group_name_H-M   'P 1'
_cell_length_a   16.07823943
_cell_length_b   18.56690917
_cell_length_c   20.53224564
_cell_angle_alpha   89.99944081
_cell_angle_beta   100.00722863
_cell_angle_gamma   90.00370453
_symmetry_Int_Tables_number   1
_chemical_formula_structural   K24Na3Li5Mg64Fe17Si79(O5F)48
_chemical_formula_sum   'K24 Na3 Li5 Mg64 Fe17 Si79 O240 F48'
_cell_volume   6036.09893108
_cell_formula_units_Z   1
loop_
 _symmetry_equiv_pos_site_id
 _symmetry_equiv_pos_as_xyz
  1  'x, y, z'
loop_
 _atom_site_type_symbol
 _atom_site_label
 _atom_site_symmetry_multiplicity
 _atom_site_fract_x
 _atom_site_fract_y
 _atom_site_fract_z
 _atom_site_occupancy
  K  K0  1  -0.00443741  -0.00463607  -0.00092319  1
  K  K1  1  -0.00249671  -0.00339751  0.49806131  1
  K  K2  1  -0.00221843  0.50605619  0.00488460  1
  K  K3  1  -0.00490234  0.49488557  0.49454748  1
  K  K4  1  0.33887257  -0.00161930  -0.00357982  1
  K  K5  1  0.33479300  -0.00165941  0.50314485  1
  K  K6  1  0.33710513  0.49851094  -0.00049145  1
  K  K7  1  0.33049500  0.50133409  0.50383833  1
  K  K8  1  0.67588443  -0.00584613  0.00016830  1
  K  K9  1  0.67514966  0.00019753  0.50818349  1
  K  K10  1  0.65468494  0.49577825  -0.00437525  1
  K  K11  1  0.67698664  0.49938575  0.49836909  1
  K  K12  1  0.16744431  0.25036884  0.00315271  1
  K  K13  1  0.16681396  0.25096808  0.49887998  1
  K  K14  1  0.16796262  0.74473229  0.00031230  1
  K  K15  1  0.16760748  0.74883842  0.50177777  1
  K  K16  1  0.50124144  0.25561548  0.00123272  1
  K  K17  1  0.50657294  0.24423890  0.50011628  1
  K  K18  1  0.50562112  0.75646992  -0.00063219  1
  K  K19  1  0.51169063  0.75495987  0.50576342  1
  K  K20  1  0.82735711  0.24905248  0.00286036  1
  K  K21  1  0.82542493  0.25565210  0.49966801  1
  K  K22  1  0.82454426  0.75460880  -0.00149699  1
  K  K23  1  0.82850231  0.75142872  0.49681411  1
  Na  Na24  1  0.17340567  -0.00182373  0.75387416  1
  Na  Na25  1  0.00224666  0.58147287  0.25390991  1
  Na  Na26  1  0.66770109  0.91768230  0.74766927  1
  Li  Li27  1  0.33201561  0.24733503  0.24550719  1
  Li  Li28  1  0.49761230  0.49946928  0.75383696  1
  Li  Li29  1  0.00073145  0.41818658  0.74851729  1
  Li  Li30  1  0.33477881  0.92027501  0.74927396  1
  Li  Li31  1  0.83079955  0.66804764  0.74847110  1
  Mg  Mg32  1  0.49834692  -0.00085791  0.74504203  1
  Mg  Mg33  1  0.33313045  0.25175248  0.75068503  1
  Mg  Mg34  1  -0.00068798  0.74955144  0.75324165  1
  Mg  Mg35  1  -0.00035393  0.74867143  0.25452980  1
  Mg  Mg36  1  0.66701107  0.24967349  0.24889540  1
  Mg  Mg37  1  0.83346260  0.50040707  0.25575588  1
  Mg  Mg38  1  0.33253939  0.74748838  0.24619909  1
  Mg  Mg39  1  0.83313093  0.00023240  0.25179869  1
  Mg  Mg40  1  0.49937280  0.50060892  0.24658307  1
  Mg  Mg41  1  0.66581009  0.75047325  0.24891536  1
  Mg  Mg42  1  0.66891084  0.74894865  0.74873023  1
  Mg  Mg43  1  0.16373471  0.49815155  0.74742290  1
  Mg  Mg44  1  0.33293826  0.75405764  0.74776573  1
  Mg  Mg45  1  0.00171806  0.24846693  0.25142398  1
  Mg  Mg46  1  0.00077913  0.25232286  0.74889216  1
  Mg  Mg47  1  0.83616825  0.50258107  0.75049728  1
  Mg  Mg48  1  0.16605678  0.00200755  0.25138918  1
  Mg  Mg49  1  0.83342721  -0.00076276  0.74927847  1
  Mg  Mg50  1  0.66800193  0.25246532  0.74889106  1
  Mg  Mg51  1  0.16715052  0.50012685  0.24713426  1
  Mg  Mg52  1  0.49787123  0.00180768  0.24536906  1
  Mg  Mg53  1  0.00263336  0.08506621  0.25135473  1
  Mg  Mg54  1  0.83332225  0.33545622  0.25105285  1
  Mg  Mg55  1  0.16813956  0.33149273  0.24638727  1
  Mg  Mg56  1  0.83171682  0.83032689  0.75110914  1
  Mg  Mg57  1  0.83445702  0.66628236  0.25375876  1
  Mg  Mg58  1  0.00120361  0.08289878  0.74989536  1
  Mg  Mg59  1  0.83599024  0.33718015  0.74856315  1
  Mg  Mg60  1  0.33129198  0.41359191  0.24494221  1
  Mg  Mg61  1  0.33095519  0.58388144  0.24479089  1
  Mg  Mg62  1  0.49690800  0.66542961  0.24560694  1
  Mg  Mg63  1  0.83255742  0.16707029  0.74973780  1
  Mg  Mg64  1  0.83345370  0.16605191  0.25086527  1
  Mg  Mg65  1  0.49514119  0.33162498  0.24755162  1
  Mg  Mg66  1  0.16544643  0.83270737  0.25207958  1
  Mg  Mg67  1  0.33292238  0.41857320  0.74926935  1
  Mg  Mg68  1  0.33377908  0.58339035  0.75057741  1
  Mg  Mg69  1  0.16967986  0.83609145  0.75090745  1
  Mg  Mg70  1  0.66632085  0.08573211  0.74648694  1
  Mg  Mg71  1  0.33042388  0.91603516  0.24862241  1
  Mg  Mg72  1  0.33419596  0.08133880  0.75102188  1
  Mg  Mg73  1  0.33144196  0.08691795  0.24848426  1
  Mg  Mg74  1  0.49604341  0.16761258  0.24709201  1
  Mg  Mg75  1  0.16580108  0.66327973  0.24993464  1
  Mg  Mg76  1  0.66598493  0.58287202  0.74988702  1
  Mg  Mg77  1  0.00003022  0.91590257  0.25559571  1
  Mg  Mg78  1  0.66532081  0.58423863  0.25024228  1
  Mg  Mg79  1  0.00027692  0.91603788  0.75317573  1
  Mg  Mg80  1  0.16458798  0.33569149  0.74882274  1
  Mg  Mg81  1  0.16578812  0.66626019  0.74961723  1
  Mg  Mg82  1  0.83162832  0.83475382  0.25492612  1
  Mg  Mg83  1  0.66501794  0.41881050  0.75143011  1
  Mg  Mg84  1  -0.00196933  0.58248620  0.75042266  1
  Mg  Mg85  1  0.66772198  0.91603677  0.25082621  1
  Mg  Mg86  1  0.49965959  0.66427736  0.75090024  1
  Mg  Mg87  1  0.00068823  0.41554989  0.25134405  1
  Mg  Mg88  1  0.16744672  0.16518984  0.75058982  1
  Mg  Mg89  1  0.50035521  0.16708847  0.74707782  1
  Mg  Mg90  1  0.66587141  0.41536685  0.24999268  1
  Mg  Mg91  1  0.66634576  0.08546053  0.24811628  1
  Mg  Mg92  1  0.49913825  0.33800686  0.75113491  1
  Mg  Mg93  1  0.16796194  0.16598087  0.24988482  1
  Mg  Mg94  1  0.49963794  0.83495192  0.74637791  1
  Mg  Mg95  1  0.49771992  0.83485763  0.24733163  1
  Fe  Fe96  1  0.47155423  0.41705974  0.89057857  1
  Fe  Fe97  1  0.14618809  0.08490672  0.39332902  1
  Fe  Fe98  1  0.69721503  0.16554371  0.10945618  1
  Fe  Fe99  1  0.52179606  0.91735046  0.60402618  1
  Fe  Fe100  1  0.35985435  0.67020516  0.10384751  1
  Fe  Fe101  1  0.18783559  0.41659691  0.60824202  1
  Fe  Fe102  1  0.69705911  0.82662538  0.60509762  1
  Fe  Fe103  1  0.98088632  0.66596721  0.39442175  1
  Fe  Fe104  1  0.69477112  0.17061372  0.60902763  1
  Fe  Fe105  1  0.52923096  0.58296284  0.10834669  1
  Fe  Fe106  1  0.35895459  0.16301231  0.10841482  1
  Fe  Fe107  1  0.81391609  0.91607417  0.89194334  1
  Fe  Fe108  1  0.02863319  0.16553602  0.11030829  1
  Fe  Fe109  1  0.18812793  0.58307417  0.10525367  1
  Fe  Fe110  1  0.68872380  0.83118118  0.11040802  1
  Fe  Fe111  1  0.80847158  0.92035827  0.39433526  1
  Fe  Fe112  1  0.80727549  0.41437450  0.39156613  1
  Si  Si113  1  0.02429209  0.83509188  0.11855303  1
  Si  Si114  1  0.18614034  0.91796451  0.11671981  1
  Si  Si115  1  0.86137859  0.58644306  0.11857123  1
  Si  Si116  1  0.19445166  0.07919865  0.11043969  1
  Si  Si117  1  0.51862013  0.91940358  0.11172175  1
  Si  Si118  1  0.52063733  0.57978519  0.61638754  1
  Si  Si119  1  0.51984418  0.41344744  0.11292542  1
  Si  Si120  1  0.63248298  0.83501856  0.38692332  1
  Si  Si121  1  0.52501661  0.41625252  0.61632004  1
  Si  Si122  1  0.30569867  0.67205920  0.88491715  1
  Si  Si123  1  0.97773491  0.66110856  0.88592062  1
  Si  Si124  1  0.63532774  0.66902612  0.38491989  1
  Si  Si125  1  0.14860992  0.41241865  0.38421750  1
  Si  Si126  1  0.02197453  0.32513966  0.61140586  1
  Si  Si127  1  0.35688026  0.17043634  0.61441489  1
  Si  Si128  1  0.98200452  0.83499456  0.39324247  1
  Si  Si129  1  0.63694130  0.83076765  0.88632186  1
  Si  Si130  1  0.02475793  0.67350858  0.11433544  1
  Si  Si131  1  0.86123271  0.91498524  0.11724491  1
  Si  Si132  1  0.80796847  0.09169661  0.38929719  1
  Si  Si133  1  0.80384081  0.58799086  0.39243300  1
  Si  Si134  1  0.86312848  0.41813789  0.61571886  1
  Si  Si135  1  0.80760874  0.58269182  0.88468739  1
  Si  Si136  1  0.19748806  0.08283060  0.61561520  1
  Si  Si137  1  0.81003985  0.41702224  0.88550226  1
  Si  Si138  1  0.69116865  0.33736652  0.11160148  1
  Si  Si139  1  0.02933979  0.16096543  0.61462638  1
  Si  Si140  1  0.47322031  0.58248427  0.38448476  1
  Si  Si141  1  0.97393657  0.16813218  0.38868834  1
  Si  Si142  1  0.98093001  0.82676018  0.89226271  1
  Si  Si143  1  0.36003837  0.33457935  0.61203790  1
  Si  Si144  1  0.31006402  0.66428928  0.38661105  1
  Si  Si145  1  0.35019335  0.83932347  0.11169644  1
  Si  Si146  1  0.51960868  0.08791027  0.60795632  1
  Si  Si147  1  0.35747237  0.82831369  0.60930900  1
  Si  Si148  1  0.31224917  0.16970117  0.38727112  1
  Si  Si149  1  0.14370371  0.58131062  0.88478183  1
  Si  Si150  1  0.64058741  0.16633518  0.88403684  1
  Si  Si151  1  0.85918076  0.42218732  0.11518151  1
  Si  Si152  1  0.30585754  0.16151208  0.88570634  1
  Si  Si153  1  0.86536294  0.07861664  0.11399574  1
  Si  Si154  1  0.47498314  0.08283862  0.88328551  1
  Si  Si155  1  0.64203750  0.66632466  0.88587910  1
  Si  Si156  1  0.18529827  0.58673600  0.61280876  1
  Si  Si157  1  0.03134453  0.83770946  0.61715778  1
  Si  Si158  1  0.30302901  0.32770456  0.88882750  1
  Si  Si159  1  0.97587462  0.17197408  0.88584912  1
  Si  Si160  1  0.47198827  0.58927393  0.88790379  1
  Si  Si161  1  0.63299173  0.33049723  0.38628131  1
  Si  Si162  1  0.52856581  0.08310054  0.10996788  1
  Si  Si163  1  0.68828091  0.65572604  0.61115299  1
  Si  Si164  1  0.18645255  0.41388025  0.11041978  1
  Si  Si165  1  0.47088168  0.41841832  0.38292331  1
  Si  Si166  1  0.47258291  0.07988983  0.38430008  1
  Si  Si167  1  0.86456026  0.08154124  0.61420738  1
  Si  Si168  1  0.98142687  0.33279592  0.38782287  1
  Si  Si169  1  0.97612339  0.33683438  0.88400948  1
  Si  Si170  1  0.86246197  0.58180708  0.61536053  1
  Si  Si171  1  0.64512978  0.33259889  0.88775981  1
  Si  Si172  1  0.19799939  0.91446018  0.61587289  1
  Si  Si173  1  0.02273561  0.67311461  0.61601337  1
  Si  Si174  1  0.81137451  0.08774893  0.88813416  1
  Si  Si175  1  0.63485573  0.16475827  0.38392332  1
  Si  Si176  1  0.13681495  0.08320871  0.88647258  1
  Si  Si177  1  0.31090472  0.33313150  0.38161954  1
  Si  Si178  1  0.15050271  0.57682105  0.38952754  1
  Si  Si179  1  0.14105077  0.41640349  0.88404818  1
  Si  Si180  1  0.47320816  0.91640198  0.88251881  1
  Si  Si181  1  0.13981926  0.91496938  0.88798434  1
  Si  Si182  1  0.86681344  0.91536412  0.61481561  1
  Si  Si183  1  0.35507133  0.66418965  0.61443263  1
  Si  Si184  1  0.01989381  0.33306022  0.11289187  1
  Si  Si185  1  0.35345929  0.33207600  0.11132990  1
  Si  Si186  1  0.69204907  0.34320273  0.61193109  1
  Si  Si187  1  0.30656963  0.83694072  0.88491910  1
  Si  Si188  1  0.69660825  0.66112381  0.11282158  1
  Si  Si189  1  0.14681730  0.91584302  0.38895968  1
  Si  Si190  1  0.30516651  0.82836349  0.38451868  1
  Si  Si191  1  0.46608641  0.91519766  0.38327066  1
  O  O192  1  0.28007371  0.08873837  0.07931684  1
  O  O193  1  0.27579736  0.11861638  0.58406407  1
  O  O194  1  0.27839020  0.60547715  0.06465576  1
  O  O195  1  0.26982553  0.61722578  0.58508014  1
  O  O196  1  0.61512662  0.09516832  0.08039149  1
  O  O197  1  0.59719868  0.11863758  0.57432378  1
  O  O198  1  0.63539207  0.59515647  0.08325878  1
  O  O199  1  0.60168072  0.60628218  0.58321737  1
  O  O200  1  0.95133524  0.09112183  0.08406244  1
  O  O201  1  0.95249367  0.10521529  0.58752639  1
  O  O202  1  0.94525734  0.61681013  0.09147665  1
  O  O203  1  0.93559823  0.62887424  0.58620735  1
  O  O204  1  0.10725783  0.35681667  0.08568322  1
  O  O205  1  0.09470402  0.35716415  0.57404049  1
  O  O206  1  0.11003199  0.85992701  0.08965232  1
  O  O207  1  0.11186076  0.86793144  0.58535162  1
  O  O208  1  0.44139859  0.35751734  0.08518362  1
  O  O209  1  0.44859946  0.35959113  0.58664863  1
  O  O210  1  0.43311747  0.87113858  0.08394111  1
  O  O211  1  0.42984506  0.85517312  0.56964032  1
  O  O212  1  0.77249149  0.37711564  0.08495124  1
  O  O213  1  0.76954574  0.38562428  0.58430718  1
  O  O214  1  0.78923356  0.86022967  0.08187819  1
  O  O215  1  0.79626072  0.86158533  0.57718043  1
  O  O216  1  0.27320829  0.38750640  0.08355595  1
  O  O217  1  0.28604133  0.38715212  0.57584737  1
  O  O218  1  0.27188628  0.89732857  0.08772229  1
  O  O219  1  0.27204874  0.87755173  0.58075939  1
  O  O220  1  0.60614998  0.38659120  0.08567647  1
  O  O221  1  0.60813867  0.39360421  0.58418864  1
  O  O222  1  0.59525905  0.89134317  0.07679320  1
  O  O223  1  0.61137470  0.88722179  0.56498152  1
  O  O224  1  0.94168014  0.39108865  0.08595675  1
  O  O225  1  0.93205041  0.36852457  0.58576514  1
  O  O226  1  0.95069604  0.89403637  0.09111786  1
  O  O227  1  0.95551479  0.89345485  0.58860381  1
  O  O228  1  0.12613026  0.13876870  0.07707584  1
  O  O229  1  0.11201335  0.13000575  0.58552953  1
  O  O230  1  0.09830739  0.64875271  0.07462258  1
  O  O231  1  0.10535012  0.64259197  0.58708743  1
  O  O232  1  0.45925367  0.14151595  0.07605423  1
  O  O233  1  0.43931279  0.14499030  0.58419033  1
  O  O234  1  0.45861395  0.65571660  0.07124873  1
  O  O235  1  0.43581490  0.62840156  0.58565816  1
  O  O236  1  0.79484522  0.13557505  0.07877690  1
  O  O237  1  0.78962515  0.13286561  0.57748665  1
  O  O238  1  0.78712823  0.64278296  0.08675260  1
  O  O239  1  0.76755781  0.61188114  0.58508255  1
  O  O240  1  0.04592768  0.11276776  0.42379395  1
  O  O241  1  0.06163093  0.12561429  0.91736343  1
  O  O242  1  0.07252720  0.60156298  0.42412150  1
  O  O243  1  0.06302267  0.61294293  0.91586406  1
  O  O244  1  0.39784485  0.12043234  0.41530062  1
  O  O245  1  0.39626504  0.12067011  0.91362209  1
  O  O246  1  0.39497781  0.61686576  0.41641447  1
  O  O247  1  0.39664899  0.63587094  0.91544158  1
  O  O248  1  0.72487333  0.12734580  0.41515485  1
  O  O249  1  0.72828595  0.12386749  0.91390999  1
  O  O250  1  0.71885354  0.62352444  0.41713765  1
  O  O251  1  0.73107962  0.62281490  0.91544694  1
  O  O252  1  0.22852887  0.35924010  0.41380717  1
  O  O253  1  0.22053654  0.36422707  0.91517943  1
  O  O254  1  0.22156126  0.85447434  0.41365595  1
  O  O255  1  0.23397968  0.88130957  0.91690711  1
  O  O256  1  0.55166097  0.36791320  0.41346913  1
  O  O257  1  0.57582902  0.37071643  0.92405389  1
  O  O258  1  0.54603375  0.86388320  0.41261232  1
  O  O259  1  0.55574342  0.86795057  0.91482461  1
  O  O260  1  0.90787399  0.36369678  0.42466397  1
  O  O261  1  0.89868316  0.37472761  0.91493884  1
  O  O262  1  0.90307871  0.86292244  0.42665431  1
  O  O263  1  0.91003787  0.86058808  0.92991338  1
  O  O264  1  0.06757647  0.38129221  0.41425101  1
  O  O265  1  0.05964932  0.38513118  0.91437201  1
  O  O266  1  0.06148370  0.89247967  0.41716248  1
  O  O267  1  0.07146272  0.86892774  0.92224754  1
  O  O268  1  0.38867067  0.38851647  0.41246559  1
  O  O269  1  0.38664881  0.36751722  0.92644312  1
  O  O270  1  0.38446100  0.88230744  0.41224647  1
  O  O271  1  0.39496338  0.87955521  0.91415804  1
  O  O272  1  0.71734534  0.36910359  0.42471165  1
  O  O273  1  0.73685957  0.37298719  0.91564965  1
  O  O274  1  0.71090603  0.88274219  0.42247585  1
  O  O275  1  0.71844728  0.87646825  0.92079918  1
  O  O276  1  0.23765063  0.14662661  0.42713165  1
  O  O277  1  0.23042032  0.11848538  0.91549165  1
  O  O278  1  0.23456989  0.62770494  0.42007906  1
  O  O279  1  0.22800824  0.63006215  0.91268149  1
  O  O280  1  0.56179385  0.12039189  0.41431586  1
  O  O281  1  0.56178766  0.12824070  0.91347992  1
  O  O282  1  0.55641026  0.63098598  0.41407735  1
  O  O283  1  0.56383211  0.62921085  0.91555606  1
  O  O284  1  0.88440383  0.15028034  0.41480098  1
  O  O285  1  0.89375270  0.14149021  0.91483241  1
  O  O286  1  0.88243388  0.63778786  0.42622948  1
  O  O287  1  0.89767770  0.62390999  0.91485042  1
  O  O288  1  0.15479473  -0.00280246  0.08794492  1
  O  O289  1  0.18481955  -0.00091290  0.58852583  1
  O  O290  1  0.15433217  0.48900055  0.07545289  1
  O  O291  1  0.16031544  0.51072215  0.57679806  1
  O  O292  1  0.49163034  0.00160616  0.08669676  1
  O  O293  1  0.48806238  0.01155285  0.57500503  1
  O  O294  1  0.49138302  0.48992129  0.07964986  1
  O  O295  1  0.49670608  0.49746958  0.58791338  1
  O  O296  1  0.83289417  -0.00384416  0.09038624  1
  O  O297  1  0.84580896  -0.00151032  0.58802891  1
  O  O298  1  0.84469217  0.50477081  0.08582889  1
  O  O299  1  0.86803955  0.49974352  0.58493060  1
  O  O300  1  -0.01066581  0.25733975  0.07770612  1
  O  O301  1  0.00418181  0.24104419  0.58362864  1
  O  O302  1  -0.00608572  0.75608356  0.08727829  1
  O  O303  1  0.00860423  0.75597513  0.58774725  1
  O  O304  1  0.32518040  0.25582119  0.07633275  1
  O  O305  1  0.33577592  0.25193831  0.58445671  1
  O  O306  1  0.32015158  0.76451577  0.07642856  1
  O  O307  1  0.33460357  0.74422822  0.58226007  1
  O  O308  1  0.67561884  0.26023376  0.07494389  1
  O  O309  1  0.67836939  0.26602086  0.57543003  1
  O  O310  1  0.66359139  0.73742804  0.07883409  1
  O  O311  1  0.67613369  0.73071663  0.57086869  1
  O  O312  1  0.18041923  -0.00892974  0.42323345  1
  O  O313  1  0.13901466  -0.00050051  0.91414011  1
  O  O314  1  0.17528766  0.49272828  0.41479094  1
  O  O315  1  0.16060223  0.49880268  0.91342044  1
  O  O316  1  0.48017328  -0.00296471  0.41334162  1
  O  O317  1  0.48522007  -0.00009296  0.91259326  1
  O  O318  1  0.48948495  0.50012389  0.41401140  1
  O  O319  1  0.47700889  0.51181134  0.92382966  1
  O  O320  1  0.82950932  0.01580957  0.42699082  1
  O  O321  1  0.83043370  0.01180658  0.92559838  1
  O  O322  1  0.81450726  0.50817513  0.42592977  1
  O  O323  1  0.81688057  0.49962726  0.91596774  1
  O  O324  1  0.34014904  0.25328249  0.41111509  1
  O  O325  1  0.30711896  0.24314674  0.91597975  1
  O  O326  1  0.32752708  0.74718345  0.41523973  1
  O  O327  1  0.30881050  0.75439750  0.91552700  1
  O  O328  1  0.63375587  0.24658397  0.41355119  1
  O  O329  1  0.65484127  0.24827730  0.91426095  1
  O  O330  1  0.64348136  0.75106334  0.41454710  1
  O  O331  1  0.65046202  0.74758489  0.91755417  1
  O  O332  1  1.00396418  0.24997574  0.41481612  1
  O  O333  1  0.99211988  0.25469823  0.91481832  1
  O  O334  1  1.01609082  0.75847705  0.42570210  1
  O  O335  1  0.99566658  0.74188574  0.91808657  1
  O  O336  1  0.21041881  0.08122380  0.19214336  1
  O  O337  1  0.21562387  0.09002680  0.69473550  1
  O  O338  1  0.21014771  0.58364211  0.19806960  1
  O  O339  1  0.20653648  0.58510833  0.69383677  1
  O  O340  1  0.54346978  0.08452539  0.19204482  1
  O  O341  1  0.54120969  0.08798128  0.68955127  1
  O  O342  1  0.54491152  0.58313057  0.20122069  1
  O  O343  1  0.54173045  0.58385323  0.69597103  1
  O  O344  1  0.87828089  0.08281682  0.19590725  1
  O  O345  1  0.87967844  0.08578377  0.69536697  1
  O  O346  1  0.86728502  0.58154211  0.19752176  1
  O  O347  1  0.87964649  0.58114087  0.69490615  1
  O  O348  1  0.03992027  0.33234429  0.19403379  1
  O  O349  1  0.04504080  0.32730664  0.69157127  1
  O  O350  1  0.04352045  0.83435022  0.19929961  1
  O  O351  1  0.04708047  0.83409359  0.69755056  1
  O  O352  1  0.37545924  0.33482446  0.19174821  1
  O  O353  1  0.37463835  0.33335670  0.69291178  1
  O  O354  1  0.37226603  0.83536740  0.19304613  1
  O  O355  1  0.37815160  0.82737891  0.68934197  1
  O  O356  1  0.70921819  0.33344324  0.19261236  1
  O  O357  1  0.71047304  0.33817930  0.69312657  1
  O  O358  1  0.70914285  0.83315192  0.20199342  1
  O  O359  1  0.71584439  0.82285179  0.69517662  1
  O  O360  1  0.20796411  0.41510095  0.19155110  1
  O  O361  1  0.21070394  0.41592590  0.69997804  1
  O  O362  1  0.20690191  0.91597359  0.19747382  1
  O  O363  1  0.21560159  0.90945085  0.69442334  1
  O  O364  1  0.54132662  0.41429738  0.19437093  1
  O  O365  1  0.54671550  0.41390634  0.69582438  1
  O  O366  1  0.53994770  0.91688655  0.19320522  1
  O  O367  1  0.53400722  0.91686173  0.69423098  1
  O  O368  1  0.87714877  0.41779219  0.19537787  1
  O  O369  1  0.87581830  0.41853785  0.69539782  1
  O  O370  1  0.87906085  0.91503632  0.19831269  1
  O  O371  1  0.88154484  0.91468244  0.69556800  1
  O  O372  1  0.04488518  0.16781221  0.20192006  1
  O  O373  1  0.04593904  0.16527641  0.69521254  1
  O  O374  1  0.04920138  0.67580837  0.19405003  1
  O  O375  1  0.04250391  0.66864866  0.69632444  1
  O  O376  1  0.37864913  0.16391749  0.19926694  1
  O  O377  1  0.37537351  0.16962082  0.69505896  1
  O  O378  1  0.37648611  0.66676166  0.19764077  1
  O  O379  1  0.37405993  0.66565431  0.69478655  1
  O  O380  1  0.71307766  0.16759711  0.20152005  1
  O  O381  1  0.71270993  0.17121026  0.70085202  1
  O  O382  1  0.71075416  0.66589541  0.19481314  1
  O  O383  1  0.70308065  0.66113754  0.69114527  1
  O  O384  1  0.12461411  0.08278748  0.30190020  1
  O  O385  1  0.11828854  0.09037712  0.80738276  1
  O  O386  1  0.13669604  0.58053304  0.30984296  1
  O  O387  1  0.12405306  0.58321751  0.80446230  1
  O  O388  1  0.45652920  0.08068593  0.30415014  1
  O  O389  1  0.45785833  0.08662305  0.80317276  1
  O  O390  1  0.45376583  0.58211283  0.30464207  1
  O  O391  1  0.45244134  0.58872091  0.80757430  1
  O  O392  1  0.79047671  0.08508265  0.30838547  1
  O  O393  1  0.79403496  0.08562435  0.80737605  1
  O  O394  1  0.78730875  0.58475792  0.31076150  1
  O  O395  1  0.78846334  0.58046455  0.80534124  1
  O  O396  1  0.28917331  0.33641081  0.30224856  1
  O  O397  1  0.28912193  0.33038436  0.80790959  1
  O  O398  1  0.28933809  0.83056186  0.30403676  1
  O  O399  1  0.28823991  0.83188353  0.80561150  1
  O  O400  1  0.62081923  0.33271472  0.30543246  1
  O  O401  1  0.62607919  0.33443493  0.80674188  1
  O  O402  1  0.61753074  0.83514040  0.30602893  1
  O  O403  1  0.61727264  0.82449232  0.80693227  1
  O  O404  1  0.95893798  0.33260121  0.30680217  1
  O  O405  1  0.95625428  0.33273208  0.80444069  1
  O  O406  1  0.95963298  0.83515775  0.31139548  1
  O  O407  1  0.96179226  0.83069058  0.81141998  1
  O  O408  1  0.12712840  0.41394415  0.30395107  1
  O  O409  1  0.12394138  0.41650893  0.80446164  1
  O  O410  1  0.12681104  0.91611979  0.30782700  1
  O  O411  1  0.11903427  0.90925852  0.80893307  1
  O  O412  1  0.45492342  0.41763658  0.30268165  1
  O  O413  1  0.45084357  0.41489011  0.80005661  1
  O  O414  1  0.45190599  0.91636969  0.30278227  1
  O  O415  1  0.45807896  0.91660762  0.80324500  1
  O  O416  1  0.78617428  0.41468015  0.30012946  1
  O  O417  1  0.79155613  0.41734173  0.80521513  1
  O  O418  1  0.78881936  0.91965062  0.30276002  1
  O  O419  1  0.80314544  0.91707380  0.80228234  1
  O  O420  1  0.28750701  0.16237218  0.30774071  1
  O  O421  1  0.28956923  0.16576864  0.80544105  1
  O  O422  1  0.29143278  0.66632634  0.30664570  1
  O  O423  1  0.28815884  0.66945771  0.80432126  1
  O  O424  1  0.61913558  0.16532697  0.30372087  1
  O  O425  1  0.62163769  0.16914426  0.80375991  1
  O  O426  1  0.62005988  0.66870613  0.30461228  1
  O  O427  1  0.62404832  0.66455736  0.80556217  1
  O  O428  1  0.95596805  0.16654961  0.30762480  1
  O  O429  1  0.95818830  0.16951927  0.80524619  1
  O  O430  1  0.95193703  0.67283227  0.30465831  1
  O  O431  1  0.96321286  0.66429633  0.80663723  1
  F  F432  1  0.04455980  -0.00353245  0.20522934  1
  F  F433  1  0.03712121  -0.00082445  0.70200081  1
  F  F434  1  0.04852378  0.49056360  0.20051542  1
  F  F435  1  0.04519175  0.50432300  0.70042094  1
  F  F436  1  0.37644991  -0.00116569  0.20185472  1
  F  F437  1  0.37833777  0.00678194  0.69846817  1
  F  F438  1  0.37804110  0.49888773  0.19974858  1
  F  F439  1  0.36972030  0.50294377  0.69945905  1
  F  F440  1  0.71160469  0.00171719  0.20288503  1
  F  F441  1  0.71882535  0.01315603  0.69656297  1
  F  F442  1  0.71088355  0.50045103  0.20483741  1
  F  F443  1  0.71324540  0.49923035  0.70200927  1
  F  F444  1  0.20724131  0.24836599  0.20076472  1
  F  F445  1  0.21209847  0.25009535  0.70318484  1
  F  F446  1  0.21091217  0.75057933  0.20324794  1
  F  F447  1  0.21044277  0.74928255  0.70134542  1
  F  F448  1  0.54658574  0.25088839  0.20081762  1
  F  F449  1  0.54546288  0.25354885  0.70273976  1
  F  F450  1  0.54376114  0.75193010  0.20188274  1
  F  F451  1  0.54409125  0.74603141  0.70152320  1
  F  F452  1  0.87866371  0.25120428  0.20491116  1
  F  F453  1  0.87911748  0.25130922  0.70164339  1
  F  F454  1  0.87764035  0.75356378  0.20552160  1
  F  F455  1  0.88448643  0.75203633  0.70384231  1
  F  F456  1  0.28895504  -0.00072125  0.29756539  1
  F  F457  1  0.30356035  0.00609251  0.80904297  1
  F  F458  1  0.29075894  0.49720886  0.29553811  1
  F  F459  1  0.28504272  0.50336642  0.79955735  1
  F  F460  1  0.61798142  0.00109484  0.29579386  1
  F  F461  1  0.61536458  0.01320235  0.79791833  1
  F  F462  1  0.61989475  0.49746699  0.30003173  1
  F  F463  1  0.62802748  0.50029077  0.80142402  1
  F  F464  1  0.95488185  0.00128618  0.30016774  1
  F  F465  1  0.95636883  0.00215262  0.80070920  1
  F  F466  1  0.95107675  0.48839238  0.30512467  1
  F  F467  1  0.95350545  0.50379502  0.80214117  1
  F  F468  1  0.12341192  0.25310218  0.30021244  1
  F  F469  1  0.12160250  0.25045521  0.79829220  1
  F  F470  1  0.12452710  0.74925325  0.30094978  1
  F  F471  1  0.12333193  0.74894694  0.79907158  1
  F  F472  1  0.46192808  0.25075708  0.29988116  1
  F  F473  1  0.45490638  0.25032023  0.79741978  1
  F  F474  1  0.45356353  0.75199920  0.29689786  1
  F  F475  1  0.45233041  0.74965710  0.79647023  1
  F  F476  1  0.78795686  0.25268021  0.29996667  1
  F  F477  1  0.79067339  0.25538364  0.79881088  1
  F  F478  1  0.78483878  0.74881261  0.30146377  1
  F  F479  1  0.78785030  0.74747415  0.80130353  1
