# generated using pymatgen
data_K24Na3Li5Mg64Fe17Si79(O5F)48
_symmetry_space_group_name_H-M   'P 1'
_cell_length_a   16.08644217
_cell_length_b   18.58329404
_cell_length_c   20.55327967
_cell_angle_alpha   90.01530540
_cell_angle_beta   100.00963181
_cell_angle_gamma   89.98102764
_symmetry_Int_Tables_number   1
_chemical_formula_structural   K24Na3Li5Mg64Fe17Si79(O5F)48
_chemical_formula_sum   'K24 Na3 Li5 Mg64 Fe17 Si79 O240 F48'
_cell_volume   6050.65482343
_cell_formula_units_Z   1
loop_
 _symmetry_equiv_pos_site_id
 _symmetry_equiv_pos_as_xyz
  1  'x, y, z'
loop_
 _atom_site_type_symbol
 _atom_site_label
 _atom_site_symmetry_multiplicity
 _atom_site_fract_x
 _atom_site_fract_y
 _atom_site_fract_z
 _atom_site_occupancy
  K  K0  1  0.00464402  -0.00390089  0.00412118  1
  K  K1  1  0.00326528  0.00317704  0.49252569  1
  K  K2  1  0.01507352  0.50437720  0.00592901  1
  K  K3  1  -0.00209781  0.49601820  0.49671195  1
  K  K4  1  0.32245753  0.00061502  0.00028611  1
  K  K5  1  0.32368094  0.00056906  0.49472133  1
  K  K6  1  0.33730251  0.49284107  0.00517618  1
  K  K7  1  0.33097261  0.49686888  0.49497274  1
  K  K8  1  0.67141218  0.00268099  0.00598474  1
  K  K9  1  0.67866297  0.00433914  0.49872807  1
  K  K10  1  0.65978337  0.49027885  0.00483324  1
  K  K11  1  0.66820965  0.48886472  0.49620525  1
  K  K12  1  0.17886935  0.25455861  -0.00038797  1
  K  K13  1  0.16429358  0.25446028  0.49077952  1
  K  K14  1  0.17128613  0.74734939  0.00767949  1
  K  K15  1  0.16653862  0.74649374  0.49369249  1
  K  K16  1  0.49362595  0.26614092  -0.00347153  1
  K  K17  1  0.50042978  0.25640740  0.50076994  1
  K  K18  1  0.50436353  0.75379384  0.00255534  1
  K  K19  1  0.50505997  0.74625495  0.49273096  1
  K  K20  1  0.83084106  0.26014730  -0.00004573  1
  K  K21  1  0.82432664  0.25335292  0.49925869  1
  K  K22  1  0.84397182  0.74621692  0.01014856  1
  K  K23  1  0.82199705  0.74371610  0.49217514  1
  Na  Na24  1  0.00005291  0.25105352  0.25811767  1
  Na  Na25  1  0.66708632  0.91987680  0.74767129  1
  Na  Na26  1  0.66548533  0.41520989  0.74529517  1
  Li  Li27  1  0.33344282  0.25325280  0.25246433  1
  Li  Li28  1  0.33606740  0.25396681  0.75486551  1
  Li  Li29  1  0.66272762  0.41740022  0.25029582  1
  Li  Li30  1  0.82833227  0.33467522  0.74590160  1
  Li  Li31  1  0.83599670  0.83335597  0.25775207  1
  Mg  Mg32  1  0.49911285  0.49803022  0.75128004  1
  Mg  Mg33  1  0.66532641  0.25173951  0.25049985  1
  Mg  Mg34  1  -0.00205736  0.25152211  0.75209898  1
  Mg  Mg35  1  0.16793383  0.50040253  0.24661421  1
  Mg  Mg36  1  0.16409829  -0.00052655  0.25512183  1
  Mg  Mg37  1  0.33230095  0.74928183  0.75009720  1
  Mg  Mg38  1  0.83064085  0.49614139  0.74547623  1
  Mg  Mg39  1  0.82964629  0.49899301  0.24850811  1
  Mg  Mg40  1  0.66774971  0.75142516  0.24800175  1
  Mg  Mg41  1  0.16787311  0.49762410  0.74795122  1
  Mg  Mg42  1  0.33149957  0.74961042  0.24885167  1
  Mg  Mg43  1  0.83296971  -0.00212734  0.25408111  1
  Mg  Mg44  1  0.66651642  0.75121975  0.74913796  1
  Mg  Mg45  1  0.50197253  0.49914003  0.24786800  1
  Mg  Mg46  1  -0.00012946  0.74969847  0.75106093  1
  Mg  Mg47  1  -0.00056064  0.74913127  0.24900320  1
  Mg  Mg48  1  0.50130273  0.00010249  0.74872165  1
  Mg  Mg49  1  0.67083983  0.25102904  0.74863494  1
  Mg  Mg50  1  0.49934358  0.00189815  0.24930539  1
  Mg  Mg51  1  0.16708976  0.00080591  0.75659745  1
  Mg  Mg52  1  0.83350313  0.00163782  0.74893854  1
  Mg  Mg53  1  0.16662209  0.83556390  0.75452618  1
  Mg  Mg54  1  0.49843818  0.16862594  0.24941203  1
  Mg  Mg55  1  0.50026993  0.16739269  0.74936093  1
  Mg  Mg56  1  0.49759877  0.66516335  0.24727505  1
  Mg  Mg57  1  0.16748539  0.16920740  0.25262099  1
  Mg  Mg58  1  0.17026659  0.33192925  0.75161180  1
  Mg  Mg59  1  0.00027207  0.08445798  0.25680034  1
  Mg  Mg60  1  0.00169157  0.91633658  0.75461011  1
  Mg  Mg61  1  0.00146778  0.58432816  0.24645401  1
  Mg  Mg62  1  0.17086940  0.16844146  0.75640292  1
  Mg  Mg63  1  -0.00106128  0.41625478  0.25078411  1
  Mg  Mg64  1  0.33182032  0.91685594  0.25159403  1
  Mg  Mg65  1  -0.00297345  0.41493569  0.74915018  1
  Mg  Mg66  1  0.66517603  0.58276968  0.74831867  1
  Mg  Mg67  1  0.33321724  0.58570589  0.24754623  1
  Mg  Mg68  1  0.83027524  0.33466188  0.25171613  1
  Mg  Mg69  1  0.00027904  0.08559143  0.75358068  1
  Mg  Mg70  1  0.49927414  0.33313156  0.75079988  1
  Mg  Mg71  1  0.33119345  0.58232167  0.74879832  1
  Mg  Mg72  1  0.50051510  0.83388108  0.74998992  1
  Mg  Mg73  1  0.16791433  0.33233241  0.25032575  1
  Mg  Mg74  1  0.66635522  0.08449764  0.74625794  1
  Mg  Mg75  1  0.49869023  0.83594431  0.24973648  1
  Mg  Mg76  1  0.83300252  0.83402487  0.75188496  1
  Mg  Mg77  1  0.82968033  0.17007706  0.74712527  1
  Mg  Mg78  1  0.33533250  0.08693380  0.75346086  1
  Mg  Mg79  1  0.33461217  0.41416402  0.24762752  1
  Mg  Mg80  1  -0.00023687  0.58344061  0.74648256  1
  Mg  Mg81  1  0.16862540  0.66517154  0.24764466  1
  Mg  Mg82  1  0.16634564  0.66421850  0.74670358  1
  Mg  Mg83  1  0.33590268  0.41153862  0.75068106  1
  Mg  Mg84  1  0.33237883  0.08674544  0.25005769  1
  Mg  Mg85  1  0.16721847  0.83457093  0.25166323  1
  Mg  Mg86  1  0.49872347  0.33409857  0.24892328  1
  Mg  Mg87  1  0.49908644  0.66599273  0.74953096  1
  Mg  Mg88  1  0.83172164  0.66443094  0.74922693  1
  Mg  Mg89  1  0.33377988  0.91624793  0.75358008  1
  Mg  Mg90  1  0.83513847  0.16641709  0.25607303  1
  Mg  Mg91  1  0.67010850  0.08350337  0.25223602  1
  Mg  Mg92  1  0.83301150  0.66780835  0.24549814  1
  Mg  Mg93  1  0.67078048  0.91569498  0.25103570  1
  Mg  Mg94  1  0.66369170  0.58231907  0.24461662  1
  Mg  Mg95  1  -0.00123346  0.91296380  0.25500079  1
  Fe  Fe96  1  0.68872701  0.33882587  0.60487661  1
  Fe  Fe97  1  0.14089525  0.91497878  0.89533084  1
  Fe  Fe98  1  0.18945704  0.57688621  0.60692749  1
  Fe  Fe99  1  0.47650785  0.41287207  0.38795638  1
  Fe  Fe100  1  0.81364267  0.08066541  0.39421106  1
  Fe  Fe101  1  0.53098325  0.58334326  0.10490509  1
  Fe  Fe102  1  0.13619676  0.91231763  0.39440990  1
  Fe  Fe103  1  0.31349882  0.66432506  0.39129517  1
  Fe  Fe104  1  0.31312596  0.83515887  0.39248970  1
  Fe  Fe105  1  0.19836606  0.57798809  0.10366090  1
  Fe  Fe106  1  0.36354013  0.67323575  0.10469063  1
  Fe  Fe107  1  0.02932091  0.66827000  0.10741339  1
  Fe  Fe108  1  0.97099829  0.34179433  0.39215165  1
  Fe  Fe109  1  0.81060703  0.90863753  0.39180654  1
  Fe  Fe110  1  0.30925735  0.33374212  0.89201059  1
  Fe  Fe111  1  0.48286839  0.41995926  0.89270224  1
  Fe  Fe112  1  0.68909790  0.16720632  0.60638303  1
  Si  Si113  1  0.52783979  0.91834753  0.11323107  1
  Si  Si114  1  0.63818441  0.67150766  0.38169621  1
  Si  Si115  1  0.85786528  0.91539471  0.61653872  1
  Si  Si116  1  0.69231055  0.82994071  0.61447465  1
  Si  Si117  1  0.52181600  0.07569527  0.60983628  1
  Si  Si118  1  0.13988804  0.08730390  0.89229381  1
  Si  Si119  1  0.51515416  0.42426067  0.61083535  1
  Si  Si120  1  0.35456917  0.83343232  0.61594554  1
  Si  Si121  1  0.13896163  0.58497161  0.88304283  1
  Si  Si122  1  0.30822261  0.66494526  0.88443239  1
  Si  Si123  1  0.69173594  0.33068979  0.11535547  1
  Si  Si124  1  0.64313689  0.67185071  0.88412125  1
  Si  Si125  1  0.31220121  0.16146289  0.89103020  1
  Si  Si126  1  0.64094483  0.16623012  0.38434728  1
  Si  Si127  1  0.30793957  0.16753784  0.38436563  1
  Si  Si128  1  0.86596357  0.42124137  0.60988017  1
  Si  Si129  1  0.63991739  0.32824979  0.38315392  1
  Si  Si130  1  0.52160031  0.58881867  0.61425900  1
  Si  Si131  1  0.69070253  0.66450541  0.61324967  1
  Si  Si132  1  0.86191350  0.58034698  0.11085032  1
  Si  Si133  1  0.52252985  0.41156806  0.11140534  1
  Si  Si134  1  0.47979335  0.91376727  0.88655852  1
  Si  Si135  1  0.02266052  0.83921673  0.11244573  1
  Si  Si136  1  0.97836771  0.16882934  0.39414569  1
  Si  Si137  1  0.80255397  0.57949197  0.88429919  1
  Si  Si138  1  0.97306933  0.17192961  0.88735086  1
  Si  Si139  1  0.81161901  0.08237816  0.88612326  1
  Si  Si140  1  0.47893329  0.58980197  0.88558216  1
  Si  Si141  1  0.30443846  0.33378573  0.38533588  1
  Si  Si142  1  0.19262098  0.92093023  0.61868435  1
  Si  Si143  1  0.47407093  0.92675916  0.38593764  1
  Si  Si144  1  0.02355021  0.16631421  0.11802737  1
  Si  Si145  1  0.69276880  0.83436322  0.11412914  1
  Si  Si146  1  0.64420446  0.32504687  0.88723153  1
  Si  Si147  1  0.36014307  0.16137765  0.11378242  1
  Si  Si148  1  0.80212736  0.58674231  0.38173414  1
  Si  Si149  1  0.14306693  0.41932364  0.38546666  1
  Si  Si150  1  0.02270891  0.67212283  0.61109777  1
  Si  Si151  1  0.97461255  0.65692749  0.38302765  1
  Si  Si152  1  0.18955943  0.40650464  0.11007054  1
  Si  Si153  1  0.85961515  0.58677722  0.61268504  1
  Si  Si154  1  0.70011147  0.66817650  0.10886316  1
  Si  Si155  1  0.14442043  0.08501437  0.39082373  1
  Si  Si156  1  0.63391109  0.83728698  0.38686231  1
  Si  Si157  1  0.31384181  0.83100680  0.88976107  1
  Si  Si158  1  0.52026358  0.91073463  0.61397900  1
  Si  Si159  1  0.19454375  0.08672708  0.61951757  1
  Si  Si160  1  0.79920932  0.42081233  0.38589947  1
  Si  Si161  1  0.81057498  0.91805914  0.88581760  1
  Si  Si162  1  0.47588857  0.09003307  0.38386808  1
  Si  Si163  1  0.19002258  0.40608917  0.61146023  1
  Si  Si164  1  0.64519639  0.83400744  0.88476007  1
  Si  Si165  1  0.36054357  0.33008450  0.61412122  1
  Si  Si166  1  0.96913355  0.82766483  0.89008414  1
  Si  Si167  1  0.02570056  0.83737137  0.61667965  1
  Si  Si168  1  0.85462852  0.41602253  0.11318366  1
  Si  Si169  1  0.96965224  0.33779887  0.88453432  1
  Si  Si170  1  0.02228496  0.33237336  0.11571521  1
  Si  Si171  1  0.64363982  0.16134380  0.88534000  1
  Si  Si172  1  0.18887922  0.08840515  0.11575670  1
  Si  Si173  1  0.47794563  0.07933907  0.88660978  1
  Si  Si174  1  0.97265096  0.82010353  0.38972204  1
  Si  Si175  1  0.18921870  0.92456315  0.11569655  1
  Si  Si176  1  0.36232693  0.16382325  0.61601565  1
  Si  Si177  1  0.85852925  0.92097423  0.11719087  1
  Si  Si178  1  0.35564607  0.84418201  0.11103675  1
  Si  Si179  1  0.35893149  0.32612146  0.11447724  1
  Si  Si180  1  0.80593650  0.41584865  0.88279936  1
  Si  Si181  1  0.35833639  0.66884768  0.61330259  1
  Si  Si182  1  0.85890925  0.08440740  0.11696316  1
  Si  Si183  1  0.02782279  0.16382896  0.61989870  1
  Si  Si184  1  0.96910792  0.66183075  0.88391399  1
  Si  Si185  1  0.02547474  0.32790286  0.61690445  1
  Si  Si186  1  0.69290256  0.16737652  0.11528559  1
  Si  Si187  1  0.86404359  0.08178295  0.61539737  1
  Si  Si188  1  0.48167265  0.57873435  0.38762330  1
  Si  Si189  1  0.14164645  0.58181351  0.38461634  1
  Si  Si190  1  0.13602236  0.41815836  0.88649614  1
  Si  Si191  1  0.52764919  0.08358118  0.11342103  1
  O  O192  1  0.26946351  0.12056754  0.08436326  1
  O  O193  1  0.27192429  0.12229907  0.58818437  1
  O  O194  1  0.28602240  0.60768001  0.06314146  1
  O  O195  1  0.28585619  0.61512911  0.57848262  1
  O  O196  1  0.60429176  0.12461339  0.08383056  1
  O  O197  1  0.59755009  0.10315302  0.57498956  1
  O  O198  1  0.62605299  0.61833807  0.07049994  1
  O  O199  1  0.60470452  0.61916079  0.58481906  1
  O  O200  1  0.93810095  0.11943783  0.08590304  1
  O  O201  1  0.95321727  0.10653017  0.59166302  1
  O  O202  1  0.93949313  0.60380949  0.07543530  1
  O  O203  1  0.92801507  0.63798014  0.58409853  1
  O  O204  1  0.10230854  0.35878900  0.08158851  1
  O  O205  1  0.10937103  0.35116907  0.58710859  1
  O  O206  1  0.10312906  0.87974302  0.08536582  1
  O  O207  1  0.10477527  0.87762531  0.59041924  1
  O  O208  1  0.43670149  0.36235528  0.08356590  1
  O  O209  1  0.43084909  0.37458761  0.58055028  1
  O  O210  1  0.43565628  0.88371587  0.08192077  1
  O  O211  1  0.43646487  0.86153644  0.58499192  1
  O  O212  1  0.76906192  0.36885678  0.08329500  1
  O  O213  1  0.78143781  0.38385753  0.57231759  1
  O  O214  1  0.77014305  0.87725860  0.08627367  1
  O  O215  1  0.77110967  0.86969775  0.58669920  1
  O  O216  1  0.26735880  0.36262225  0.08304684  1
  O  O217  1  0.26847882  0.36601590  0.58359709  1
  O  O218  1  0.27232549  0.89731871  0.08598002  1
  O  O219  1  0.27228689  0.88515873  0.58974201  1
  O  O220  1  0.60220472  0.36952830  0.08417417  1
  O  O221  1  0.59377411  0.40083047  0.57697556  1
  O  O222  1  0.60286934  0.87628843  0.08184787  1
  O  O223  1  0.60320385  0.87368697  0.58855248  1
  O  O224  1  0.93498843  0.37830524  0.08439155  1
  O  O225  1  0.94873876  0.38220042  0.58567661  1
  O  O226  1  0.93751710  0.88945712  0.08430904  1
  O  O227  1  0.93777597  0.88009121  0.58759304  1
  O  O228  1  0.10389991  0.13545159  0.08481341  1
  O  O229  1  0.11100906  0.13496921  0.59060452  1
  O  O230  1  0.11015530  0.63546360  0.06179134  1
  O  O231  1  0.09155975  0.63251190  0.57573042  1
  O  O232  1  0.43557311  0.11984128  0.08179120  1
  O  O233  1  0.43326536  0.12036885  0.58239917  1
  O  O234  1  0.45579374  0.65182287  0.06653651  1
  O  O235  1  0.44797342  0.64852288  0.58840975  1
  O  O236  1  0.77102430  0.12799736  0.08591308  1
  O  O237  1  0.78844194  0.13053034  0.57866788  1
  O  O238  1  0.78615000  0.63859112  0.08364660  1
  O  O239  1  0.76740805  0.62448529  0.58385438  1
  O  O240  1  0.06492030  0.11968180  0.42052186  1
  O  O241  1  0.06491365  0.13576019  0.91805562  1
  O  O242  1  0.05027588  0.59912646  0.40993930  1
  O  O243  1  0.06003556  0.62347665  0.91152862  1
  O  O244  1  0.39197364  0.11735095  0.41347937  1
  O  O245  1  0.39698549  0.10965715  0.91703398  1
  O  O246  1  0.40201875  0.59929421  0.42296768  1
  O  O247  1  0.39299130  0.61828576  0.91218617  1
  O  O248  1  0.70918649  0.10843096  0.41842368  1
  O  O249  1  0.72947257  0.11363781  0.91535178  1
  O  O250  1  0.72779388  0.63029530  0.41200844  1
  O  O251  1  0.72604356  0.62187984  0.91312273  1
  O  O252  1  0.21916760  0.36154227  0.41347001  1
  O  O253  1  0.21323299  0.37094923  0.92370294  1
  O  O254  1  0.22534865  0.85799581  0.43638239  1
  O  O255  1  0.24495688  0.86929153  0.92637493  1
  O  O256  1  0.56099243  0.34542008  0.41948563  1
  O  O257  1  0.57633165  0.36008723  0.92704079  1
  O  O258  1  0.54895834  0.86796596  0.41332539  1
  O  O259  1  0.56640208  0.86876826  0.91608476  1
  O  O260  1  0.87964388  0.37952781  0.42821368  1
  O  O261  1  0.89389071  0.37506456  0.91703814  1
  O  O262  1  0.88498197  0.83112088  0.41760193  1
  O  O263  1  0.88893204  0.86567198  0.91830581  1
  O  O264  1  0.06508005  0.40116193  0.42259558  1
  O  O265  1  0.05227954  0.38677738  0.91448959  1
  O  O266  1  0.04291406  0.87537468  0.42847046  1
  O  O267  1  0.05402434  0.86554792  0.92734055  1
  O  O268  1  0.38094293  0.38298699  0.42274991  1
  O  O269  1  0.39687910  0.38950070  0.93457957  1
  O  O270  1  0.39326897  0.91045651  0.41945978  1
  O  O271  1  0.40480437  0.87272527  0.91642875  1
  O  O272  1  0.71527204  0.38654248  0.41044186  1
  O  O273  1  0.73380477  0.36954153  0.91193245  1
  O  O274  1  0.71125615  0.88351543  0.42569312  1
  O  O275  1  0.72585298  0.88703597  0.91182627  1
  O  O276  1  0.22922025  0.13547975  0.41728184  1
  O  O277  1  0.23204416  0.12453312  0.92083307  1
  O  O278  1  0.21049404  0.63867152  0.42004539  1
  O  O279  1  0.22555894  0.63069628  0.91058677  1
  O  O280  1  0.55041665  0.14828070  0.41019933  1
  O  O281  1  0.56537228  0.12345322  0.91653829  1
  O  O282  1  0.56065114  0.63709246  0.41286845  1
  O  O283  1  0.55572979  0.64984429  0.90963793  1
  O  O284  1  0.90228073  0.14273286  0.43144054  1
  O  O285  1  0.89694085  0.12932181  0.91713926  1
  O  O286  1  0.89110455  0.62818060  0.41301714  1
  O  O287  1  0.89398291  0.61848824  0.91262201  1
  O  O288  1  0.17152621  0.00678008  0.08544768  1
  O  O289  1  0.18076997  0.00376894  0.59057660  1
  O  O290  1  0.17579767  0.48198458  0.07180405  1
  O  O291  1  0.16957905  0.48245662  0.57434356  1
  O  O292  1  0.52707177  0.00115742  0.08346601  1
  O  O293  1  0.50178680  -0.00862357  0.58338684  1
  O  O294  1  0.50974347  0.48771222  0.07339733  1
  O  O295  1  0.49193789  0.50941299  0.58545887  1
  O  O296  1  0.84272463  0.00304832  0.08510340  1
  O  O297  1  0.84606749  -0.00247734  0.58964534  1
  O  O298  1  0.83550337  0.49739885  0.08280631  1
  O  O299  1  0.86542953  0.50646324  0.58186124  1
  O  O300  1  0.00256297  0.24853248  0.08973441  1
  O  O301  1  0.00271572  0.24484905  0.59096070  1
  O  O302  1  0.00493901  0.76365430  0.07436829  1
  O  O303  1  0.01604165  0.75656814  0.58565658  1
  O  O304  1  0.35219646  0.24310913  0.08388190  1
  O  O305  1  0.35724387  0.24606809  0.58596879  1
  O  O306  1  0.33449279  0.76928393  0.07349597  1
  O  O307  1  0.33289763  0.75207297  0.58853861  1
  O  O308  1  0.68528609  0.24835576  0.08327814  1
  O  O309  1  0.66328330  0.25197807  0.56125314  1
  O  O310  1  0.68863322  0.75335825  0.08136093  1
  O  O311  1  0.68147986  0.74748104  0.58256303  1
  O  O312  1  0.16278268  0.00766687  0.42589017  1
  O  O313  1  0.14050913  0.00981058  0.92817381  1
  O  O314  1  0.17455783  0.50095665  0.41104645  1
  O  O315  1  0.14682519  0.50318279  0.91232216  1
  O  O316  1  0.50633951  0.00928488  0.41129010  1
  O  O317  1  0.49313457  -0.00389085  0.91570956  1
  O  O318  1  0.51945874  0.50254619  0.41850092  1
  O  O319  1  0.51184782  0.51577920  0.92015495  1
  O  O320  1  0.84641656  -0.00634657  0.43453522  1
  O  O321  1  0.82748423  -0.00008830  0.91694113  1
  O  O322  1  0.80454072  0.50586394  0.41323320  1
  O  O323  1  0.80636855  0.49815836  0.91504871  1
  O  O324  1  0.32308402  0.24968207  0.41317912  1
  O  O325  1  0.32956676  0.23808879  0.92666362  1
  O  O326  1  0.35515194  0.74980285  0.43028291  1
  O  O327  1  0.32592176  0.74664848  0.91413429  1
  O  O328  1  0.67399074  0.24699800  0.40878789  1
  O  O329  1  0.66270615  0.24143027  0.91740850  1
  O  O330  1  0.64782345  0.75303352  0.41341310  1
  O  O331  1  0.66730357  0.75300510  0.91546456  1
  O  O332  1  1.00646568  0.24913011  0.42057846  1
  O  O333  1  0.97752367  0.25487548  0.91565114  1
  O  O334  1  1.00321699  0.73596076  0.41404777  1
  O  O335  1  0.96823124  0.74303967  0.91417351  1
  O  O336  1  0.20853007  0.08593383  0.19563760  1
  O  O337  1  0.21152036  0.08364341  0.70005293  1
  O  O338  1  0.21009061  0.58154597  0.19582175  1
  O  O339  1  0.20962677  0.58252817  0.69905551  1
  O  O340  1  0.54354198  0.08379907  0.19341346  1
  O  O341  1  0.54052012  0.07973695  0.69115680  1
  O  O342  1  0.54368526  0.58471522  0.19702483  1
  O  O343  1  0.54295566  0.58748991  0.69480097  1
  O  O344  1  0.87785456  0.08434854  0.19663851  1
  O  O345  1  0.88026401  0.08301275  0.69676082  1
  O  O346  1  0.87709362  0.58143107  0.19156608  1
  O  O347  1  0.87661683  0.58637023  0.69326864  1
  O  O348  1  0.04539817  0.33970320  0.19436426  1
  O  O349  1  0.04361605  0.33171910  0.69742437  1
  O  O350  1  0.04080324  0.83550565  0.19277347  1
  O  O351  1  0.04203832  0.83428765  0.69740577  1
  O  O352  1  0.37627251  0.33027770  0.19352518  1
  O  O353  1  0.37900129  0.33226989  0.69345372  1
  O  O354  1  0.37802944  0.84071826  0.19156446  1
  O  O355  1  0.37442588  0.83427122  0.69689739  1
  O  O356  1  0.71084820  0.32982534  0.19456832  1
  O  O357  1  0.71472544  0.32409549  0.69313910  1
  O  O358  1  0.70293724  0.83374244  0.19296764  1
  O  O359  1  0.71477677  0.82548834  0.69383524  1
  O  O360  1  0.20868116  0.41229118  0.19069109  1
  O  O361  1  0.20799465  0.41403899  0.69215428  1
  O  O362  1  0.20851754  0.92251822  0.19539983  1
  O  O363  1  0.21158889  0.91838045  0.69918520  1
  O  O364  1  0.53950318  0.41453991  0.19098710  1
  O  O365  1  0.53094147  0.42006848  0.69057654  1
  O  O366  1  0.54381743  0.91838212  0.19335736  1
  O  O367  1  0.53265084  0.91422336  0.69355360  1
  O  O368  1  0.87294924  0.41713032  0.19280327  1
  O  O369  1  0.88121388  0.42295056  0.69005256  1
  O  O370  1  0.87955798  0.92132293  0.19619983  1
  O  O371  1  0.87766644  0.91405325  0.69727316  1
  O  O372  1  0.04560194  0.15936689  0.19691294  1
  O  O373  1  0.04665451  0.16505410  0.70051760  1
  O  O374  1  0.04540833  0.66712787  0.19920658  1
  O  O375  1  0.04134494  0.66884245  0.69260793  1
  O  O376  1  0.37998287  0.15942358  0.19279535  1
  O  O377  1  0.38082518  0.16037186  0.69562972  1
  O  O378  1  0.37886321  0.66951881  0.19730030  1
  O  O379  1  0.37535100  0.66809340  0.69474689  1
  O  O380  1  0.70758839  0.16648118  0.19492785  1
  O  O381  1  0.71006199  0.16508764  0.69919234  1
  O  O382  1  0.71023224  0.66817108  0.18946931  1
  O  O383  1  0.70973978  0.66772844  0.69372109  1
  O  O384  1  0.12542696  0.08443359  0.30959857  1
  O  O385  1  0.12316146  0.08429367  0.81114910  1
  O  O386  1  0.12313641  0.58163447  0.30397211  1
  O  O387  1  0.11997444  0.58493452  0.80255179  1
  O  O388  1  0.45603962  0.08583920  0.30329399  1
  O  O389  1  0.45866663  0.08100664  0.80632805  1
  O  O390  1  0.45892484  0.58238873  0.30649805  1
  O  O391  1  0.45647101  0.58736728  0.80436921  1
  O  O392  1  0.78899828  0.08233611  0.30097293  1
  O  O393  1  0.79384516  0.08156623  0.80636499  1
  O  O394  1  0.78734209  0.58586110  0.30157580  1
  O  O395  1  0.78788713  0.58352727  0.80389877  1
  O  O396  1  0.28844696  0.33670143  0.30526918  1
  O  O397  1  0.28704655  0.33500555  0.80097491  1
  O  O398  1  0.28977174  0.83481747  0.29888131  1
  O  O399  1  0.29237391  0.83367584  0.80843086  1
  O  O400  1  0.61904348  0.32900141  0.30304213  1
  O  O401  1  0.61908468  0.32323504  0.80784944  1
  O  O402  1  0.62076194  0.83671671  0.30584449  1
  O  O403  1  0.62054404  0.82840585  0.80567362  1
  O  O404  1  0.94695848  0.34444277  0.30217721  1
  O  O405  1  0.95762558  0.33447530  0.80503920  1
  O  O406  1  0.96263490  0.82753491  0.30916579  1
  O  O407  1  0.95616937  0.83124863  0.80883298  1
  O  O408  1  0.12353515  0.41744838  0.30441960  1
  O  O409  1  0.12085423  0.41737449  0.80526703  1
  O  O410  1  0.12119824  0.91565924  0.30175141  1
  O  O411  1  0.12222026  0.91636189  0.80323866  1
  O  O412  1  0.45463579  0.41623311  0.29660275  1
  O  O413  1  0.45646776  0.41642576  0.80064348  1
  O  O414  1  0.45687034  0.92210233  0.30456060  1
  O  O415  1  0.45909840  0.91517669  0.80622886  1
  O  O416  1  0.79060934  0.41953722  0.30604700  1
  O  O417  1  0.79799051  0.42088849  0.80467078  1
  O  O418  1  0.78678718  0.91772161  0.30088689  1
  O  O419  1  0.80038221  0.91791992  0.80658120  1
  O  O420  1  0.28915712  0.16382376  0.30479641  1
  O  O421  1  0.29024509  0.16046837  0.81087346  1
  O  O422  1  0.28868027  0.66756054  0.29927151  1
  O  O423  1  0.28942653  0.66774732  0.80372696  1
  O  O424  1  0.62180443  0.16481640  0.30302127  1
  O  O425  1  0.62222279  0.16180957  0.80550602  1
  O  O426  1  0.62310168  0.67016367  0.30167396  1
  O  O427  1  0.62591364  0.67001634  0.80349337  1
  O  O428  1  0.95343038  0.15868714  0.31393562  1
  O  O429  1  0.95605763  0.16727344  0.80730624  1
  O  O430  1  0.95342970  0.66190767  0.30297484  1
  O  O431  1  0.95394782  0.66470149  0.80321435  1
  F  F432  1  0.04359407  0.00246955  0.20482322  1
  F  F433  1  0.04620748  0.00150246  0.70543489  1
  F  F434  1  0.04441697  0.49864643  0.20037861  1
  F  F435  1  0.04531007  0.49974976  0.70085463  1
  F  F436  1  0.37769071  0.00166940  0.20108153  1
  F  F437  1  0.37673681  -0.00082523  0.70546218  1
  F  F438  1  0.37707589  0.50089713  0.19882520  1
  F  F439  1  0.37606269  0.50177205  0.70213005  1
  F  F440  1  0.70850426  0.00081308  0.19744793  1
  F  F441  1  0.71841867  0.00724526  0.69743276  1
  F  F442  1  0.71435125  0.50432484  0.19658424  1
  F  F443  1  0.71596145  0.51264866  0.69470869  1
  F  F444  1  0.20513171  0.24862044  0.19860224  1
  F  F445  1  0.20509055  0.24593074  0.70270833  1
  F  F446  1  0.20876434  0.75373719  0.19745601  1
  F  F447  1  0.21041143  0.75352347  0.70349692  1
  F  F448  1  0.54509642  0.24757160  0.19807933  1
  F  F449  1  0.54500628  0.24799422  0.70114628  1
  F  F450  1  0.54562331  0.75437485  0.20105068  1
  F  F451  1  0.54447411  0.75057238  0.70092226  1
  F  F452  1  0.86543730  0.24739895  0.20069471  1
  F  F453  1  0.88447333  0.24461609  0.70072715  1
  F  F454  1  0.88074951  0.74746275  0.19922885  1
  F  F455  1  0.87878098  0.75010555  0.70320656  1
  F  F456  1  0.28817529  0.00304819  0.29738573  1
  F  F457  1  0.29029491  -0.00051100  0.80261866  1
  F  F458  1  0.28840157  0.49741707  0.29445371  1
  F  F459  1  0.28735586  0.49899561  0.79816019  1
  F  F460  1  0.61932273  0.00023224  0.29519282  1
  F  F461  1  0.61747191  0.00801525  0.79994221  1
  F  F462  1  0.62266885  0.50284979  0.29626461  1
  F  F463  1  0.61768450  0.51028845  0.79947574  1
  F  F464  1  0.95568021  -0.00113811  0.30108261  1
  F  F465  1  0.95543985  0.00034498  0.80030601  1
  F  F466  1  0.95241539  0.50252977  0.29461617  1
  F  F467  1  0.95403540  0.50275665  0.79553021  1
  F  F468  1  0.13511529  0.25062209  0.30400368  1
  F  F469  1  0.11956299  0.24996874  0.80237433  1
  F  F470  1  0.12213265  0.75084317  0.29649323  1
  F  F471  1  0.12082904  0.74840539  0.79825630  1
  F  F472  1  0.45677647  0.24881630  0.29611614  1
  F  F473  1  0.45859166  0.24659303  0.79920791  1
  F  F474  1  0.45640164  0.75394915  0.29625039  1
  F  F475  1  0.45424977  0.75092182  0.79736951  1
  F  F476  1  0.78518739  0.25003333  0.30028588  1
  F  F477  1  0.78879581  0.24288650  0.80472861  1
  F  F478  1  0.78442460  0.74462991  0.29630185  1
  F  F479  1  0.78858754  0.74857639  0.79917106  1
