# generated using pymatgen
data_K24Na3Li5Mg64Fe17Si79(O5F)48
_symmetry_space_group_name_H-M   'P 1'
_cell_length_a   16.10487094
_cell_length_b   18.60032495
_cell_length_c   20.58149601
_cell_angle_alpha   89.96406385
_cell_angle_beta   100.01085774
_cell_angle_gamma   90.04629725
_symmetry_Int_Tables_number   1
_chemical_formula_structural   K24Na3Li5Mg64Fe17Si79(O5F)48
_chemical_formula_sum   'K24 Na3 Li5 Mg64 Fe17 Si79 O240 F48'
_cell_volume   6071.43659146
_cell_formula_units_Z   1
loop_
 _symmetry_equiv_pos_site_id
 _symmetry_equiv_pos_as_xyz
  1  'x, y, z'
loop_
 _atom_site_type_symbol
 _atom_site_label
 _atom_site_symmetry_multiplicity
 _atom_site_fract_x
 _atom_site_fract_y
 _atom_site_fract_z
 _atom_site_occupancy
  K  K0  1  -0.00240099  -0.01111879  -0.00342377  1
  K  K1  1  0.00330610  -0.01409202  0.50950265  1
  K  K2  1  0.00643511  0.50192025  -0.00611183  1
  K  K3  1  -0.00013249  0.50945449  0.50946886  1
  K  K4  1  0.32237959  -0.00848653  0.00106331  1
  K  K5  1  0.34526638  -0.00023993  0.50232848  1
  K  K6  1  0.32494964  0.51781817  0.00618397  1
  K  K7  1  0.33357684  0.51064296  0.50620102  1
  K  K8  1  0.66314829  -0.00903360  -0.00109635  1
  K  K9  1  0.64800910  -0.00976853  0.50304454  1
  K  K10  1  0.64435738  0.51015832  -0.00360154  1
  K  K11  1  0.66561526  0.50434884  0.51261269  1
  K  K12  1  0.16877064  0.25139758  0.00034241  1
  K  K13  1  0.17905363  0.25365092  0.50352584  1
  K  K14  1  0.17206774  0.75075080  -0.00496089  1
  K  K15  1  0.16805870  0.75470731  0.51575175  1
  K  K16  1  0.49947941  0.25286920  -0.00044243  1
  K  K17  1  0.50753757  0.24282288  0.50433766  1
  K  K18  1  0.50421306  0.74222099  0.00066848  1
  K  K19  1  0.48998572  0.74010656  0.50043159  1
  K  K20  1  0.83224087  0.25499989  -0.00543311  1
  K  K21  1  0.82353346  0.25260441  0.50540578  1
  K  K22  1  0.82027617  0.74438283  -0.01471110  1
  K  K23  1  0.83192245  0.74334659  0.51329933  1
  Na  Na24  1  0.66082062  0.74847326  0.24597150  1
  Na  Na25  1  0.16890557  0.82674841  0.75154074  1
  Na  Na26  1  0.49834379  0.67218003  0.24503391  1
  Li  Li27  1  0.33190409  0.74689083  0.25001116  1
  Li  Li28  1  0.83410677  0.50854370  0.75287851  1
  Li  Li29  1  0.83459789  0.65940639  0.75322034  1
  Li  Li30  1  0.16651320  0.66846934  0.75529670  1
  Li  Li31  1  0.17664908  0.66915277  0.24572010  1
  Mg  Mg32  1  0.50048174  0.50239473  0.24607293  1
  Mg  Mg33  1  0.33349163  0.24993459  0.24663661  1
  Mg  Mg34  1  0.83297753  -0.00115659  0.25205499  1
  Mg  Mg35  1  0.16911907  0.50502694  0.24751595  1
  Mg  Mg36  1  0.00145698  0.25123339  0.24922821  1
  Mg  Mg37  1  0.16776765  0.00027320  0.24950556  1
  Mg  Mg38  1  0.16661925  0.50103876  0.74885276  1
  Mg  Mg39  1  0.66668136  0.25130370  0.24964271  1
  Mg  Mg40  1  0.83428823  -0.00274131  0.75274686  1
  Mg  Mg41  1  0.49739495  0.00022308  0.25220952  1
  Mg  Mg42  1  0.16816703  -0.00322537  0.75218128  1
  Mg  Mg43  1  0.00028582  0.25202509  0.74890235  1
  Mg  Mg44  1  0.83522460  0.50188099  0.25100617  1
  Mg  Mg45  1  -0.00041066  0.74541086  0.75449920  1
  Mg  Mg46  1  0.50039132  0.50020100  0.74702731  1
  Mg  Mg47  1  0.32864165  0.74947351  0.74622757  1
  Mg  Mg48  1  0.33437860  0.24978666  0.74589138  1
  Mg  Mg49  1  0.66850087  0.74560094  0.75366736  1
  Mg  Mg50  1  0.00260355  0.74940986  0.25319541  1
  Mg  Mg51  1  0.67045117  0.25118328  0.74447642  1
  Mg  Mg52  1  0.50295799  -0.00141698  0.74728724  1
  Mg  Mg53  1  0.67059194  0.41824510  0.74381220  1
  Mg  Mg54  1  0.83360451  0.33527242  0.24960978  1
  Mg  Mg55  1  0.33143863  0.91386370  0.25359123  1
  Mg  Mg56  1  0.16830944  0.16573642  0.24986626  1
  Mg  Mg57  1  0.16719496  0.16581032  0.75003195  1
  Mg  Mg58  1  0.49919018  0.66342752  0.74842381  1
  Mg  Mg59  1  0.83420941  0.82926988  0.75600551  1
  Mg  Mg60  1  0.00233948  0.41766771  0.24999511  1
  Mg  Mg61  1  0.83175060  0.83283421  0.25267573  1
  Mg  Mg62  1  0.49681073  0.33594056  0.24408270  1
  Mg  Mg63  1  0.33178682  0.41579233  0.74618315  1
  Mg  Mg64  1  0.16746587  0.82943291  0.25209419  1
  Mg  Mg65  1  0.66849775  0.91270704  0.75225235  1
  Mg  Mg66  1  0.00172332  0.08255061  0.75216896  1
  Mg  Mg67  1  0.83357014  0.33805582  0.74642343  1
  Mg  Mg68  1  0.00266767  0.91193069  0.75445395  1
  Mg  Mg69  1  0.83245698  0.66739718  0.25115942  1
  Mg  Mg70  1  0.32839493  0.58530705  0.74752191  1
  Mg  Mg71  1  0.16720993  0.33483146  0.74860721  1
  Mg  Mg72  1  0.49513518  0.83197805  0.25133552  1
  Mg  Mg73  1  0.83422128  0.16588114  0.25206764  1
  Mg  Mg74  1  0.49863393  0.83177968  0.75214861  1
  Mg  Mg75  1  0.66334179  0.91516445  0.25154560  1
  Mg  Mg76  1  0.66502522  0.08480357  0.25132448  1
  Mg  Mg77  1  0.50183988  0.16512975  0.74505183  1
  Mg  Mg78  1  0.00086221  0.91562126  0.25242301  1
  Mg  Mg79  1  0.66772252  0.08308760  0.74763350  1
  Mg  Mg80  1  0.00143996  0.08457702  0.25071153  1
  Mg  Mg81  1  0.33327272  0.08303483  0.74619915  1
  Mg  Mg82  1  0.49621282  0.16540481  0.24889613  1
  Mg  Mg83  1  0.66412768  0.58425412  0.24659828  1
  Mg  Mg84  1  0.33288106  0.08478326  0.25000745  1
  Mg  Mg85  1  0.33369200  0.91421669  0.75082996  1
  Mg  Mg86  1  0.33255743  0.58936091  0.24670223  1
  Mg  Mg87  1  0.33110337  0.41847665  0.24512817  1
  Mg  Mg88  1  0.50183924  0.33389943  0.74323339  1
  Mg  Mg89  1  0.00380541  0.58602878  0.25159753  1
  Mg  Mg90  1  -0.00124038  0.58398940  0.75323713  1
  Mg  Mg91  1  0.83410167  0.16571022  0.74850480  1
  Mg  Mg92  1  0.66835533  0.58381192  0.74888527  1
  Mg  Mg93  1  0.16799604  0.33704584  0.24851947  1
  Mg  Mg94  1  0.66345998  0.41771393  0.24582548  1
  Mg  Mg95  1  -0.00070922  0.41904221  0.74812327  1
  Fe  Fe96  1  0.19052145  0.41566575  0.60764385  1
  Fe  Fe97  1  0.35748315  0.16323609  0.10705981  1
  Fe  Fe98  1  0.19048012  0.92375743  0.60874803  1
  Fe  Fe99  1  0.35699429  0.83407773  0.60925085  1
  Fe  Fe100  1  0.69667293  0.33299258  0.60595102  1
  Fe  Fe101  1  0.19077030  0.42217128  0.10779036  1
  Fe  Fe102  1  0.31556980  0.83924568  0.89500851  1
  Fe  Fe103  1  0.52605340  0.07764693  0.60923892  1
  Fe  Fe104  1  0.52108554  0.58327445  0.60781930  1
  Fe  Fe105  1  0.80813323  0.91746952  0.89175692  1
  Fe  Fe106  1  0.18553100  0.08091605  0.10882532  1
  Fe  Fe107  1  0.47504451  0.08267129  0.39178232  1
  Fe  Fe108  1  0.52108352  0.58690194  0.10416969  1
  Fe  Fe109  1  0.52432699  0.41380926  0.10551927  1
  Fe  Fe110  1  0.13961983  0.58352811  0.88940281  1
  Fe  Fe111  1  0.63560407  0.66325858  0.89073139  1
  Fe  Fe112  1  0.30967415  0.66960257  0.88937243  1
  Si  Si113  1  0.35523077  0.84020786  0.11750199  1
  Si  Si114  1  0.35085194  0.67539540  0.11258706  1
  Si  Si115  1  0.02329598  0.16955828  0.61660131  1
  Si  Si116  1  0.69961843  0.33152854  0.11205011  1
  Si  Si117  1  0.97462737  0.16572046  0.38680917  1
  Si  Si118  1  0.86636770  0.41814026  0.61010359  1
  Si  Si119  1  0.02177989  0.66827468  0.11807066  1
  Si  Si120  1  0.36100429  0.33210511  0.61019790  1
  Si  Si121  1  0.14525450  0.41225355  0.88607946  1
  Si  Si122  1  0.97513426  0.82953578  0.89148366  1
  Si  Si123  1  0.85933286  0.91789256  0.11697987  1
  Si  Si124  1  0.69911967  0.16491671  0.11622768  1
  Si  Si125  1  0.02075875  0.82953918  0.11775821  1
  Si  Si126  1  0.80549712  0.91567102  0.38832288  1
  Si  Si127  1  0.47401341  0.58138757  0.38447324  1
  Si  Si128  1  0.18289879  0.91218936  0.11564791  1
  Si  Si129  1  0.30693134  0.33644429  0.38484009  1
  Si  Si130  1  0.81079458  0.08803093  0.88743653  1
  Si  Si131  1  0.80414096  0.58145447  0.88749781  1
  Si  Si132  1  0.13953761  0.08322619  0.38717225  1
  Si  Si133  1  0.14156116  0.91644190  0.38693733  1
  Si  Si134  1  0.52354732  0.41308101  0.60757289  1
  Si  Si135  1  0.52495953  0.91667685  0.11653801  1
  Si  Si136  1  0.64611160  0.17057861  0.38756807  1
  Si  Si137  1  0.30451177  0.82956450  0.38623435  1
  Si  Si138  1  0.34905131  0.66523115  0.60866790  1
  Si  Si139  1  0.13959997  0.41837208  0.38599439  1
  Si  Si140  1  0.80886511  0.08270503  0.38727390  1
  Si  Si141  1  0.30716313  0.66335490  0.38410773  1
  Si  Si142  1  0.30323048  0.17080068  0.38885579  1
  Si  Si143  1  0.97359499  0.83476189  0.38740259  1
  Si  Si144  1  0.97526833  0.33515315  0.88361922  1
  Si  Si145  1  0.86329621  0.08283224  0.11724874  1
  Si  Si146  1  0.64315178  0.33675008  0.38331540  1
  Si  Si147  1  0.47397471  0.90983081  0.38988741  1
  Si  Si148  1  0.69850397  0.83097695  0.61757993  1
  Si  Si149  1  0.80991777  0.41826459  0.38501035  1
  Si  Si150  1  0.02261132  0.66766633  0.61717726  1
  Si  Si151  1  0.63580500  0.83592166  0.89096607  1
  Si  Si152  1  0.18665575  0.59216565  0.11208136  1
  Si  Si153  1  0.18472968  0.58212277  0.61166688  1
  Si  Si154  1  0.53309463  0.08318942  0.11243860  1
  Si  Si155  1  0.81037614  0.41832830  0.88285531  1
  Si  Si156  1  0.35567415  0.16719122  0.61080152  1
  Si  Si157  1  0.52965136  0.90597868  0.61327079  1
  Si  Si158  1  0.02329012  0.33392710  0.11387417  1
  Si  Si159  1  0.69923149  0.16022524  0.60930962  1
  Si  Si160  1  0.46576264  0.57403181  0.88446835  1
  Si  Si161  1  0.86173100  0.91525647  0.61769532  1
  Si  Si162  1  0.64477901  0.33537839  0.88130427  1
  Si  Si163  1  0.02488815  0.33051043  0.61209855  1
  Si  Si164  1  0.86205759  0.58307793  0.11607986  1
  Si  Si165  1  0.97580433  0.66808373  0.38740493  1
  Si  Si166  1  0.86237392  0.41829106  0.11625546  1
  Si  Si167  1  0.02141363  0.83090616  0.61529131  1
  Si  Si168  1  0.97493135  0.33248840  0.38603361  1
  Si  Si169  1  0.69457173  0.83679263  0.11717901  1
  Si  Si170  1  0.69600021  0.66578674  0.61357758  1
  Si  Si171  1  0.13683188  0.91983013  0.89085300  1
  Si  Si172  1  0.30976624  0.32766649  0.88316740  1
  Si  Si173  1  0.70049230  0.66798830  0.11263682  1
  Si  Si174  1  0.02174606  0.17188080  0.11426314  1
  Si  Si175  1  0.35583289  0.33162188  0.10918697  1
  Si  Si176  1  0.63948360  0.82987912  0.38672829  1
  Si  Si177  1  0.47641288  0.92694228  0.88674729  1
  Si  Si178  1  0.96994147  0.66352444  0.88863125  1
  Si  Si179  1  0.64495964  0.17205941  0.88247511  1
  Si  Si180  1  0.97591628  0.17089329  0.88478129  1
  Si  Si181  1  0.31087821  0.16286643  0.88357184  1
  Si  Si182  1  0.48048760  0.08885394  0.88275971  1
  Si  Si183  1  0.86294285  0.58312609  0.61751183  1
  Si  Si184  1  0.81002406  0.58417339  0.38730387  1
  Si  Si185  1  0.64320856  0.66205387  0.38600260  1
  Si  Si186  1  0.47533349  0.40955786  0.88044059  1
  Si  Si187  1  0.14088401  0.58309076  0.38594234  1
  Si  Si188  1  0.18556408  0.09119819  0.61246183  1
  Si  Si189  1  0.47403533  0.41667706  0.38367664  1
  Si  Si190  1  0.14065636  0.08507188  0.88630889  1
  Si  Si191  1  0.86644247  0.07970363  0.61652826  1
  O  O192  1  0.27685894  0.09793707  0.06867899  1
  O  O193  1  0.26837775  0.12182905  0.58359985  1
  O  O194  1  0.26347709  0.63034622  0.08161390  1
  O  O195  1  0.26594021  0.61290222  0.58147477  1
  O  O196  1  0.62045978  0.11247806  0.08691148  1
  O  O197  1  0.62574152  0.10412511  0.57925347  1
  O  O198  1  0.61791655  0.62827757  0.07459626  1
  O  O199  1  0.61399401  0.62367375  0.57435396  1
  O  O200  1  0.94210991  0.11654459  0.08757505  1
  O  O201  1  0.95015783  0.10968212  0.58824100  1
  O  O202  1  0.94598727  0.61086175  0.08800803  1
  O  O203  1  0.93923565  0.61960261  0.58296503  1
  O  O204  1  0.10184340  0.35394969  0.07894699  1
  O  O205  1  0.10589734  0.34530951  0.57755917  1
  O  O206  1  0.10574112  0.85310493  0.08963764  1
  O  O207  1  0.09481222  0.86346649  0.57943806  1
  O  O208  1  0.44472354  0.34023539  0.08212268  1
  O  O209  1  0.45000120  0.35028721  0.58505165  1
  O  O210  1  0.43470203  0.87782778  0.08695841  1
  O  O211  1  0.46201823  0.84624546  0.58171170  1
  O  O212  1  0.78726513  0.36090944  0.08805388  1
  O  O213  1  0.78784595  0.37184160  0.57081853  1
  O  O214  1  0.77037869  0.87831029  0.08580667  1
  O  O215  1  0.77655479  0.86986249  0.58807715  1
  O  O216  1  0.29061426  0.39581693  0.07970550  1
  O  O217  1  0.28809780  0.38574604  0.57474174  1
  O  O218  1  0.26914920  0.88749663  0.08841180  1
  O  O219  1  0.27918313  0.90040908  0.56686152  1
  O  O220  1  0.62284611  0.37774590  0.07449649  1
  O  O221  1  0.60252448  0.38868883  0.57280251  1
  O  O222  1  0.60361975  0.87619108  0.08820004  1
  O  O223  1  0.61821522  0.88132900  0.58735028  1
  O  O224  1  0.94540069  0.39094188  0.08732355  1
  O  O225  1  0.95109482  0.38847809  0.58164387  1
  O  O226  1  0.94011769  0.88318183  0.08913546  1
  O  O227  1  0.93531062  0.87837447  0.58324327  1
  O  O228  1  0.09947501  0.15122407  0.07907217  1
  O  O229  1  0.10989022  0.15225737  0.58823875  1
  O  O230  1  0.10534991  0.64696154  0.08849420  1
  O  O231  1  0.10334282  0.63693541  0.58632876  1
  O  O232  1  0.45916487  0.13494510  0.07701406  1
  O  O233  1  0.43204409  0.13701337  0.57736816  1
  O  O234  1  0.42638574  0.64611410  0.07708959  1
  O  O235  1  0.42473849  0.63592326  0.57195933  1
  O  O236  1  0.78051898  0.13143552  0.08802420  1
  O  O237  1  0.78796259  0.13131178  0.58544416  1
  O  O238  1  0.78490499  0.63628761  0.08483634  1
  O  O239  1  0.77810883  0.62978129  0.58581974  1
  O  O240  1  0.06075671  0.12146327  0.41649614  1
  O  O241  1  0.06448280  0.12904796  0.91414144  1
  O  O242  1  0.06489348  0.62636425  0.41598373  1
  O  O243  1  0.04365468  0.61120091  0.92504002  1
  O  O244  1  0.38700784  0.13026719  0.42433611  1
  O  O245  1  0.39808789  0.11867221  0.91285779  1
  O  O246  1  0.39796683  0.62280432  0.41524463  1
  O  O247  1  0.38120401  0.59005365  0.91360133  1
  O  O248  1  0.73669768  0.12829271  0.41582287  1
  O  O249  1  0.72981192  0.12661083  0.91432286  1
  O  O250  1  0.73333670  0.62024558  0.41986286  1
  O  O251  1  0.72899450  0.60522028  0.92644316  1
  O  O252  1  0.23097562  0.37998178  0.41350456  1
  O  O253  1  0.22746933  0.35794643  0.91122820  1
  O  O254  1  0.22705886  0.87119402  0.41629407  1
  O  O255  1  0.22055959  0.87956604  0.92645421  1
  O  O256  1  0.56312952  0.37272255  0.41129901  1
  O  O257  1  0.56159452  0.36333998  0.91019169  1
  O  O258  1  0.56177362  0.86376520  0.41934823  1
  O  O259  1  0.55229102  0.87117491  0.91663103  1
  O  O260  1  0.89650533  0.37190918  0.41422900  1
  O  O261  1  0.89496586  0.36893931  0.91334552  1
  O  O262  1  0.89591383  0.87481679  0.41710121  1
  O  O263  1  0.90052229  0.86011073  0.92801764  1
  O  O264  1  0.06444186  0.37319026  0.41497053  1
  O  O265  1  0.06304314  0.37604231  0.91423070  1
  O  O266  1  0.06082215  0.87961083  0.41577108  1
  O  O267  1  0.05758943  0.88126952  0.91943341  1
  O  O268  1  0.39775867  0.37539524  0.41403232  1
  O  O269  1  0.39758697  0.37144227  0.91106316  1
  O  O270  1  0.39502347  0.86834802  0.41668918  1
  O  O271  1  0.39673927  0.91295220  0.92194828  1
  O  O272  1  0.72975376  0.38260021  0.41297656  1
  O  O273  1  0.72965531  0.38187800  0.91266767  1
  O  O274  1  0.72889239  0.87483218  0.41729447  1
  O  O275  1  0.71288338  0.88840887  0.92459739  1
  O  O276  1  0.22195905  0.13220324  0.41603599  1
  O  O277  1  0.23106234  0.12668643  0.91241052  1
  O  O278  1  0.23185929  0.62063546  0.41592104  1
  O  O279  1  0.22084637  0.64458353  0.93088019  1
  O  O280  1  0.57478959  0.13572661  0.42311270  1
  O  O281  1  0.56152345  0.14229281  0.91086347  1
  O  O282  1  0.56390356  0.62361482  0.41500237  1
  O  O283  1  0.54232585  0.62409947  0.92128200  1
  O  O284  1  0.89867211  0.12383729  0.41570067  1
  O  O285  1  0.89492854  0.13908593  0.91412759  1
  O  O286  1  0.89855762  0.62789985  0.41720149  1
  O  O287  1  0.88393041  0.63580583  0.91595846  1
  O  O288  1  0.14681015  -0.01296822  0.08220168  1
  O  O289  1  0.15240933  0.01777131  0.57631783  1
  O  O290  1  0.16043094  0.51539176  0.07624560  1
  O  O291  1  0.15711476  0.50654003  0.57289694  1
  O  O292  1  0.52251508  -0.00097334  0.08561914  1
  O  O293  1  0.50376972  -0.01617561  0.57916783  1
  O  O294  1  0.49666587  0.49886318  0.06186537  1
  O  O295  1  0.49038310  0.48971755  0.57578760  1
  O  O296  1  0.84863111  0.00086272  0.08885098  1
  O  O297  1  0.84988452  -0.00208961  0.58708715  1
  O  O298  1  0.84023484  0.50016418  0.08893769  1
  O  O299  1  0.85217205  0.50209505  0.58340201  1
  O  O300  1  -0.01466055  0.25299288  0.09092231  1
  O  O301  1  -0.01216826  0.24842917  0.58860666  1
  O  O302  1  -0.00832205  0.74924209  0.08987008  1
  O  O303  1  0.00182115  0.74860705  0.58506607  1
  O  O304  1  0.31461915  0.25491139  0.08127797  1
  O  O305  1  0.33397469  0.24986026  0.58406043  1
  O  O306  1  0.33506761  0.76014534  0.08699856  1
  O  O307  1  0.32060419  0.74321647  0.57721749  1
  O  O308  1  0.68839170  0.24652375  0.08615179  1
  O  O309  1  0.68063886  0.23787739  0.57384635  1
  O  O310  1  0.69450772  0.75434509  0.09051456  1
  O  O311  1  0.69164227  0.75036223  0.58477117  1
  O  O312  1  0.14986265  0.00016542  0.41549738  1
  O  O313  1  0.14210403  0.00532744  0.91921916  1
  O  O314  1  0.14154023  0.50007912  0.41631699  1
  O  O315  1  0.16568594  0.48766795  0.92228227  1
  O  O316  1  0.48620863  -0.01208369  0.42534653  1
  O  O317  1  0.51034289  0.00969688  0.91182767  1
  O  O318  1  0.48397033  0.49816655  0.41556276  1
  O  O319  1  0.49358764  0.48994533  0.90855792  1
  O  O320  1  0.81423242  -0.00036949  0.41636813  1
  O  O321  1  0.82940335  0.01266530  0.92503241  1
  O  O322  1  0.82426089  0.50036915  0.41474918  1
  O  O323  1  0.83115899  0.49773459  0.91521192  1
  O  O324  1  0.30569652  0.25515386  0.41622541  1
  O  O325  1  0.32460030  0.24504024  0.91287998  1
  O  O326  1  0.31003584  0.74628516  0.41426262  1
  O  O327  1  0.35131800  0.75282471  0.93362794  1
  O  O328  1  0.66137901  0.25508402  0.41308161  1
  O  O329  1  0.66320983  0.25364189  0.91246464  1
  O  O330  1  0.65442281  0.74633693  0.41388408  1
  O  O331  1  0.65170415  0.75739451  0.92521374  1
  O  O332  1  0.98128431  0.24906798  0.41479228  1
  O  O333  1  0.98699690  0.25289658  0.91391721  1
  O  O334  1  0.98214417  0.75163441  0.41580737  1
  O  O335  1  0.99186060  0.74639783  0.91790295  1
  O  O336  1  0.20909022  0.08365168  0.20209975  1
  O  O337  1  0.20720669  0.08782556  0.69344677  1
  O  O338  1  0.20825578  0.58320299  0.19193002  1
  O  O339  1  0.20982388  0.57409876  0.69043129  1
  O  O340  1  0.54787435  0.08438227  0.19357369  1
  O  O341  1  0.54758745  0.08290113  0.70066161  1
  O  O342  1  0.55037505  0.57552688  0.19434206  1
  O  O343  1  0.54393418  0.58092969  0.69866028  1
  O  O344  1  0.87809950  0.08343289  0.19798136  1
  O  O345  1  0.88060812  0.08178705  0.69694486  1
  O  O346  1  0.87957325  0.58291454  0.19696148  1
  O  O347  1  0.88144104  0.58145186  0.69589628  1
  O  O348  1  0.04172578  0.33480294  0.19534510  1
  O  O349  1  0.04387819  0.33132263  0.69314131  1
  O  O350  1  0.03839220  0.83383604  0.19812449  1
  O  O351  1  0.03220580  0.83288112  0.69458556  1
  O  O352  1  0.37357345  0.33358317  0.19209177  1
  O  O353  1  0.37634713  0.33194185  0.69133857  1
  O  O354  1  0.37602939  0.84239215  0.19671790  1
  O  O355  1  0.38122026  0.83565533  0.70086641  1
  O  O356  1  0.71380091  0.33215134  0.19344602  1
  O  O357  1  0.71447142  0.33262245  0.69750033  1
  O  O358  1  0.71648667  0.84380272  0.19637720  1
  O  O359  1  0.71241506  0.83038835  0.69744329  1
  O  O360  1  0.20796168  0.41860510  0.20004687  1
  O  O361  1  0.21096142  0.41335356  0.69901580  1
  O  O362  1  0.20347383  0.91528962  0.19663082  1
  O  O363  1  0.21652711  0.92704041  0.69898120  1
  O  O364  1  0.54543152  0.41574923  0.19856623  1
  O  O365  1  0.54420037  0.41387009  0.68920024  1
  O  O366  1  0.54350346  0.92108887  0.19686749  1
  O  O367  1  0.54768594  0.91338730  0.69471079  1
  O  O368  1  0.87927909  0.41702930  0.19707382  1
  O  O369  1  0.88207984  0.40997873  0.68945582  1
  O  O370  1  0.87711733  0.91791446  0.19769202  1
  O  O371  1  0.88020049  0.91765282  0.69741662  1
  O  O372  1  0.04075714  0.16774527  0.19576661  1
  O  O373  1  0.04211622  0.16678595  0.69709118  1
  O  O374  1  0.03607384  0.66822789  0.19776238  1
  O  O375  1  0.03527468  0.66651933  0.69576515  1
  O  O376  1  0.37641729  0.16653308  0.20002955  1
  O  O377  1  0.37578483  0.16632719  0.69197519  1
  O  O378  1  0.36536673  0.66855095  0.19135339  1
  O  O379  1  0.37615104  0.66301816  0.68937341  1
  O  O380  1  0.71430013  0.16629677  0.19701110  1
  O  O381  1  0.71474598  0.16436491  0.69112193  1
  O  O382  1  0.71920576  0.65941637  0.19235450  1
  O  O383  1  0.70773346  0.66655052  0.69289711  1
  O  O384  1  0.11959416  0.08407025  0.30688334  1
  O  O385  1  0.12323088  0.08543240  0.80582535  1
  O  O386  1  0.12038510  0.57975125  0.30664515  1
  O  O387  1  0.11956991  0.57724473  0.79958013  1
  O  O388  1  0.45704612  0.08319146  0.30046987  1
  O  O389  1  0.45771828  0.08842172  0.80291332  1
  O  O390  1  0.45324694  0.57653385  0.30569379  1
  O  O391  1  0.45341373  0.57810527  0.80349932  1
  O  O392  1  0.79211723  0.08294317  0.30671338  1
  O  O393  1  0.79241100  0.08562081  0.80644419  1
  O  O394  1  0.79469698  0.58339260  0.30723665  1
  O  O395  1  0.78293606  0.58098216  0.80830257  1
  O  O396  1  0.28993597  0.33424192  0.30476230  1
  O  O397  1  0.29252971  0.32829798  0.80293619  1
  O  O398  1  0.28414642  0.83700611  0.30732054  1
  O  O399  1  0.30203147  0.83330228  0.80579494  1
  O  O400  1  0.62740852  0.33406966  0.30329237  1
  O  O401  1  0.62512496  0.33273865  0.80137141  1
  O  O402  1  0.62070573  0.84013065  0.30809477  1
  O  O403  1  0.62207767  0.83466215  0.80955364  1
  O  O404  1  0.95695329  0.33286056  0.30553075  1
  O  O405  1  0.95719621  0.33309987  0.80340297  1
  O  O406  1  0.95453557  0.83616578  0.30731849  1
  O  O407  1  0.95606127  0.83388782  0.81081516  1
  O  O408  1  0.12021943  0.41664639  0.30600652  1
  O  O409  1  0.12310967  0.41184422  0.80546475  1
  O  O410  1  0.12114963  0.91844943  0.30670425  1
  O  O411  1  0.11807361  0.92493249  0.81117953  1
  O  O412  1  0.45462713  0.41575634  0.30362656  1
  O  O413  1  0.45634370  0.40968650  0.80008115  1
  O  O414  1  0.45698055  0.91683038  0.30942631  1
  O  O415  1  0.46036051  0.92352726  0.80604643  1
  O  O416  1  0.79339768  0.41665662  0.30472533  1
  O  O417  1  0.79102573  0.41420443  0.80372706  1
  O  O418  1  0.79005907  0.91749614  0.30810568  1
  O  O419  1  0.78957755  0.91709571  0.80036942  1
  O  O420  1  0.28735757  0.16996903  0.30843592  1
  O  O421  1  0.29180217  0.16546797  0.80319556  1
  O  O422  1  0.28919964  0.66201897  0.30567819  1
  O  O423  1  0.29137192  0.66660119  0.79868597  1
  O  O424  1  0.62802599  0.16782305  0.30655440  1
  O  O425  1  0.62829381  0.16979697  0.80245056  1
  O  O426  1  0.63251051  0.65770964  0.30830305  1
  O  O427  1  0.62087863  0.66458918  0.79994308  1
  O  O428  1  0.95669258  0.16670619  0.30627844  1
  O  O429  1  0.95805259  0.16780520  0.80451702  1
  O  O430  1  0.95666242  0.66668907  0.30735666  1
  O  O431  1  0.95617488  0.66392534  0.80896241  1
  F  F432  1  0.04182113  0.00033415  0.20451174  1
  F  F433  1  0.04420187  0.00044319  0.70457357  1
  F  F434  1  0.04313843  0.50087343  0.20288533  1
  F  F435  1  0.04471561  0.49598437  0.69836900  1
  F  F436  1  0.37634519  -0.00218782  0.20462067  1
  F  F437  1  0.38167245  0.00286006  0.70196625  1
  F  F438  1  0.37756793  0.50099600  0.20084367  1
  F  F439  1  0.37891521  0.49684698  0.70022700  1
  F  F440  1  0.71394022  0.00203713  0.20471484  1
  F  F441  1  0.71491780  0.00106331  0.70150124  1
  F  F442  1  0.71831358  0.49811341  0.20282296  1
  F  F443  1  0.70814172  0.50105879  0.69765478  1
  F  F444  1  0.20922610  0.25087433  0.20438500  1
  F  F445  1  0.21159717  0.24817619  0.70206333  1
  F  F446  1  0.20287776  0.75322837  0.20181222  1
  F  F447  1  0.21595546  0.74365180  0.69112895  1
  F  F448  1  0.54878333  0.24809911  0.20307728  1
  F  F449  1  0.54793077  0.24860448  0.69844679  1
  F  F450  1  0.53621939  0.76836225  0.18902247  1
  F  F451  1  0.54764613  0.75154779  0.70317645  1
  F  F452  1  0.87884627  0.24935693  0.20416676  1
  F  F453  1  0.88015839  0.24820978  0.70159598  1
  F  F454  1  0.88015455  0.75188570  0.20452990  1
  F  F455  1  0.87913277  0.75358166  0.70550306  1
  F  F456  1  0.28690183  -0.00061803  0.30116484  1
  F  F457  1  0.28950790  0.00782851  0.80004442  1
  F  F458  1  0.28827378  0.50102362  0.29783048  1
  F  F459  1  0.28961440  0.49650646  0.79651736  1
  F  F460  1  0.62344860  0.00204002  0.29972681  1
  F  F461  1  0.62564815  -0.00007987  0.79814277  1
  F  F462  1  0.62839934  0.49741637  0.30051820  1
  F  F463  1  0.62045167  0.49247806  0.79667529  1
  F  F464  1  0.95393264  0.00105167  0.30091883  1
  F  F465  1  0.95509140  0.00200705  0.80114285  1
  F  F466  1  0.95583297  0.49965977  0.30012353  1
  F  F467  1  0.95819120  0.49590066  0.79897023  1
  F  F468  1  0.11949095  0.25119595  0.29871772  1
  F  F469  1  0.12180370  0.24919486  0.79772348  1
  F  F470  1  0.11407646  0.75899593  0.30709748  1
  F  F471  1  0.11249517  0.74363625  0.80588259  1
  F  F472  1  0.45666071  0.25356168  0.29698344  1
  F  F473  1  0.45697635  0.24931879  0.79292364  1
  F  F474  1  0.45446831  0.76000575  0.30609778  1
  F  F475  1  0.45639881  0.74545686  0.79632777  1
  F  F476  1  0.79022382  0.25068840  0.29922291  1
  F  F477  1  0.79129595  0.24790117  0.79740458  1
  F  F478  1  0.80022144  0.75053624  0.30376306  1
  F  F479  1  0.78386618  0.75483366  0.80553415  1
