# generated using pymatgen
data_K24Na3Li5Mg64Fe17Si79(O5F)48
_symmetry_space_group_name_H-M   'P 1'
_cell_length_a   16.12103433
_cell_length_b   18.63185872
_cell_length_c   20.57319544
_cell_angle_alpha   90.00529731
_cell_angle_beta   100.01992791
_cell_angle_gamma   89.99730390
_symmetry_Int_Tables_number   1
_chemical_formula_structural   K24Na3Li5Mg64Fe17Si79(O5F)48
_chemical_formula_sum   'K24 Na3 Li5 Mg64 Fe17 Si79 O240 F48'
_cell_volume   6085.21087037
_cell_formula_units_Z   1
loop_
 _symmetry_equiv_pos_site_id
 _symmetry_equiv_pos_as_xyz
  1  'x, y, z'
loop_
 _atom_site_type_symbol
 _atom_site_label
 _atom_site_symmetry_multiplicity
 _atom_site_fract_x
 _atom_site_fract_y
 _atom_site_fract_z
 _atom_site_occupancy
  K  K0  1  -0.01282175  0.00010841  -0.00864750  1
  K  K1  1  -0.00239277  0.01022185  0.51340168  1
  K  K2  1  -0.00831317  0.48967920  -0.01373912  1
  K  K3  1  -0.00905729  0.49529299  0.50772565  1
  K  K4  1  0.33352138  0.00501616  -0.01395332  1
  K  K5  1  0.33812586  -0.00463322  0.51699513  1
  K  K6  1  0.33244302  0.49411656  -0.00838122  1
  K  K7  1  0.33310830  0.49091364  0.50671036  1
  K  K8  1  0.65914187  -0.00119805  -0.01243533  1
  K  K9  1  0.66701311  0.00890659  0.50818936  1
  K  K10  1  0.68284562  0.49056576  -0.00969332  1
  K  K11  1  0.66992437  0.49061342  0.51735824  1
  K  K12  1  0.16477300  0.24675767  -0.00477036  1
  K  K13  1  0.16645322  0.24645920  0.50287377  1
  K  K14  1  0.16384102  0.73966984  -0.01072514  1
  K  K15  1  0.17932268  0.75105450  0.51789489  1
  K  K16  1  0.50227487  0.25226407  -0.00475537  1
  K  K17  1  0.50455216  0.25332487  0.50039742  1
  K  K18  1  0.49581203  0.75353641  -0.02280389  1
  K  K19  1  0.49853686  0.74564658  0.51852820  1
  K  K20  1  0.82579628  0.25133854  -0.00465908  1
  K  K21  1  0.83356440  0.25638795  0.50706808  1
  K  K22  1  0.80892570  0.75389748  -0.02064573  1
  K  K23  1  0.84380621  0.75047039  0.51014585  1
  Na  Na24  1  0.83098007  0.49802257  0.75171600  1
  Na  Na25  1  0.33593193  0.41876261  0.25876451  1
  Na  Na26  1  0.66757751  0.92059739  0.24977235  1
  Li  Li27  1  0.16166328  0.49883034  0.74878703  1
  Li  Li28  1  0.50136457  0.49976933  0.75139270  1
  Li  Li29  1  0.33949478  0.91244314  0.74620966  1
  Li  Li30  1  0.49784594  0.84147481  0.74834758  1
  Li  Li31  1  0.83265959  0.33579710  0.74972095  1
  Mg  Mg32  1  0.17098013  -0.00075720  0.74843639  1
  Mg  Mg33  1  0.83237346  -0.00115397  0.74868520  1
  Mg  Mg34  1  0.16778647  0.00039367  0.24928240  1
  Mg  Mg35  1  0.83411401  0.00151276  0.24767441  1
  Mg  Mg36  1  0.50260241  0.00124038  0.25293820  1
  Mg  Mg37  1  0.33617138  0.74957908  0.75140696  1
  Mg  Mg38  1  -0.00235818  0.25171642  0.74795320  1
  Mg  Mg39  1  -0.00012200  0.25086898  0.24943775  1
  Mg  Mg40  1  0.66901045  0.25397308  0.75159618  1
  Mg  Mg41  1  0.33429816  0.75137184  0.24955094  1
  Mg  Mg42  1  0.16898105  0.49880995  0.25484007  1
  Mg  Mg43  1  0.65941272  0.75060206  0.74986480  1
  Mg  Mg44  1  0.33541712  0.25187355  0.25522589  1
  Mg  Mg45  1  0.66880109  0.25103674  0.25016252  1
  Mg  Mg46  1  0.33161737  0.25034802  0.74974211  1
  Mg  Mg47  1  0.66751319  0.75187621  0.25005284  1
  Mg  Mg48  1  0.49702244  -0.00266463  0.74766013  1
  Mg  Mg49  1  0.00174562  0.74998844  0.24828272  1
  Mg  Mg50  1  0.83478818  0.49890014  0.24781354  1
  Mg  Mg51  1  -0.00141741  0.74962016  0.74914463  1
  Mg  Mg52  1  0.50077652  0.50077820  0.25088855  1
  Mg  Mg53  1  0.82967655  0.66616654  0.75037102  1
  Mg  Mg54  1  -0.00110107  0.08492874  0.24741917  1
  Mg  Mg55  1  0.66841571  0.08592581  0.25155545  1
  Mg  Mg56  1  -0.00007343  0.58395978  0.24768052  1
  Mg  Mg57  1  0.83460703  0.33477761  0.24795055  1
  Mg  Mg58  1  0.17042832  0.83341779  0.74683127  1
  Mg  Mg59  1  0.16864460  0.16677200  0.25141108  1
  Mg  Mg60  1  0.33510140  0.58468825  0.25167075  1
  Mg  Mg61  1  0.33652205  0.08523617  0.25395469  1
  Mg  Mg62  1  0.49849247  0.16667288  0.74876173  1
  Mg  Mg63  1  0.33102552  0.41946899  0.74978996  1
  Mg  Mg64  1  0.66590631  0.08426569  0.74913688  1
  Mg  Mg65  1  0.66783163  0.58511594  0.24966437  1
  Mg  Mg66  1  -0.00029400  0.91555363  0.74905711  1
  Mg  Mg67  1  0.16862069  0.66565534  0.24963567  1
  Mg  Mg68  1  0.83331107  0.66686966  0.24742204  1
  Mg  Mg69  1  0.33607534  0.91680944  0.25022499  1
  Mg  Mg70  1  0.83272767  0.83464043  0.24713904  1
  Mg  Mg71  1  0.66385191  0.58085757  0.75311939  1
  Mg  Mg72  1  -0.00094508  0.91587238  0.24616251  1
  Mg  Mg73  1  0.16602549  0.16420313  0.74903059  1
  Mg  Mg74  1  0.82954693  0.83631823  0.74815021  1
  Mg  Mg75  1  0.83337772  0.16429749  0.24800419  1
  Mg  Mg76  1  0.50222075  0.33624607  0.25529213  1
  Mg  Mg77  1  -0.00248497  0.58057200  0.74947412  1
  Mg  Mg78  1  -0.00044827  0.41442218  0.25141992  1
  Mg  Mg79  1  0.66856486  0.41576301  0.25060960  1
  Mg  Mg80  1  -0.00103430  0.41683307  0.75171915  1
  Mg  Mg81  1  0.50467805  0.16723021  0.25443042  1
  Mg  Mg82  1  0.33265006  0.08158768  0.75014044  1
  Mg  Mg83  1  0.50239069  0.83506310  0.25038622  1
  Mg  Mg84  1  0.49880071  0.33600159  0.75096818  1
  Mg  Mg85  1  0.33051648  0.57873927  0.74820342  1
  Mg  Mg86  1  0.00180033  0.08324107  0.74782836  1
  Mg  Mg87  1  0.16544642  0.66264417  0.74827399  1
  Mg  Mg88  1  0.66502317  0.41766302  0.74925566  1
  Mg  Mg89  1  0.16925180  0.33469570  0.25382711  1
  Mg  Mg90  1  0.16452162  0.33557217  0.74899827  1
  Mg  Mg91  1  0.66309625  0.91484965  0.74774995  1
  Mg  Mg92  1  0.49714749  0.66410442  0.75139866  1
  Mg  Mg93  1  0.50140817  0.66737044  0.25103871  1
  Mg  Mg94  1  0.16800001  0.83453548  0.24860629  1
  Mg  Mg95  1  0.83428924  0.16877649  0.75058237  1
  Fe  Fe96  1  0.68800078  0.33197602  0.10968072  1
  Fe  Fe97  1  0.36344433  0.82777586  0.61109997  1
  Fe  Fe98  1  0.86418426  0.41730525  0.10780963  1
  Fe  Fe99  1  0.81200366  0.40730612  0.88963300  1
  Fe  Fe100  1  0.64447053  0.16983012  0.39256838  1
  Fe  Fe101  1  0.85625163  0.41824629  0.61144264  1
  Fe  Fe102  1  0.45674407  0.91919760  0.88895092  1
  Fe  Fe103  1  0.14592840  0.07702337  0.88925154  1
  Fe  Fe104  1  0.19233988  0.08376046  0.60809244  1
  Fe  Fe105  1  0.63150424  0.83679738  0.88948130  1
  Fe  Fe106  1  0.97188701  0.33323900  0.39115796  1
  Fe  Fe107  1  0.85751598  0.08270514  0.10720126  1
  Fe  Fe108  1  0.80804209  0.91981681  0.88958607  1
  Fe  Fe109  1  0.86123569  0.91526409  0.60809661  1
  Fe  Fe110  1  0.80958774  0.58597164  0.89188253  1
  Fe  Fe111  1  0.52783253  0.92063224  0.60508578  1
  Fe  Fe112  1  0.30794145  0.33067104  0.39534171  1
  Si  Si113  1  0.14081356  0.90998340  0.88463944  1
  Si  Si114  1  0.19124086  0.41400380  0.61592464  1
  Si  Si115  1  0.14089990  0.07873355  0.38373203  1
  Si  Si116  1  0.02597510  0.33513153  0.61255103  1
  Si  Si117  1  0.14332950  0.91399325  0.38347564  1
  Si  Si118  1  0.81391367  0.91441505  0.38344556  1
  Si  Si119  1  0.31084290  0.66904889  0.38506483  1
  Si  Si120  1  0.19235650  0.91435645  0.61130704  1
  Si  Si121  1  0.13811747  0.42194314  0.39158615  1
  Si  Si122  1  0.36603552  0.33226934  0.11901960  1
  Si  Si123  1  0.52488359  0.08995773  0.61318269  1
  Si  Si124  1  0.81078108  0.58667747  0.38429500  1
  Si  Si125  1  0.30850544  0.15971260  0.38960792  1
  Si  Si126  1  0.68464527  0.33203389  0.61234618  1
  Si  Si127  1  0.63520421  0.33157365  0.88718287  1
  Si  Si128  1  0.81187847  0.07926449  0.38825994  1
  Si  Si129  1  0.68745467  0.66859645  0.11409600  1
  Si  Si130  1  0.02854299  0.83205971  0.11275220  1
  Si  Si131  1  0.68393577  0.16417424  0.11104200  1
  Si  Si132  1  0.97740710  0.83239698  0.38376980  1
  Si  Si133  1  0.03122645  0.82993594  0.61175348  1
  Si  Si134  1  0.85680427  0.90903271  0.10996497  1
  Si  Si135  1  0.29620614  0.82255751  0.88698313  1
  Si  Si136  1  0.03268577  0.16748003  0.11271141  1
  Si  Si137  1  0.35698822  0.83337961  0.11361000  1
  Si  Si138  1  0.35478518  0.65686919  0.61200508  1
  Si  Si139  1  0.30991799  0.17407269  0.88785249  1
  Si  Si140  1  0.36219338  0.17226530  0.61302262  1
  Si  Si141  1  0.19926275  0.08479600  0.11653750  1
  Si  Si142  1  0.13957378  0.41685591  0.88433595  1
  Si  Si143  1  0.47213995  0.08942256  0.88631281  1
  Si  Si144  1  0.19402889  0.58086427  0.11519865  1
  Si  Si145  1  0.52376386  0.41513768  0.61639580  1
  Si  Si146  1  0.85594622  0.08744410  0.61288622  1
  Si  Si147  1  0.97812367  0.16426272  0.88476487  1
  Si  Si148  1  0.69140088  0.16907159  0.61607437  1
  Si  Si149  1  0.85676126  0.59107959  0.11163989  1
  Si  Si150  1  0.18827340  0.57768556  0.61485401  1
  Si  Si151  1  0.52079924  0.91558925  0.11543675  1
  Si  Si152  1  0.02218572  0.17054751  0.61156579  1
  Si  Si153  1  0.47259452  0.08011124  0.38907934  1
  Si  Si154  1  0.97645375  0.83271989  0.88519069  1
  Si  Si155  1  0.02449999  0.66431143  0.61325991  1
  Si  Si156  1  0.97830139  0.16207359  0.38708466  1
  Si  Si157  1  0.97772438  0.66751987  0.38378042  1
  Si  Si158  1  0.46789879  0.57895689  0.88317341  1
  Si  Si159  1  0.02922739  0.66687335  0.11349594  1
  Si  Si160  1  0.64507939  0.66955234  0.38642486  1
  Si  Si161  1  0.19992857  0.41603779  0.11837730  1
  Si  Si162  1  0.13686520  0.58124678  0.88320006  1
  Si  Si163  1  0.81023591  0.09164487  0.88437751  1
  Si  Si164  1  0.63932852  0.16637125  0.88342424  1
  Si  Si165  1  0.68853464  0.83108912  0.11498333  1
  Si  Si166  1  0.63348739  0.66216267  0.89002752  1
  Si  Si167  1  0.47852965  0.91483491  0.38605474  1
  Si  Si168  1  0.30523362  0.33797623  0.88507998  1
  Si  Si169  1  0.30388664  0.65906074  0.88425505  1
  Si  Si170  1  0.64423174  0.83251903  0.38519755  1
  Si  Si171  1  0.68552800  0.66787088  0.61492467  1
  Si  Si172  1  0.36423256  0.16801827  0.11780510  1
  Si  Si173  1  0.52412637  0.42220259  0.11410672  1
  Si  Si174  1  0.97890439  0.67059453  0.88657112  1
  Si  Si175  1  0.03792660  0.33436600  0.11358017  1
  Si  Si176  1  0.14481120  0.58706755  0.38522802  1
  Si  Si177  1  0.35732202  0.66850945  0.11531936  1
  Si  Si178  1  0.47872605  0.42330250  0.39041236  1
  Si  Si179  1  0.69376838  0.83072114  0.60809740  1
  Si  Si180  1  0.52534994  0.57961373  0.61736562  1
  Si  Si181  1  0.64181302  0.34195564  0.39008849  1
  Si  Si182  1  0.52224118  0.58611435  0.11563936  1
  Si  Si183  1  0.80357318  0.42260211  0.38745209  1
  Si  Si184  1  0.52362055  0.07916823  0.11589465  1
  Si  Si185  1  0.98438686  0.32611842  0.88737390  1
  Si  Si186  1  0.31084631  0.83393044  0.38446656  1
  Si  Si187  1  0.85476225  0.59059023  0.61203942  1
  Si  Si188  1  0.35691214  0.33690131  0.61579955  1
  Si  Si189  1  0.19301449  0.91891406  0.11391852  1
  Si  Si190  1  0.47898906  0.58804852  0.38720617  1
  Si  Si191  1  0.47065828  0.41539760  0.88414887  1
  O  O192  1  0.27989190  0.11993502  0.08891373  1
  O  O193  1  0.28660528  0.12253365  0.57544154  1
  O  O194  1  0.27171175  0.62182222  0.08650791  1
  O  O195  1  0.26866115  0.60788763  0.58290601  1
  O  O196  1  0.60620915  0.10471760  0.08703088  1
  O  O197  1  0.61026705  0.11890163  0.58631877  1
  O  O198  1  0.60444629  0.61770945  0.08714195  1
  O  O199  1  0.60197016  0.61779272  0.58468086  1
  O  O200  1  0.95304428  0.12168792  0.07709986  1
  O  O201  1  0.93415129  0.12625055  0.58386934  1
  O  O202  1  0.93720280  0.63238082  0.08616244  1
  O  O203  1  0.93442264  0.62708027  0.58010999  1
  O  O204  1  0.12322233  0.36327380  0.08565085  1
  O  O205  1  0.11281793  0.36127077  0.58530767  1
  O  O206  1  0.10366709  0.87769600  0.08569509  1
  O  O207  1  0.11666604  0.85464920  0.58519653  1
  O  O208  1  0.44150435  0.37017232  0.08668813  1
  O  O209  1  0.43370263  0.37518758  0.58541440  1
  O  O210  1  0.43726176  0.86632339  0.08456188  1
  O  O211  1  0.44246915  0.86170688  0.56324114  1
  O  O212  1  0.78106954  0.35374911  0.07284973  1
  O  O213  1  0.75642602  0.36641009  0.57595187  1
  O  O214  1  0.77101702  0.85997347  0.08591955  1
  O  O215  1  0.77920205  0.84586107  0.57763166  1
  O  O216  1  0.28301265  0.38276007  0.09221699  1
  O  O217  1  0.27318116  0.38451882  0.58543456  1
  O  O218  1  0.27046557  0.87893036  0.08530757  1
  O  O219  1  0.26970572  0.88596505  0.57710961  1
  O  O220  1  0.60082463  0.40009617  0.07837789  1
  O  O221  1  0.59481073  0.37406745  0.58165591  1
  O  O222  1  0.60520132  0.88246928  0.09131160  1
  O  O223  1  0.62380646  0.88734154  0.57247227  1
  O  O224  1  0.96404825  0.38660722  0.07942697  1
  O  O225  1  0.95042970  0.38493972  0.57581182  1
  O  O226  1  0.93634728  0.86581919  0.08443353  1
  O  O227  1  0.95448422  0.87822263  0.57373484  1
  O  O228  1  0.11756368  0.13340744  0.08735914  1
  O  O229  1  0.09546779  0.13911057  0.57486391  1
  O  O230  1  0.10514691  0.62279704  0.08583561  1
  O  O231  1  0.10192660  0.62370640  0.58373158  1
  O  O232  1  0.44193559  0.13114299  0.08725048  1
  O  O233  1  0.45138988  0.15120734  0.58843222  1
  O  O234  1  0.43895981  0.63643652  0.08722689  1
  O  O235  1  0.43437365  0.61663140  0.58423840  1
  O  O236  1  0.76217876  0.13870535  0.07622846  1
  O  O237  1  0.77285831  0.13883865  0.58658060  1
  O  O238  1  0.77222739  0.64207453  0.08745507  1
  O  O239  1  0.76862843  0.63953835  0.58473078  1
  O  O240  1  0.05936147  0.10757086  0.41248954  1
  O  O241  1  0.04759738  0.10708141  0.92038108  1
  O  O242  1  0.06417637  0.62312248  0.41345211  1
  O  O243  1  0.06281634  0.62008895  0.91635482  1
  O  O244  1  0.38305598  0.09968547  0.41360991  1
  O  O245  1  0.40656064  0.14550968  0.91461128  1
  O  O246  1  0.39763068  0.62460392  0.41430212  1
  O  O247  1  0.38761549  0.61155544  0.91521004  1
  O  O248  1  0.73767359  0.10998422  0.42405812  1
  O  O249  1  0.72883836  0.12712304  0.91240386  1
  O  O250  1  0.73158658  0.62379465  0.41343754  1
  O  O251  1  0.71345531  0.61527688  0.92623793  1
  O  O252  1  0.21485806  0.37145349  0.42701880  1
  O  O253  1  0.23122682  0.37976935  0.91616045  1
  O  O254  1  0.22937047  0.86796787  0.41166389  1
  O  O255  1  0.20634323  0.84376485  0.91141054  1
  O  O256  1  0.56135456  0.37443889  0.42119191  1
  O  O257  1  0.55307806  0.36719044  0.91487201  1
  O  O258  1  0.56426876  0.86847292  0.41379628  1
  O  O259  1  0.55087702  0.87346052  0.93461465  1
  O  O260  1  0.87519089  0.36805091  0.42188744  1
  O  O261  1  0.90775353  0.34990041  0.92321371  1
  O  O262  1  0.89772369  0.86520844  0.41382289  1
  O  O263  1  0.89902446  0.85558571  0.92064796  1
  O  O264  1  0.05289556  0.40473106  0.42030520  1
  O  O265  1  0.06904724  0.37544457  0.91910098  1
  O  O266  1  0.06443386  0.87692688  0.41216072  1
  O  O267  1  0.05403099  0.88884467  0.91258337  1
  O  O268  1  0.39912863  0.39575093  0.42138082  1
  O  O269  1  0.39226172  0.38063717  0.91652400  1
  O  O270  1  0.39655584  0.87911918  0.41214019  1
  O  O271  1  0.36848244  0.87401885  0.92580097  1
  O  O272  1  0.71497244  0.40349544  0.41305980  1
  O  O273  1  0.71786164  0.37146978  0.92439074  1
  O  O274  1  0.73134183  0.87854581  0.40922764  1
  O  O275  1  0.72525992  0.88708542  0.93303142  1
  O  O276  1  0.22307399  0.12692402  0.41373662  1
  O  O277  1  0.24273940  0.13274960  0.92454442  1
  O  O278  1  0.22948071  0.63592482  0.41304818  1
  O  O279  1  0.22623288  0.62167242  0.91557883  1
  O  O280  1  0.54770254  0.13200179  0.42314865  1
  O  O281  1  0.56671639  0.12318040  0.91426370  1
  O  O282  1  0.56382388  0.63615955  0.41496640  1
  O  O283  1  0.54971054  0.62560520  0.91598391  1
  O  O284  1  0.90002910  0.12289219  0.41532497  1
  O  O285  1  0.88771316  0.14874865  0.90964482  1
  O  O286  1  0.89701835  0.63347665  0.41227756  1
  O  O287  1  0.90275825  0.64897400  0.92373749  1
  O  O288  1  0.18650958  0.00198728  0.08748079  1
  O  O289  1  0.16190160  -0.00887698  0.57644726  1
  O  O290  1  0.18860425  0.49862678  0.08648631  1
  O  O291  1  0.17063528  0.49549971  0.58561017  1
  O  O292  1  0.50133547  -0.00265416  0.08663338  1
  O  O293  1  0.49925650  0.01621882  0.57424526  1
  O  O294  1  0.49565756  0.50546781  0.08869763  1
  O  O295  1  0.51771744  0.49737684  0.58639952  1
  O  O296  1  0.84606408  -0.01359331  0.07574963  1
  O  O297  1  0.83834599  0.01048098  0.57627472  1
  O  O298  1  0.84068608  0.51400576  0.07831338  1
  O  O299  1  0.83736139  0.51329282  0.57700640  1
  O  O300  1  0.02703976  0.25092718  0.08615730  1
  O  O301  1  0.00473425  0.25324803  0.58449227  1
  O  O302  1  0.03374353  0.74941578  0.08555076  1
  O  O303  1  0.01796244  0.74604974  0.58320698  1
  O  O304  1  0.35002291  0.25008350  0.08742732  1
  O  O305  1  0.34257762  0.25578064  0.58576682  1
  O  O306  1  0.34003142  0.75051640  0.08637288  1
  O  O307  1  0.33974432  0.73263658  0.57413758  1
  O  O308  1  0.64502397  0.24033951  0.08214797  1
  O  O309  1  0.66902055  0.24866579  0.58429787  1
  O  O310  1  0.66422537  0.74979102  0.08540277  1
  O  O311  1  0.66262351  0.74754591  0.58290832  1
  O  O312  1  0.15812331  -0.00420194  0.41105945  1
  O  O313  1  0.17555535  -0.01634007  0.92133313  1
  O  O314  1  0.16403431  0.50713719  0.41490880  1
  O  O315  1  0.14656145  0.49937580  0.91400909  1
  O  O316  1  0.49328121  -0.00382118  0.41430089  1
  O  O317  1  0.46560373  0.01469215  0.92381463  1
  O  O318  1  0.49698020  0.50783120  0.41762431  1
  O  O319  1  0.48133869  0.49704356  0.91464647  1
  O  O320  1  0.83019658  -0.00511985  0.41418621  1
  O  O321  1  0.83417723  0.01561274  0.91987963  1
  O  O322  1  0.82661409  0.50622119  0.41445582  1
  O  O323  1  0.83853573  0.49621895  0.92700538  1
  O  O324  1  0.33281743  0.23501568  0.42653806  1
  O  O325  1  0.31243162  0.25753640  0.91691774  1
  O  O326  1  0.32412001  0.75163943  0.41281584  1
  O  O327  1  0.31551490  0.73930189  0.91735777  1
  O  O328  1  0.66723412  0.26499245  0.42424654  1
  O  O329  1  0.63943090  0.24748431  0.91425422  1
  O  O330  1  0.66037886  0.75098358  0.41664140  1
  O  O331  1  0.64197066  0.74150862  0.92304071  1
  O  O332  1  0.99972112  0.23876334  0.42257078  1
  O  O333  1  1.01236119  0.24371444  0.91307328  1
  O  O334  1  0.99120736  0.74984827  0.41233549  1
  O  O335  1  1.01178543  0.75225014  0.91104839  1
  O  O336  1  0.21493833  0.08226591  0.19712990  1
  O  O337  1  0.21347892  0.08549575  0.69910039  1
  O  O338  1  0.21164705  0.58488558  0.19546992  1
  O  O339  1  0.20779930  0.58261193  0.69404227  1
  O  O340  1  0.53955803  0.08159175  0.19617242  1
  O  O341  1  0.54286038  0.08712295  0.69394166  1
  O  O342  1  0.54295533  0.58775163  0.19632932  1
  O  O343  1  0.54211014  0.58382059  0.69632043  1
  O  O344  1  0.88039473  0.08228045  0.19973434  1
  O  O345  1  0.87586889  0.08432195  0.69356895  1
  O  O346  1  0.87736386  0.58865435  0.19326811  1
  O  O347  1  0.87951801  0.59317348  0.69139278  1
  O  O348  1  0.05082163  0.33386093  0.19472094  1
  O  O349  1  0.04480603  0.33411882  0.69315145  1
  O  O350  1  0.04664716  0.83226875  0.19373733  1
  O  O351  1  0.04315225  0.83086487  0.69244596  1
  O  O352  1  0.38558132  0.32758817  0.19808543  1
  O  O353  1  0.37447206  0.33481424  0.69589802  1
  O  O354  1  0.37465324  0.83343800  0.19442647  1
  O  O355  1  0.37763591  0.82681938  0.69981633  1
  O  O356  1  0.71149100  0.33496763  0.20284033  1
  O  O357  1  0.69923806  0.33272424  0.69177362  1
  O  O358  1  0.71321202  0.82613361  0.19444207  1
  O  O359  1  0.70872727  0.83177251  0.68893476  1
  O  O360  1  0.20512136  0.42061478  0.19712641  1
  O  O361  1  0.21080957  0.41310587  0.69525759  1
  O  O362  1  0.21178618  0.91610879  0.19466853  1
  O  O363  1  0.20648129  0.91600267  0.69192377  1
  O  O364  1  0.54298615  0.42042554  0.19528944  1
  O  O365  1  0.54114457  0.41252761  0.69548539  1
  O  O366  1  0.53113486  0.91658996  0.19486610  1
  O  O367  1  0.54648796  0.92295553  0.69499230  1
  O  O368  1  0.88027273  0.41964856  0.20057287  1
  O  O369  1  0.88431693  0.40948615  0.69827965  1
  O  O370  1  0.87849421  0.91222375  0.19133994  1
  O  O371  1  0.88028126  0.91671393  0.69911816  1
  O  O372  1  0.04761988  0.16525266  0.19406917  1
  O  O373  1  0.04252395  0.16804318  0.69217465  1
  O  O374  1  0.04721730  0.66757739  0.19444248  1
  O  O375  1  0.04223199  0.66447511  0.69324718  1
  O  O376  1  0.37995963  0.16664402  0.19828688  1
  O  O377  1  0.37544945  0.17057536  0.69393867  1
  O  O378  1  0.37592448  0.66900805  0.19589864  1
  O  O379  1  0.37181984  0.66023537  0.69232108  1
  O  O380  1  0.70896969  0.16550148  0.19267782  1
  O  O381  1  0.70914842  0.16852405  0.69614314  1
  O  O382  1  0.70737922  0.66756506  0.19516462  1
  O  O383  1  0.70463678  0.66739202  0.69461011  1
  O  O384  1  0.12441719  0.08038399  0.30283950  1
  O  O385  1  0.12184890  0.08233805  0.79845567  1
  O  O386  1  0.12411029  0.58811183  0.30460226  1
  O  O387  1  0.11989409  0.58574460  0.80407642  1
  O  O388  1  0.45653275  0.08223997  0.30762448  1
  O  O389  1  0.45506290  0.08812288  0.80560705  1
  O  O390  1  0.45911472  0.58837479  0.30659732  1
  O  O391  1  0.44940361  0.58034709  0.80388618  1
  O  O392  1  0.79166545  0.08181481  0.30737290  1
  O  O393  1  0.79014385  0.08613385  0.80363397  1
  O  O394  1  0.79159458  0.58757663  0.30371840  1
  O  O395  1  0.78266590  0.59181457  0.80178368  1
  O  O396  1  0.28419197  0.32512574  0.30513765  1
  O  O397  1  0.28843459  0.33518981  0.80515718  1
  O  O398  1  0.29121421  0.83365923  0.30351627  1
  O  O399  1  0.28376414  0.82253007  0.80749548  1
  O  O400  1  0.62263118  0.33766181  0.30903689  1
  O  O401  1  0.61829246  0.33231564  0.80673531  1
  O  O402  1  0.62008890  0.82631246  0.30592125  1
  O  O403  1  0.62283139  0.83364731  0.79925932  1
  O  O404  1  0.95672544  0.33178982  0.29931855  1
  O  O405  1  0.96843117  0.33070961  0.80785879  1
  O  O406  1  0.96052939  0.83212493  0.30308792  1
  O  O407  1  0.95760566  0.83239804  0.80436854  1
  O  O408  1  0.12396444  0.41947443  0.30959304  1
  O  O409  1  0.12295349  0.41335606  0.80523933  1
  O  O410  1  0.12472283  0.91402165  0.30267818  1
  O  O411  1  0.12371069  0.91386973  0.80371272  1
  O  O412  1  0.46947606  0.42284116  0.31039918  1
  O  O413  1  0.45063304  0.41297927  0.80492378  1
  O  O414  1  0.45751589  0.91468381  0.30528243  1
  O  O415  1  0.45395603  0.92128171  0.80120479  1
  O  O416  1  0.78932106  0.42312920  0.30679124  1
  O  O417  1  0.77957568  0.40587886  0.80233949  1
  O  O418  1  0.80341084  0.91529376  0.30405998  1
  O  O419  1  0.78519772  0.91818704  0.79768515  1
  O  O420  1  0.29095516  0.16334605  0.30806412  1
  O  O421  1  0.29010245  0.17155162  0.80729866  1
  O  O422  1  0.29199774  0.66978572  0.30431617  1
  O  O423  1  0.28595244  0.66067809  0.80442561  1
  O  O424  1  0.62438501  0.16854804  0.30063862  1
  O  O425  1  0.62126995  0.16754387  0.80319068  1
  O  O426  1  0.62502663  0.66807041  0.30570659  1
  O  O427  1  0.61845352  0.66321339  0.80897882  1
  O  O428  1  0.96062855  0.16500862  0.30602152  1
  O  O429  1  0.96010000  0.16476588  0.80383129  1
  O  O430  1  0.95940406  0.66783642  0.30319262  1
  O  O431  1  0.95836575  0.66677784  0.80582212  1
  F  F432  1  0.04909383  -0.00266503  0.19967178  1
  F  F433  1  0.04455901  -0.00214910  0.69977552  1
  F  F434  1  0.04883683  0.50251439  0.20460764  1
  F  F435  1  0.04054259  0.49972467  0.69981574  1
  F  F436  1  0.37806757  0.00056961  0.20427345  1
  F  F437  1  0.38070720  0.01045573  0.69664361  1
  F  F438  1  0.38361832  0.51180909  0.20108399  1
  F  F439  1  0.36869345  0.49748746  0.69663659  1
  F  F440  1  0.71678185  0.00902629  0.19982995  1
  F  F441  1  0.71126756  0.00499053  0.69940200  1
  F  F442  1  0.71198823  0.50393690  0.20251505  1
  F  F443  1  0.69377905  0.50042475  0.69474148  1
  F  F444  1  0.21482999  0.24607652  0.20172427  1
  F  F445  1  0.21212079  0.25130278  0.70189776  1
  F  F446  1  0.21297231  0.75028324  0.20075372  1
  F  F447  1  0.21145237  0.74553333  0.70028020  1
  F  F448  1  0.54389413  0.25313845  0.20511174  1
  F  F449  1  0.54356083  0.25140978  0.70353059  1
  F  F450  1  0.54351922  0.74973829  0.20168719  1
  F  F451  1  0.54272176  0.73982698  0.69963979  1
  F  F452  1  0.88012878  0.24646519  0.20062768  1
  F  F453  1  0.88042782  0.24477089  0.70058786  1
  F  F454  1  0.88159982  0.74993064  0.20153903  1
  F  F455  1  0.87849461  0.75014018  0.70261243  1
  F  F456  1  0.28805722  -0.00295311  0.29850737  1
  F  F457  1  0.28788083  0.00342026  0.80062285  1
  F  F458  1  0.28473918  0.51545965  0.30499895  1
  F  F459  1  0.29028175  0.49868204  0.80128578  1
  F  F460  1  0.61778023  0.00856820  0.30255032  1
  F  F461  1  0.62119296  0.00490059  0.79776829  1
  F  F462  1  0.62256285  0.50509819  0.29715097  1
  F  F463  1  0.62088117  0.49733998  0.80056088  1
  F  F464  1  0.95992117  -0.00388676  0.29605451  1
  F  F465  1  0.95597220  0.00158301  0.79682291  1
  F  F466  1  0.95572876  0.50708185  0.29858862  1
  F  F467  1  0.96911866  0.50082822  0.80513759  1
  F  F468  1  0.12119936  0.24781702  0.29725766  1
  F  F469  1  0.12232809  0.24977486  0.79534961  1
  F  F470  1  0.12393625  0.75065895  0.29705975  1
  F  F471  1  0.12007898  0.74776465  0.79369992  1
  F  F472  1  0.45724981  0.24957515  0.30267940  1
  F  F473  1  0.45243238  0.25096860  0.79766893  1
  F  F474  1  0.45416820  0.75101817  0.29798755  1
  F  F475  1  0.44807117  0.73504976  0.80544494  1
  F  F476  1  0.79159377  0.24727541  0.29721848  1
  F  F477  1  0.78529334  0.24518914  0.79965494  1
  F  F478  1  0.79106558  0.74919775  0.29794848  1
  F  F479  1  0.78517104  0.75217483  0.79503222  1
