# generated using pymatgen
data_K24Na3Li5Mg64Fe17Si79(O5F)48
_symmetry_space_group_name_H-M   'P 1'
_cell_length_a   16.08509203
_cell_length_b   18.58128104
_cell_length_c   20.54948320
_cell_angle_alpha   89.97395051
_cell_angle_beta   100.01016947
_cell_angle_gamma   90.03716662
_symmetry_Int_Tables_number   1
_chemical_formula_structural   K24Na3Li5Mg64Fe17Si79(O5F)48
_chemical_formula_sum   'K24 Na3 Li5 Mg64 Fe17 Si79 O240 F48'
_cell_volume   6048.36300985
_cell_formula_units_Z   1
loop_
 _symmetry_equiv_pos_site_id
 _symmetry_equiv_pos_as_xyz
  1  'x, y, z'
loop_
 _atom_site_type_symbol
 _atom_site_label
 _atom_site_symmetry_multiplicity
 _atom_site_fract_x
 _atom_site_fract_y
 _atom_site_fract_z
 _atom_site_occupancy
  K  K0  1  0.02247598  0.00404512  0.01378178  1
  K  K1  1  -0.00779317  0.00995700  0.49865041  1
  K  K2  1  0.01681988  0.49940128  0.01051209  1
  K  K3  1  0.00580657  0.50639875  0.49380578  1
  K  K4  1  0.32634526  -0.00015650  0.00742105  1
  K  K5  1  0.33061136  0.00158031  0.49537309  1
  K  K6  1  0.32158108  0.49398884  0.00025270  1
  K  K7  1  0.31986883  0.49260513  0.49020184  1
  K  K8  1  0.66452982  0.00294108  0.00358289  1
  K  K9  1  0.65485336  0.00647604  0.49509005  1
  K  K10  1  0.66815898  0.49492297  0.00770046  1
  K  K11  1  0.67079245  0.50660737  0.49960748  1
  K  K12  1  0.16432425  0.24980801  0.00841842  1
  K  K13  1  0.16817762  0.24662750  0.49451510  1
  K  K14  1  0.16761509  0.74990781  0.00683087  1
  K  K15  1  0.16549174  0.75085402  0.49522804  1
  K  K16  1  0.49946676  0.24525477  0.00609347  1
  K  K17  1  0.49161052  0.25325880  0.49591422  1
  K  K18  1  0.49372977  0.75549050  -0.00097478  1
  K  K19  1  0.49840430  0.75478274  0.49716396  1
  K  K20  1  0.84102359  0.24524550  0.00730262  1
  K  K21  1  0.82740811  0.24403470  0.49514352  1
  K  K22  1  0.83489908  0.74822546  0.00418917  1
  K  K23  1  0.83783838  0.74520024  0.49932536  1
  Na  Na24  1  0.16439315  0.50268257  0.24802467  1
  Na  Na25  1  0.82938113  0.17038321  0.75215818  1
  Na  Na26  1  0.49965036  0.17045824  0.74445594  1
  Li  Li27  1  0.49965049  0.50028103  0.75085050  1
  Li  Li28  1  0.84007429  0.49718801  0.25473973  1
  Li  Li29  1  0.16163095  0.66269407  0.24336503  1
  Li  Li30  1  0.33431607  0.08708494  0.24931135  1
  Li  Li31  1  0.49682288  0.16355148  0.25666560  1
  Mg  Mg32  1  -0.00169588  0.25034308  0.75140069  1
  Mg  Mg33  1  0.83368089  0.50207635  0.74802984  1
  Mg  Mg34  1  0.49888419  -0.00026955  0.74798589  1
  Mg  Mg35  1  0.67065673  0.74800277  0.25089685  1
  Mg  Mg36  1  0.33205376  0.74916062  0.75220166  1
  Mg  Mg37  1  0.66508553  0.25182758  0.75070105  1
  Mg  Mg38  1  0.33475714  0.25126906  0.75092940  1
  Mg  Mg39  1  -0.00096169  0.24883509  0.25166895  1
  Mg  Mg40  1  0.66493514  0.75060308  0.74696016  1
  Mg  Mg41  1  -0.00035258  0.74957807  0.74711173  1
  Mg  Mg42  1  0.66265337  0.24933839  0.25445114  1
  Mg  Mg43  1  0.17335071  0.00036527  0.24564803  1
  Mg  Mg44  1  0.33175398  0.74795869  0.24529720  1
  Mg  Mg45  1  0.49819446  0.00263039  0.25049947  1
  Mg  Mg46  1  0.50087484  0.49844263  0.25155145  1
  Mg  Mg47  1  0.16721654  0.00139149  0.74736776  1
  Mg  Mg48  1  0.83343909  0.00238931  0.25098091  1
  Mg  Mg49  1  0.83159532  0.00204825  0.75138667  1
  Mg  Mg50  1  0.16516821  0.49930037  0.75414534  1
  Mg  Mg51  1  0.33537072  0.24439001  0.25137577  1
  Mg  Mg52  1  0.00783263  0.74847509  0.24469265  1
  Mg  Mg53  1  0.49985987  0.33810931  0.75092000  1
  Mg  Mg54  1  0.67392607  0.58065751  0.25192909  1
  Mg  Mg55  1  -0.00179953  0.08551512  0.74896671  1
  Mg  Mg56  1  0.67000283  0.91598719  0.25330421  1
  Mg  Mg57  1  0.33550701  0.41729480  0.75402878  1
  Mg  Mg58  1  0.83286710  0.16512724  0.25251421  1
  Mg  Mg59  1  0.00267431  0.58251049  0.24766231  1
  Mg  Mg60  1  0.66159123  0.91705399  0.74761513  1
  Mg  Mg61  1  0.16458385  0.33337529  0.24940875  1
  Mg  Mg62  1  0.83210315  0.33524246  0.75173935  1
  Mg  Mg63  1  -0.00185341  0.58543027  0.74913400  1
  Mg  Mg64  1  -0.00068688  0.91712012  0.74950188  1
  Mg  Mg65  1  0.33175460  0.41467769  0.25235655  1
  Mg  Mg66  1  0.16654899  0.83175433  0.24221521  1
  Mg  Mg67  1  0.66524684  0.58363210  0.74993689  1
  Mg  Mg68  1  0.67103063  0.41723346  0.25351836  1
  Mg  Mg69  1  0.00367561  0.91590012  0.24362618  1
  Mg  Mg70  1  0.49730084  0.83395840  0.74904170  1
  Mg  Mg71  1  0.66473325  0.08575420  0.25605455  1
  Mg  Mg72  1  0.83413696  0.33499488  0.25608382  1
  Mg  Mg73  1  0.83845188  0.83443777  0.24960991  1
  Mg  Mg74  1  -0.00013278  0.41614025  0.75297553  1
  Mg  Mg75  1  0.49961913  0.66289674  0.75138322  1
  Mg  Mg76  1  -0.00248290  0.41762691  0.25158281  1
  Mg  Mg77  1  0.33395084  0.91754435  0.24574378  1
  Mg  Mg78  1  0.66420447  0.41898676  0.75131491  1
  Mg  Mg79  1  0.16729254  0.83452789  0.74951782  1
  Mg  Mg80  1  0.16472638  0.66515230  0.75166106  1
  Mg  Mg81  1  0.00094618  0.08554873  0.24746078  1
  Mg  Mg82  1  0.50149937  0.33082479  0.25352049  1
  Mg  Mg83  1  0.16682577  0.16574468  0.74705763  1
  Mg  Mg84  1  0.50163203  0.83315158  0.24887390  1
  Mg  Mg85  1  0.66364245  0.08459356  0.74962182  1
  Mg  Mg86  1  0.16623476  0.33518565  0.75457674  1
  Mg  Mg87  1  0.16732387  0.16395862  0.24821632  1
  Mg  Mg88  1  0.33078157  0.58269324  0.24862368  1
  Mg  Mg89  1  0.50192055  0.66421116  0.24978090  1
  Mg  Mg90  1  0.33266007  0.08492024  0.74624016  1
  Mg  Mg91  1  0.83921182  0.66395829  0.24966389  1
  Mg  Mg92  1  0.83075473  0.83541645  0.74826478  1
  Mg  Mg93  1  0.33172282  0.91424986  0.74850502  1
  Mg  Mg94  1  0.33501417  0.58121639  0.75272758  1
  Mg  Mg95  1  0.83277640  0.66599606  0.74677605  1
  Fe  Fe96  1  0.51756888  0.91829397  0.60791729  1
  Fe  Fe97  1  0.97753664  0.16449195  0.39141227  1
  Fe  Fe98  1  0.19338712  0.08490109  0.60607141  1
  Fe  Fe99  1  0.85680232  0.58040848  0.60736388  1
  Fe  Fe100  1  0.14107659  0.41422572  0.89456448  1
  Fe  Fe101  1  0.13657238  0.42022073  0.38961765  1
  Fe  Fe102  1  0.02861756  0.66757613  0.60826903  1
  Fe  Fe103  1  0.30811410  0.83508002  0.89086919  1
  Fe  Fe104  1  0.80368251  0.08072970  0.39457234  1
  Fe  Fe105  1  0.46622673  0.08394449  0.38824106  1
  Fe  Fe106  1  0.01791478  0.83267633  0.10114661  1
  Fe  Fe107  1  0.19725937  0.91273373  0.10350351  1
  Fe  Fe108  1  0.63407672  0.17406645  0.39365832  1
  Fe  Fe109  1  0.81113758  0.42061085  0.39149209  1
  Fe  Fe110  1  0.19836220  0.08975598  0.10625961  1
  Fe  Fe111  1  0.01917686  0.16995746  0.10629978  1
  Fe  Fe112  1  0.02180077  0.65737230  0.10414977  1
  Si  Si113  1  0.80569476  0.07910834  0.88727385  1
  Si  Si114  1  0.81166017  0.90891009  0.38869031  1
  Si  Si115  1  0.31124818  0.83124509  0.38162052  1
  Si  Si116  1  0.19743030  0.58060409  0.61655028  1
  Si  Si117  1  0.53006979  0.07951727  0.11577718  1
  Si  Si118  1  0.64593431  0.16872519  0.88672187  1
  Si  Si119  1  0.64290862  0.66160397  0.38564464  1
  Si  Si120  1  0.63947483  0.66508300  0.88642435  1
  Si  Si121  1  0.97435992  0.33196914  0.39149051  1
  Si  Si122  1  0.19072395  0.91231222  0.61045902  1
  Si  Si123  1  0.97346005  0.16381957  0.88541646  1
  Si  Si124  1  0.69432827  0.66664962  0.11508046  1
  Si  Si125  1  0.20139589  0.58075562  0.10993610  1
  Si  Si126  1  0.47852239  0.08343556  0.88337292  1
  Si  Si127  1  0.68544844  0.16596627  0.61565008  1
  Si  Si128  1  0.69041776  0.33001124  0.11718688  1
  Si  Si129  1  0.14127119  0.08647512  0.88444382  1
  Si  Si130  1  0.64303997  0.33442927  0.88755386  1
  Si  Si131  1  0.52879821  0.41741765  0.11738192  1
  Si  Si132  1  0.01947720  0.16896041  0.61271145  1
  Si  Si133  1  0.47779538  0.41430508  0.88747024  1
  Si  Si134  1  0.52813140  0.41993162  0.61672543  1
  Si  Si135  1  0.80240752  0.91532173  0.88584120  1
  Si  Si136  1  0.85337900  0.41504973  0.11766744  1
  Si  Si137  1  0.31149669  0.66338284  0.88878931  1
  Si  Si138  1  0.14296236  0.59000761  0.38660299  1
  Si  Si139  1  0.85405350  0.57750723  0.11307138  1
  Si  Si140  1  0.47499025  0.57914313  0.88667205  1
  Si  Si141  1  0.68887213  0.33013559  0.61623628  1
  Si  Si142  1  0.53265720  0.91551931  0.11571906  1
  Si  Si143  1  0.47724141  0.92010502  0.88804582  1
  Si  Si144  1  0.68991769  0.67211049  0.61158972  1
  Si  Si145  1  0.64061830  0.34380879  0.39153303  1
  Si  Si146  1  0.14013497  0.58708641  0.88977276  1
  Si  Si147  1  0.30491247  0.33055448  0.38796321  1
  Si  Si148  1  0.36646613  0.66155602  0.11237690  1
  Si  Si149  1  0.31240194  0.16385514  0.88546685  1
  Si  Si150  1  0.63884678  0.83071428  0.88538954  1
  Si  Si151  1  0.85789601  0.92088844  0.61520735  1
  Si  Si152  1  0.14018170  0.07785941  0.38425928  1
  Si  Si153  1  0.35913914  0.34014011  0.61579973  1
  Si  Si154  1  0.53214225  0.58137626  0.11573941  1
  Si  Si155  1  0.52920633  0.58526116  0.61576596  1
  Si  Si156  1  0.31114447  0.66809286  0.38310968  1
  Si  Si157  1  0.85036598  0.08258267  0.11097251  1
  Si  Si158  1  0.36408157  0.33433989  0.11561903  1
  Si  Si159  1  0.02044745  0.83770354  0.61270488  1
  Si  Si160  1  0.36916284  0.17101857  0.11274841  1
  Si  Si161  1  0.80580716  0.41965426  0.88608021  1
  Si  Si162  1  0.96884102  0.83661553  0.88327640  1
  Si  Si163  1  0.31406073  0.32987962  0.89040393  1
  Si  Si164  1  0.13465789  0.91959838  0.88502913  1
  Si  Si165  1  0.46934227  0.41565001  0.38584375  1
  Si  Si166  1  0.14783085  0.91616821  0.38091689  1
  Si  Si167  1  0.98153487  0.83622009  0.38258547  1
  Si  Si168  1  0.80735830  0.58558474  0.88586467  1
  Si  Si169  1  0.36014342  0.17458925  0.61163588  1
  Si  Si170  1  0.47825868  0.91312479  0.38536112  1
  Si  Si171  1  0.35429699  0.82289786  0.61192384  1
  Si  Si172  1  0.19706410  0.41260057  0.11503658  1
  Si  Si173  1  0.18990094  0.41582707  0.61806310  1
  Si  Si174  1  0.68949750  0.16667493  0.11559640  1
  Si  Si175  1  0.85314331  0.92090330  0.11158079  1
  Si  Si176  1  0.36997748  0.82777391  0.11119409  1
  Si  Si177  1  0.36075044  0.65852835  0.61734533  1
  Si  Si178  1  0.81615793  0.59017001  0.38724478  1
  Si  Si179  1  0.97253239  0.67113018  0.88536184  1
  Si  Si180  1  0.69306627  0.83808872  0.61221408  1
  Si  Si181  1  0.64258584  0.82669055  0.38534587  1
  Si  Si182  1  0.47391881  0.58155383  0.38524663  1
  Si  Si183  1  0.52228509  0.08539220  0.61243593  1
  Si  Si184  1  0.01996242  0.34101595  0.11162813  1
  Si  Si185  1  0.02229394  0.33430863  0.61716642  1
  Si  Si186  1  0.85308120  0.41152243  0.61502386  1
  Si  Si187  1  0.96794784  0.32996432  0.89022889  1
  Si  Si188  1  0.29918374  0.16591157  0.38639616  1
  Si  Si189  1  0.85408111  0.08446816  0.61673797  1
  Si  Si190  1  0.69536444  0.83195769  0.11558472  1
  Si  Si191  1  0.97979901  0.67303057  0.38384735  1
  O  O192  1  0.28498063  0.13707176  0.06996262  1
  O  O193  1  0.28312236  0.12802152  0.57132286  1
  O  O194  1  0.28177841  0.61780429  0.07889688  1
  O  O195  1  0.28810571  0.59858478  0.59151417  1
  O  O196  1  0.60782564  0.11646149  0.08337401  1
  O  O197  1  0.60668120  0.11421781  0.58360601  1
  O  O198  1  0.60739591  0.62225557  0.08504238  1
  O  O199  1  0.60386309  0.62450275  0.58342272  1
  O  O200  1  0.92409337  0.10921660  0.07276090  1
  O  O201  1  0.93234644  0.12170156  0.58745349  1
  O  O202  1  0.92716809  0.59636698  0.07140699  1
  O  O203  1  0.94739515  0.60450716  0.56812197  1
  O  O204  1  0.10248843  0.38001964  0.08539818  1
  O  O205  1  0.10563290  0.36729260  0.58998871  1
  O  O206  1  0.10582740  0.86140417  0.06033977  1
  O  O207  1  0.10381119  0.86610139  0.58415756  1
  O  O208  1  0.43567765  0.38409668  0.08627390  1
  O  O209  1  0.43715816  0.38036955  0.58707652  1
  O  O210  1  0.45437652  0.86236489  0.08585950  1
  O  O211  1  0.43029111  0.85120174  0.57638126  1
  O  O212  1  0.77071192  0.36293245  0.08613523  1
  O  O213  1  0.77509866  0.35396751  0.58953704  1
  O  O214  1  0.77410009  0.86398427  0.08426256  1
  O  O215  1  0.78164353  0.86379840  0.58728362  1
  O  O216  1  0.27018206  0.36717467  0.08340242  1
  O  O217  1  0.27121208  0.38421421  0.58774413  1
  O  O218  1  0.28993805  0.86902972  0.07200799  1
  O  O219  1  0.26617896  0.86612307  0.58414600  1
  O  O220  1  0.60364934  0.37583682  0.08604764  1
  O  O221  1  0.60575993  0.38071228  0.58652743  1
  O  O222  1  0.61313532  0.88156974  0.08513719  1
  O  O223  1  0.61840004  0.89051120  0.57833219  1
  O  O224  1  0.93584291  0.39289334  0.08397054  1
  O  O225  1  0.93920879  0.38334288  0.58892560  1
  O  O226  1  0.92917305  0.90138993  0.07379718  1
  O  O227  1  0.94368963  0.89678143  0.58815704  1
  O  O228  1  0.10292446  0.13802981  0.06345303  1
  O  O229  1  0.09307929  0.13712317  0.57706520  1
  O  O230  1  0.11620931  0.61725759  0.07094073  1
  O  O231  1  0.13090559  0.63870197  0.58076669  1
  O  O232  1  0.44843999  0.12866873  0.08533521  1
  O  O233  1  0.45150291  0.14968527  0.59295773  1
  O  O234  1  0.44417594  0.62133874  0.08334563  1
  O  O235  1  0.44327740  0.63119489  0.58674999  1
  O  O236  1  0.76810432  0.13540334  0.08314212  1
  O  O237  1  0.77061292  0.13440638  0.59121554  1
  O  O238  1  0.76988890  0.62982212  0.08307498  1
  O  O239  1  0.76485118  0.64368729  0.57624899  1
  O  O240  1  0.05961456  0.09255019  0.41897264  1
  O  O241  1  0.06611797  0.12789338  0.91527061  1
  O  O242  1  0.06335942  0.62730651  0.41789381  1
  O  O243  1  0.06120654  0.63058378  0.91479511  1
  O  O244  1  0.36917691  0.11042057  0.42255463  1
  O  O245  1  0.39887686  0.11762637  0.91469322  1
  O  O246  1  0.39789787  0.62185316  0.41571932  1
  O  O247  1  0.39338153  0.60952647  0.91660706  1
  O  O248  1  0.71451786  0.10909437  0.43340980  1
  O  O249  1  0.73240859  0.12352757  0.91940397  1
  O  O250  1  0.73155877  0.62197317  0.41641986  1
  O  O251  1  0.72832031  0.62294885  0.91610366  1
  O  O252  1  0.23257598  0.36338405  0.42497892  1
  O  O253  1  0.24266235  0.36446719  0.92690915  1
  O  O254  1  0.22948311  0.86397380  0.41064580  1
  O  O255  1  0.21229492  0.87120449  0.92029339  1
  O  O256  1  0.55157477  0.36886185  0.41758180  1
  O  O257  1  0.56527521  0.37062349  0.91872619  1
  O  O258  1  0.56244509  0.86150037  0.41334983  1
  O  O259  1  0.56314227  0.87070240  0.91518660  1
  O  O260  1  0.88633978  0.34519828  0.42004871  1
  O  O261  1  0.88800002  0.37102815  0.91627214  1
  O  O262  1  0.89902333  0.86175901  0.41405595  1
  O  O263  1  0.88817061  0.86954425  0.91289489  1
  O  O264  1  0.03976634  0.39545520  0.42324468  1
  O  O265  1  0.05360842  0.36676286  0.92786447  1
  O  O266  1  0.06523507  0.88578302  0.41174380  1
  O  O267  1  0.04822757  0.88943481  0.90943828  1
  O  O268  1  0.39081378  0.38009076  0.41567326  1
  O  O269  1  0.40306860  0.37401391  0.91903295  1
  O  O270  1  0.39751934  0.87514022  0.41317530  1
  O  O271  1  0.40353265  0.89214439  0.92559438  1
  O  O272  1  0.70717613  0.40643818  0.42040773  1
  O  O273  1  0.72641299  0.38387739  0.91642380  1
  O  O274  1  0.73345252  0.86410191  0.41501047  1
  O  O275  1  0.72659634  0.87346473  0.91546961  1
  O  O276  1  0.21112582  0.13991318  0.41168203  1
  O  O277  1  0.23181186  0.12709631  0.91284480  1
  O  O278  1  0.23011529  0.63908149  0.41395900  1
  O  O279  1  0.22817556  0.63217433  0.91639524  1
  O  O280  1  0.54171675  0.15022779  0.43092597  1
  O  O281  1  0.56310415  0.13313409  0.91266759  1
  O  O282  1  0.56471061  0.62192734  0.41477074  1
  O  O283  1  0.56185973  0.62600066  0.91633265  1
  O  O284  1  0.89211093  0.13695060  0.43548774  1
  O  O285  1  0.89845247  0.11683476  0.91209602  1
  O  O286  1  0.89431718  0.64819217  0.41231510  1
  O  O287  1  0.89329905  0.63210089  0.91400836  1
  O  O288  1  0.19014321  0.00155403  0.06322305  1
  O  O289  1  0.18188488  -0.01050982  0.57428436  1
  O  O290  1  0.20102445  0.49457977  0.08512449  1
  O  O291  1  0.17271467  0.49788295  0.58952688  1
  O  O292  1  0.51771831  -0.00318019  0.08349754  1
  O  O293  1  0.48836945  0.01132948  0.57537125  1
  O  O294  1  0.52875912  0.49931108  0.08599883  1
  O  O295  1  0.52022460  0.50253212  0.58647605  1
  O  O296  1  0.81552384  0.00103683  0.08646438  1
  O  O297  1  0.83450539  0.00233760  0.58613984  1
  O  O298  1  0.82023400  0.49509497  0.09000020  1
  O  O299  1  0.82084078  0.48653595  0.58096466  1
  O  O300  1  -0.00036417  0.26583254  0.07265416  1
  O  O301  1  0.00184975  0.25315207  0.58782176  1
  O  O302  1  -0.01321299  0.74393318  0.06372234  1
  O  O303  1  -0.00807339  0.76168673  0.57874002  1
  O  O304  1  0.37479184  0.25526289  0.08345473  1
  O  O305  1  0.34954150  0.25936430  0.58457487  1
  O  O306  1  0.36625572  0.74352130  0.08334210  1
  O  O307  1  0.33354364  0.73829762  0.58712323  1
  O  O308  1  0.67158586  0.24890622  0.08509227  1
  O  O309  1  0.66710123  0.24861214  0.58738482  1
  O  O310  1  0.67874919  0.74942990  0.08596517  1
  O  O311  1  0.66879577  0.75555909  0.58584076  1
  O  O312  1  0.17487507  -0.00380746  0.41078653  1
  O  O313  1  0.14660362  0.00361015  0.91165773  1
  O  O314  1  0.16316760  0.51402980  0.42464299  1
  O  O315  1  0.14962704  0.50990021  0.92653679  1
  O  O316  1  0.49699660  -0.01082483  0.42106336  1
  O  O317  1  0.50265567  0.00299959  0.91480215  1
  O  O318  1  0.48096740  0.49927400  0.41497604  1
  O  O319  1  0.49198606  0.49711181  0.91707248  1
  O  O320  1  0.82420328  -0.01588675  0.42659541  1
  O  O321  1  0.80884170  -0.00342730  0.91821556  1
  O  O322  1  0.84334929  0.51498501  0.42298830  1
  O  O323  1  0.81767817  0.50280784  0.91519181  1
  O  O324  1  0.32321901  0.24809693  0.41704712  1
  O  O325  1  0.33025995  0.24537466  0.91584182  1
  O  O326  1  0.32822102  0.74995683  0.41381308  1
  O  O327  1  0.33639221  0.74065506  0.92216056  1
  O  O328  1  0.66870066  0.26749518  0.42582415  1
  O  O329  1  0.65711607  0.25173581  0.91712938  1
  O  O330  1  0.64860053  0.74397073  0.41494758  1
  O  O331  1  0.64737341  0.74798233  0.91586731  1
  O  O332  1  1.01716746  0.25587667  0.42005337  1
  O  O333  1  0.96567871  0.24517483  0.91509858  1
  O  O334  1  1.00253831  0.75506832  0.41243395  1
  O  O335  1  0.98179297  0.75443526  0.91267740  1
  O  O336  1  0.21111124  0.08437127  0.19694833  1
  O  O337  1  0.21056865  0.08387195  0.69857375  1
  O  O338  1  0.22025540  0.58729673  0.18871807  1
  O  O339  1  0.21137225  0.58142992  0.69790576  1
  O  O340  1  0.55105199  0.07484497  0.19438303  1
  O  O341  1  0.54644007  0.07494300  0.69212406  1
  O  O342  1  0.54665569  0.58316303  0.19580583  1
  O  O343  1  0.54691029  0.58690173  0.69559378  1
  O  O344  1  0.87323835  0.08289397  0.19129415  1
  O  O345  1  0.87806013  0.07783001  0.69602620  1
  O  O346  1  0.87532957  0.58646057  0.19241868  1
  O  O347  1  0.87698658  0.58417028  0.70069510  1
  O  O348  1  0.03878615  0.33390637  0.19167080  1
  O  O349  1  0.04241732  0.33374697  0.69788553  1
  O  O350  1  0.04326560  0.83361363  0.19398377  1
  O  O351  1  0.04088003  0.83563725  0.69424729  1
  O  O352  1  0.37962101  0.33547140  0.19559294  1
  O  O353  1  0.37626669  0.33801870  0.69621372  1
  O  O354  1  0.38314898  0.82827915  0.19193156  1
  O  O355  1  0.37608135  0.82851368  0.69299779  1
  O  O356  1  0.70727397  0.33192667  0.19668837  1
  O  O357  1  0.70759070  0.33564632  0.69677973  1
  O  O358  1  0.71205587  0.83163809  0.19589386  1
  O  O359  1  0.70887950  0.83566296  0.69379976  1
  O  O360  1  0.21755717  0.40865106  0.19400904  1
  O  O361  1  0.21133264  0.41574933  0.69857942  1
  O  O362  1  0.21380591  0.91444899  0.19567215  1
  O  O363  1  0.20801775  0.91621171  0.69174372  1
  O  O364  1  0.54472528  0.41796476  0.19727447  1
  O  O365  1  0.54549755  0.41892944  0.69648034  1
  O  O366  1  0.55028261  0.91329699  0.19579685  1
  O  O367  1  0.54149511  0.91424460  0.70039845  1
  O  O368  1  0.87578536  0.41025073  0.19649672  1
  O  O369  1  0.87458375  0.41612554  0.69657227  1
  O  O370  1  0.87367094  0.91699374  0.19251923  1
  O  O371  1  0.87442710  0.91860034  0.69611684  1
  O  O372  1  0.04423641  0.16750974  0.19783029  1
  O  O373  1  0.04128028  0.16772306  0.69399397  1
  O  O374  1  0.04067420  0.66420510  0.19467976  1
  O  O375  1  0.04521998  0.66668106  0.70149711  1
  O  O376  1  0.37840476  0.17222456  0.19146511  1
  O  O377  1  0.36365914  0.17150263  0.69120224  1
  O  O378  1  0.38300891  0.66277149  0.19277965  1
  O  O379  1  0.37860719  0.66313677  0.69794630  1
  O  O380  1  0.70793505  0.16715565  0.19505194  1
  O  O381  1  0.69700912  0.16788196  0.69514010  1
  O  O382  1  0.71108110  0.66642262  0.19528128  1
  O  O383  1  0.70777893  0.66835909  0.69312285  1
  O  O384  1  0.12276325  0.07865572  0.30378501  1
  O  O385  1  0.12244513  0.08585472  0.80395134  1
  O  O386  1  0.11970451  0.58988315  0.30793890  1
  O  O387  1  0.12317893  0.58325025  0.80877062  1
  O  O388  1  0.45352173  0.07990642  0.29913229  1
  O  O389  1  0.45378267  0.07874839  0.80421973  1
  O  O390  1  0.45937432  0.58322857  0.30501249  1
  O  O391  1  0.45719314  0.58386567  0.80715414  1
  O  O392  1  0.78765478  0.08139422  0.30115296  1
  O  O393  1  0.78279390  0.07558942  0.80812672  1
  O  O394  1  0.79099034  0.59002248  0.30709666  1
  O  O395  1  0.78717394  0.58602295  0.80558484  1
  O  O396  1  0.28973724  0.33270269  0.30728242  1
  O  O397  1  0.29222255  0.33376315  0.80940569  1
  O  O398  1  0.29517960  0.83026110  0.30178203  1
  O  O399  1  0.28859741  0.83330930  0.79850199  1
  O  O400  1  0.62207002  0.33871551  0.30975694  1
  O  O401  1  0.62303936  0.33653274  0.80764951  1
  O  O402  1  0.62588602  0.82879506  0.30472948  1
  O  O403  1  0.62310249  0.83009584  0.80517657  1
  O  O404  1  0.95632702  0.33219271  0.30907182  1
  O  O405  1  0.95500864  0.33397865  0.80934579  1
  O  O406  1  0.95925624  0.83599301  0.30253730  1
  O  O407  1  0.95195645  0.83462736  0.80252737  1
  O  O408  1  0.11689218  0.40950520  0.30014874  1
  O  O409  1  0.12117336  0.41617696  0.80274776  1
  O  O410  1  0.12583164  0.91591410  0.30126072  1
  O  O411  1  0.12127367  0.91831669  0.80365388  1
  O  O412  1  0.45610467  0.41716550  0.30550662  1
  O  O413  1  0.45708586  0.41546690  0.80800308  1
  O  O414  1  0.46046659  0.91203800  0.30449650  1
  O  O415  1  0.45579744  0.91566672  0.80723319  1
  O  O416  1  0.78766685  0.41782153  0.30078277  1
  O  O417  1  0.78830341  0.42056856  0.80567125  1
  O  O418  1  0.79218877  0.91236467  0.30746347  1
  O  O419  1  0.78538155  0.91587348  0.80527831  1
  O  O420  1  0.28588898  0.17022450  0.30666100  1
  O  O421  1  0.29292957  0.16681304  0.80524217  1
  O  O422  1  0.30039078  0.66651014  0.30393104  1
  O  O423  1  0.29203816  0.66399006  0.80747858  1
  O  O424  1  0.62145628  0.16819047  0.30226872  1
  O  O425  1  0.63305952  0.16877028  0.80770384  1
  O  O426  1  0.62488092  0.66384812  0.30512250  1
  O  O427  1  0.62330820  0.66648963  0.80612383  1
  O  O428  1  0.95296520  0.16423140  0.29924426  1
  O  O429  1  0.96375356  0.16625840  0.80610475  1
  O  O430  1  0.95914768  0.67018536  0.30392299  1
  O  O431  1  0.95329944  0.67000882  0.80520358  1
  F  F432  1  0.04594705  0.00053738  0.19830260  1
  F  F433  1  0.04397887  0.00097056  0.70227731  1
  F  F434  1  0.03000508  0.49858063  0.19432972  1
  F  F435  1  0.04447606  0.50033935  0.70401367  1
  F  F436  1  0.38752953  -0.01344125  0.19286308  1
  F  F437  1  0.37685983  -0.00220770  0.70098489  1
  F  F438  1  0.38262952  0.49932948  0.20101408  1
  F  F439  1  0.37523059  0.49899848  0.70452873  1
  F  F440  1  0.71175879  -0.00461825  0.20306069  1
  F  F441  1  0.71140195  -0.00066914  0.70233938  1
  F  F442  1  0.69989465  0.50079175  0.19768227  1
  F  F443  1  0.71068161  0.50137201  0.70197348  1
  F  F444  1  0.21364520  0.25112007  0.20143223  1
  F  F445  1  0.21169464  0.25378032  0.70488687  1
  F  F446  1  0.21777981  0.75272299  0.19488823  1
  F  F447  1  0.21103588  0.74663398  0.70296656  1
  F  F448  1  0.54864072  0.26067044  0.19874294  1
  F  F449  1  0.54919076  0.26491947  0.69974037  1
  F  F450  1  0.54976438  0.74727184  0.20151305  1
  F  F451  1  0.54379229  0.74781645  0.70276082  1
  F  F452  1  0.87440283  0.25137623  0.20275539  1
  F  F453  1  0.88185085  0.26017522  0.70175602  1
  F  F454  1  0.87748816  0.75081739  0.20137241  1
  F  F455  1  0.87588330  0.75220469  0.70106113  1
  F  F456  1  0.29101623  -0.00729117  0.29852134  1
  F  F457  1  0.28811841  -0.00144260  0.79696218  1
  F  F458  1  0.30333874  0.50035236  0.30245635  1
  F  F459  1  0.28828602  0.49936526  0.80263729  1
  F  F460  1  0.62235826  -0.00498629  0.30077859  1
  F  F461  1  0.62092610  -0.00038904  0.80036157  1
  F  F462  1  0.61995655  0.50302962  0.30023406  1
  F  F463  1  0.62769453  0.50238478  0.80203308  1
  F  F464  1  0.95529204  -0.00265507  0.29314244  1
  F  F465  1  0.95410696  -0.00018333  0.79925834  1
  F  F466  1  0.95829950  0.50308055  0.29893052  1
  F  F467  1  0.95390983  0.49986060  0.80055495  1
  F  F468  1  0.12181228  0.24969744  0.29608080  1
  F  F469  1  0.12182142  0.24870929  0.79878575  1
  F  F470  1  0.12477321  0.75560889  0.29723218  1
  F  F471  1  0.12061750  0.75301880  0.79905408  1
  F  F472  1  0.45206756  0.25566178  0.30121750  1
  F  F473  1  0.45160950  0.26024451  0.80129237  1
  F  F474  1  0.45814969  0.74752778  0.29615099  1
  F  F475  1  0.45605578  0.74863021  0.79895078  1
  F  F476  1  0.78527189  0.24918574  0.29834180  1
  F  F477  1  0.78151349  0.26270135  0.80420811  1
  F  F478  1  0.79035489  0.75001395  0.29771094  1
  F  F479  1  0.78546348  0.75047504  0.79636371  1
