# generated using pymatgen
data_K24Na3Li5Mg64Fe17Si79(O5F)48
_symmetry_space_group_name_H-M   'P 1'
_cell_length_a   16.08321713
_cell_length_b   18.58097302
_cell_length_c   20.54995297
_cell_angle_alpha   89.98300611
_cell_angle_beta   100.00661733
_cell_angle_gamma   90.00453101
_symmetry_Int_Tables_number   1
_chemical_formula_structural   K24Na3Li5Mg64Fe17Si79(O5F)48
_chemical_formula_sum   'K24 Na3 Li5 Mg64 Fe17 Si79 O240 F48'
_cell_volume   6047.76354243
_cell_formula_units_Z   1
loop_
 _symmetry_equiv_pos_site_id
 _symmetry_equiv_pos_as_xyz
  1  'x, y, z'
loop_
 _atom_site_type_symbol
 _atom_site_label
 _atom_site_symmetry_multiplicity
 _atom_site_fract_x
 _atom_site_fract_y
 _atom_site_fract_z
 _atom_site_occupancy
  K  K0  1  -0.00275521  -0.00210600  0.00408113  1
  K  K1  1  0.00949839  -0.00258030  0.49042995  1
  K  K2  1  -0.00159758  0.49813767  0.00875624  1
  K  K3  1  0.00188030  0.49679470  0.48092230  1
  K  K4  1  0.33810928  0.00417037  0.00182811  1
  K  K5  1  0.32460283  0.00436852  0.49061633  1
  K  K6  1  0.32687016  0.49890855  0.00843993  1
  K  K7  1  0.33334454  0.49492813  0.49005380  1
  K  K8  1  0.66354869  -0.00056274  0.00119353  1
  K  K9  1  0.66043998  0.00305204  0.49762305  1
  K  K10  1  0.69176085  0.49560583  0.00953136  1
  K  K11  1  0.67149140  0.49913414  0.49383983  1
  K  K12  1  0.16342396  0.25033144  0.00688348  1
  K  K13  1  0.16753663  0.25845049  0.49350175  1
  K  K14  1  0.16649756  0.75488863  0.00965306  1
  K  K15  1  0.15317424  0.75414310  0.47801201  1
  K  K16  1  0.49777055  0.25032443  -0.00158101  1
  K  K17  1  0.48417556  0.25147493  0.49537478  1
  K  K18  1  0.50749041  0.75383708  0.00959881  1
  K  K19  1  0.49137323  0.74495648  0.49014313  1
  K  K20  1  0.83604516  0.25457963  0.00143750  1
  K  K21  1  0.83696606  0.25518504  0.49627161  1
  K  K22  1  0.83303289  0.74889411  0.00595692  1
  K  K23  1  0.84135256  0.74389541  0.48851793  1
  Na  Na24  1  0.83757309  0.49967362  0.24572746  1
  Na  Na25  1  0.00036292  0.58122752  0.75303997  1
  Na  Na26  1  0.16108467  0.33297628  0.24083443  1
  Li  Li27  1  0.67189093  0.75011695  0.24790954  1
  Li  Li28  1  0.33600540  0.25111091  0.74646489  1
  Li  Li29  1  0.00312293  0.08344057  0.25386828  1
  Li  Li30  1  0.00003948  0.41796403  0.24341756  1
  Li  Li31  1  0.16620835  0.66518223  0.25013188  1
  Mg  Mg32  1  0.00028739  0.24789343  0.75154272  1
  Mg  Mg33  1  0.83613084  -0.00063595  0.25090998  1
  Mg  Mg34  1  0.33159886  0.75006384  0.74862000  1
  Mg  Mg35  1  0.49767865  0.00214679  0.75264102  1
  Mg  Mg36  1  -0.00115081  0.75052884  0.75394485  1
  Mg  Mg37  1  0.66503026  0.24911533  0.75190774  1
  Mg  Mg38  1  0.16406574  0.50129088  0.24449031  1
  Mg  Mg39  1  0.33205890  0.74695459  0.25443348  1
  Mg  Mg40  1  0.00153335  0.75040038  0.25295388  1
  Mg  Mg41  1  0.83423413  0.50151510  0.75178075  1
  Mg  Mg42  1  0.32969676  0.25069486  0.25115071  1
  Mg  Mg43  1  -0.00165473  0.25031293  0.24717288  1
  Mg  Mg44  1  0.66733045  0.75021211  0.75178245  1
  Mg  Mg45  1  0.49844060  -0.00103628  0.25329029  1
  Mg  Mg46  1  0.49974780  0.50058555  0.25255208  1
  Mg  Mg47  1  0.66629028  0.24980150  0.25035156  1
  Mg  Mg48  1  0.16651363  0.00249906  0.75411472  1
  Mg  Mg49  1  0.16222457  -0.00077266  0.25369578  1
  Mg  Mg50  1  0.83223712  -0.00018351  0.75569331  1
  Mg  Mg51  1  0.16542625  0.49880018  0.74474768  1
  Mg  Mg52  1  0.49947112  0.49938873  0.74562059  1
  Mg  Mg53  1  0.66606394  0.08283392  0.25130328  1
  Mg  Mg54  1  0.50038037  0.66589464  0.74968312  1
  Mg  Mg55  1  0.83649801  0.83501202  0.75481101  1
  Mg  Mg56  1  0.66761618  0.41654121  0.24816286  1
  Mg  Mg57  1  0.66724948  0.41597421  0.74965676  1
  Mg  Mg58  1  0.33346120  0.91399264  0.25640839  1
  Mg  Mg59  1  0.83716462  0.66538340  0.75337933  1
  Mg  Mg60  1  0.00171183  0.41533113  0.74883352  1
  Mg  Mg61  1  0.16612046  0.83186707  0.25616431  1
  Mg  Mg62  1  0.16477798  0.83472135  0.75156973  1
  Mg  Mg63  1  0.83217315  0.66684286  0.24725436  1
  Mg  Mg64  1  0.33230972  0.08347103  0.25590641  1
  Mg  Mg65  1  0.17032234  0.33226555  0.74526294  1
  Mg  Mg66  1  0.33334646  0.41357909  0.74384863  1
  Mg  Mg67  1  0.00174478  0.08523470  0.75276694  1
  Mg  Mg68  1  0.49707193  0.33256758  0.74679783  1
  Mg  Mg69  1  0.16234291  0.16479831  0.25244669  1
  Mg  Mg70  1  0.49795912  0.16444739  0.25368339  1
  Mg  Mg71  1  0.50405896  0.66670811  0.25219037  1
  Mg  Mg72  1  0.33278498  0.91701952  0.75094266  1
  Mg  Mg73  1  0.66606524  0.08495745  0.75510174  1
  Mg  Mg74  1  0.33123148  0.58368081  0.74617124  1
  Mg  Mg75  1  0.50318617  0.83174064  0.25056237  1
  Mg  Mg76  1  0.49751176  0.16693077  0.75070419  1
  Mg  Mg77  1  0.83577050  0.33416377  0.75139396  1
  Mg  Mg78  1  0.83510445  0.33355576  0.24731157  1
  Mg  Mg79  1  0.33343425  0.58397459  0.25057846  1
  Mg  Mg80  1  0.00197778  0.58250123  0.24724503  1
  Mg  Mg81  1  0.83503254  0.16552338  0.75452284  1
  Mg  Mg82  1  0.83283732  0.83245141  0.25039934  1
  Mg  Mg83  1  0.16936653  0.16740624  0.75203906  1
  Mg  Mg84  1  0.00076628  0.91636269  0.75455729  1
  Mg  Mg85  1  0.66758476  0.58520048  0.24850480  1
  Mg  Mg86  1  0.66895802  0.91606389  0.75342631  1
  Mg  Mg87  1  0.50008814  0.83457768  0.75199795  1
  Mg  Mg88  1  0.00159349  0.91783034  0.25317500  1
  Mg  Mg89  1  0.33442305  0.08920475  0.75210106  1
  Mg  Mg90  1  0.16354267  0.66576846  0.74757979  1
  Mg  Mg91  1  0.33371103  0.41801622  0.24981191  1
  Mg  Mg92  1  0.49846932  0.33423443  0.25153147  1
  Mg  Mg93  1  0.66789437  0.91367672  0.24915979  1
  Mg  Mg94  1  0.67007873  0.58460698  0.75110967  1
  Mg  Mg95  1  0.83523300  0.16461069  0.25131282  1
  Fe  Fe96  1  0.13376469  0.09180650  0.39199601  1
  Fe  Fe97  1  0.69076684  0.83095763  0.11001295  1
  Fe  Fe98  1  0.14338994  0.08438677  0.89257641  1
  Fe  Fe99  1  0.47281879  0.08195511  0.39375772  1
  Fe  Fe100  1  0.14390630  0.91929406  0.39614525  1
  Fe  Fe101  1  0.81306341  0.58707574  0.89203714  1
  Fe  Fe102  1  0.63729691  0.16757355  0.89187333  1
  Fe  Fe103  1  0.97248052  0.16630794  0.89299733  1
  Fe  Fe104  1  0.48454067  0.58751187  0.39239845  1
  Fe  Fe105  1  0.35660894  0.33228079  0.60516511  1
  Fe  Fe106  1  0.80794719  0.91456813  0.89456869  1
  Fe  Fe107  1  0.19228882  0.42162412  0.10573675  1
  Fe  Fe108  1  0.98258763  0.83177101  0.89454629  1
  Fe  Fe109  1  0.96923111  0.82964262  0.39160099  1
  Fe  Fe110  1  0.86506879  0.41201605  0.10694285  1
  Fe  Fe111  1  0.46738790  0.08257127  0.89333774  1
  Fe  Fe112  1  0.48221452  0.41426626  0.39174556  1
  Si  Si113  1  0.19608726  0.91501756  0.11895537  1
  Si  Si114  1  0.02370714  0.32316959  0.10381486  1
  Si  Si115  1  0.86000942  0.91867650  0.11350237  1
  Si  Si116  1  0.97453505  0.65831405  0.38588181  1
  Si  Si117  1  0.63684967  0.66564182  0.88668678  1
  Si  Si118  1  0.68974292  0.33116353  0.11138197  1
  Si  Si119  1  0.47894891  0.90879131  0.39045631  1
  Si  Si120  1  0.96369565  0.17329131  0.38916908  1
  Si  Si121  1  0.30707477  0.66122356  0.38836769  1
  Si  Si122  1  0.35995357  0.83284716  0.11823822  1
  Si  Si123  1  0.98527177  0.66759503  0.89015906  1
  Si  Si124  1  0.02645665  0.67452386  0.11579131  1
  Si  Si125  1  0.35707003  0.16659265  0.11672996  1
  Si  Si126  1  0.19460704  0.07944436  0.11807744  1
  Si  Si127  1  0.69431740  0.83356381  0.61473278  1
  Si  Si128  1  0.69447481  0.33344206  0.61457218  1
  Si  Si129  1  0.31104541  0.82823237  0.39164657  1
  Si  Si130  1  0.69323913  0.66878468  0.61328229  1
  Si  Si131  1  0.19054392  0.91507027  0.61635172  1
  Si  Si132  1  0.85621102  0.58300434  0.61337357  1
  Si  Si133  1  0.53004645  0.41984757  0.61065005  1
  Si  Si134  1  0.47091278  0.58438629  0.88257700  1
  Si  Si135  1  0.85932149  0.41654556  0.61331702  1
  Si  Si136  1  0.52606721  0.41362465  0.11516396  1
  Si  Si137  1  0.80497045  0.08367870  0.38598312  1
  Si  Si138  1  0.30508061  0.82790561  0.88456890  1
  Si  Si139  1  0.64981151  0.67460309  0.38638745  1
  Si  Si140  1  0.14063495  0.57861975  0.38162680  1
  Si  Si141  1  0.52309327  0.08423481  0.11671269  1
  Si  Si142  1  0.47497168  0.42027134  0.88263142  1
  Si  Si143  1  0.36058608  0.33159505  0.11137845  1
  Si  Si144  1  0.35860017  0.83440348  0.61456041  1
  Si  Si145  1  0.02431619  0.33312579  0.61251307  1
  Si  Si146  1  0.64306723  0.16475071  0.38769897  1
  Si  Si147  1  0.02306209  0.83448857  0.61508402  1
  Si  Si148  1  0.85907295  0.08488948  0.61469262  1
  Si  Si149  1  0.85862552  0.91998290  0.61501411  1
  Si  Si150  1  0.35892645  0.15963694  0.61047170  1
  Si  Si151  1  0.86374798  0.58879702  0.11080691  1
  Si  Si152  1  0.02178236  0.67065504  0.61379616  1
  Si  Si153  1  0.30949551  0.33703668  0.88147859  1
  Si  Si154  1  0.64440040  0.83728984  0.38397279  1
  Si  Si155  1  0.64778698  0.32617534  0.38769005  1
  Si  Si156  1  0.02657861  0.16697798  0.61340512  1
  Si  Si157  1  0.81246734  0.41678402  0.88445272  1
  Si  Si158  1  0.63402308  0.83126273  0.88667275  1
  Si  Si159  1  0.52114446  0.91948586  0.11370096  1
  Si  Si160  1  0.52804439  0.08037708  0.61444362  1
  Si  Si161  1  0.69302175  0.16698494  0.61518675  1
  Si  Si162  1  0.97118049  0.33601091  0.38342538  1
  Si  Si163  1  0.52673344  0.58714809  0.61355057  1
  Si  Si164  1  0.19175235  0.08114498  0.61505205  1
  Si  Si165  1  0.19214882  0.59109243  0.11128582  1
  Si  Si166  1  0.30150195  0.17389856  0.88758221  1
  Si  Si167  1  0.14437474  0.41701135  0.88191718  1
  Si  Si168  1  0.80498086  0.58238612  0.38277638  1
  Si  Si169  1  0.02545628  0.16005371  0.11519866  1
  Si  Si170  1  0.64335839  0.33871826  0.88552777  1
  Si  Si171  1  0.80415552  0.41582784  0.38330342  1
  Si  Si172  1  0.13714066  0.41614616  0.37855683  1
  Si  Si173  1  0.80471326  0.92049173  0.38847653  1
  Si  Si174  1  0.52735028  0.91469480  0.61557949  1
  Si  Si175  1  0.14981374  0.91826498  0.88978068  1
  Si  Si176  1  0.69008356  0.66062906  0.11056700  1
  Si  Si177  1  0.30393351  0.17323381  0.39023497  1
  Si  Si178  1  0.30564977  0.66407528  0.88317515  1
  Si  Si179  1  0.02780343  0.83855258  0.11741756  1
  Si  Si180  1  0.35687366  0.66747419  0.61238445  1
  Si  Si181  1  0.80513302  0.08402090  0.89017768  1
  Si  Si182  1  0.85612346  0.08376184  0.11629688  1
  Si  Si183  1  0.97982480  0.33543711  0.88450349  1
  Si  Si184  1  0.68947388  0.16518253  0.11563958  1
  Si  Si185  1  0.47001467  0.91052126  0.88745487  1
  Si  Si186  1  0.52525616  0.57890065  0.11470295  1
  Si  Si187  1  0.18708887  0.58765108  0.61030284  1
  Si  Si188  1  0.18649665  0.42073240  0.60709727  1
  Si  Si189  1  0.36264381  0.66821974  0.11534555  1
  Si  Si190  1  0.30748294  0.33795662  0.38391895  1
  Si  Si191  1  0.14540630  0.57978041  0.88224177  1
  O  O192  1  0.27016206  0.12158350  0.08740244  1
  O  O193  1  0.27163263  0.11186318  0.58385558  1
  O  O194  1  0.27208072  0.63234453  0.08235396  1
  O  O195  1  0.26749827  0.62611630  0.58278263  1
  O  O196  1  0.60404384  0.11742809  0.08782442  1
  O  O197  1  0.60548917  0.12248254  0.58583309  1
  O  O198  1  0.60557881  0.60844940  0.08288867  1
  O  O199  1  0.60019976  0.63287391  0.58464615  1
  O  O200  1  0.93555761  0.11831028  0.08633768  1
  O  O201  1  0.93629566  0.12521721  0.58481786  1
  O  O202  1  0.93949879  0.63292694  0.08110712  1
  O  O203  1  0.93434612  0.62464017  0.58565790  1
  O  O204  1  0.10401783  0.35796920  0.07590036  1
  O  O205  1  0.09595604  0.37768074  0.58108029  1
  O  O206  1  0.10736979  0.87489764  0.08790544  1
  O  O207  1  0.10431976  0.86957618  0.58745782  1
  O  O208  1  0.44623069  0.36181647  0.08506185  1
  O  O209  1  0.44670700  0.38001816  0.57387992  1
  O  O210  1  0.43015611  0.87846916  0.08645967  1
  O  O211  1  0.43677284  0.87419575  0.58621507  1
  O  O212  1  0.76090425  0.36308927  0.07369304  1
  O  O213  1  0.77297737  0.37096034  0.58421502  1
  O  O214  1  0.78277286  0.87040836  0.07631360  1
  O  O215  1  0.76876302  0.87811768  0.58563749  1
  O  O216  1  0.28463188  0.37940632  0.07231727  1
  O  O217  1  0.25694930  0.38593970  0.57020321  1
  O  O218  1  0.26844778  0.86962981  0.08792119  1
  O  O219  1  0.27009923  0.87733979  0.58750633  1
  O  O220  1  0.60397371  0.37957125  0.08352972  1
  O  O221  1  0.61230604  0.38240845  0.58490396  1
  O  O222  1  0.59122746  0.88473002  0.07630671  1
  O  O223  1  0.60235324  0.87158627  0.58569128  1
  O  O224  1  0.94002907  0.36278373  0.06234270  1
  O  O225  1  0.93431461  0.37437521  0.58310360  1
  O  O226  1  0.94660768  0.88919507  0.08851403  1
  O  O227  1  0.93688336  0.88071855  0.58615214  1
  O  O228  1  0.10269446  0.11504469  0.08860229  1
  O  O229  1  0.10418822  0.12612206  0.58538206  1
  O  O230  1  0.10799485  0.64249383  0.08594756  1
  O  O231  1  0.10054346  0.63385974  0.58285839  1
  O  O232  1  0.43711495  0.13003845  0.08783840  1
  O  O233  1  0.43735103  0.11631895  0.58266965  1
  O  O234  1  0.43892666  0.62626851  0.08507346  1
  O  O235  1  0.43532857  0.62699092  0.58528403  1
  O  O236  1  0.76909935  0.13005890  0.08595799  1
  O  O237  1  0.77070727  0.12841245  0.58436725  1
  O  O238  1  0.77140474  0.62759368  0.08079812  1
  O  O239  1  0.76622827  0.62404546  0.58204796  1
  O  O240  1  0.03990925  0.12562338  0.42811210  1
  O  O241  1  0.04818233  0.09675568  0.93006168  1
  O  O242  1  0.06099563  0.61116798  0.41364399  1
  O  O243  1  0.05935973  0.60305441  0.90808038  1
  O  O244  1  0.38004406  0.12023530  0.42531122  1
  O  O245  1  0.37030392  0.11592430  0.92380411  1
  O  O246  1  0.38742470  0.61687248  0.42717109  1
  O  O247  1  0.38684102  0.61220774  0.91115735  1
  O  O248  1  0.71938434  0.10664734  0.41456280  1
  O  O249  1  0.71581462  0.09359111  0.91666320  1
  O  O250  1  0.73470561  0.62567733  0.41765000  1
  O  O251  1  0.71081319  0.61294092  0.92088600  1
  O  O252  1  0.21871074  0.36458051  0.40790429  1
  O  O253  1  0.22642465  0.36647059  0.91192954  1
  O  O254  1  0.24338419  0.86585019  0.42943115  1
  O  O255  1  0.22149152  0.85264461  0.91305188  1
  O  O256  1  0.56958310  0.34608505  0.42357629  1
  O  O257  1  0.56018352  0.37456544  0.91246361  1
  O  O258  1  0.56140011  0.85663378  0.41765522  1
  O  O259  1  0.54211282  0.84792560  0.90945362  1
  O  O260  1  0.89679098  0.38039827  0.41474015  1
  O  O261  1  0.89101983  0.36025009  0.90825033  1
  O  O262  1  0.87489461  0.86630438  0.42603822  1
  O  O263  1  0.88695327  0.84720631  0.93109825  1
  O  O264  1  0.05917589  0.38003220  0.41219807  1
  O  O265  1  0.05767885  0.39434814  0.90873715  1
  O  O266  1  0.06198535  0.87688744  0.43741935  1
  O  O267  1  0.06911327  0.90005591  0.92382741  1
  O  O268  1  0.38145097  0.38974148  0.42158495  1
  O  O269  1  0.39199636  0.38925555  0.91086594  1
  O  O270  1  0.40320738  0.86661207  0.41942604  1
  O  O271  1  0.38546571  0.87864887  0.91430747  1
  O  O272  1  0.73151324  0.37611153  0.41837821  1
  O  O273  1  0.72476412  0.39244814  0.91024319  1
  O  O274  1  0.71455902  0.89930913  0.41329871  1
  O  O275  1  0.70262399  0.88857861  0.92015485  1
  O  O276  1  0.22043472  0.15788489  0.42182377  1
  O  O277  1  0.21497959  0.16391031  0.91751733  1
  O  O278  1  0.22288372  0.62768830  0.41458032  1
  O  O279  1  0.22521037  0.63325928  0.91395103  1
  O  O280  1  0.56547314  0.14390894  0.42444993  1
  O  O281  1  0.54967317  0.14380143  0.93490144  1
  O  O282  1  0.57382507  0.65353832  0.42513330  1
  O  O283  1  0.54728150  0.64016970  0.91064411  1
  O  O284  1  0.87702986  0.14276931  0.41567945  1
  O  O285  1  0.86602005  0.15185597  0.91691575  1
  O  O286  1  0.89879349  0.61362184  0.41485078  1
  O  O287  1  0.90580092  0.64534778  0.92542437  1
  O  O288  1  0.19434334  -0.00317969  0.08815850  1
  O  O289  1  0.17646093  -0.00261561  0.58839975  1
  O  O290  1  0.17704862  0.51665959  0.06959954  1
  O  O291  1  0.17118799  0.50587074  0.58111933  1
  O  O292  1  0.50505726  0.00322205  0.08684842  1
  O  O293  1  0.52652341  -0.00324825  0.58578860  1
  O  O294  1  0.50576480  0.49613170  0.08618742  1
  O  O295  1  0.52726675  0.50526990  0.58559427  1
  O  O296  1  0.84379803  0.00218322  0.08537076  1
  O  O297  1  0.84904741  0.00235930  0.58413836  1
  O  O298  1  0.85773597  0.50952444  0.07779694  1
  O  O299  1  0.85024205  0.49954907  0.58322001  1
  O  O300  1  0.01937830  0.23731339  0.07703416  1
  O  O301  1  0.01722614  0.25001880  0.58280753  1
  O  O302  1  0.01483824  0.75753878  0.08534965  1
  O  O303  1  0.00750504  0.75289329  0.58337766  1
  O  O304  1  0.34763932  0.24724191  0.08435763  1
  O  O305  1  0.34746498  0.23652659  0.57330837  1
  O  O306  1  0.36047373  0.75144429  0.08626283  1
  O  O307  1  0.35129030  0.75124830  0.58509588  1
  O  O308  1  0.66938722  0.24656542  0.08632941  1
  O  O309  1  0.68402547  0.25023186  0.58571874  1
  O  O310  1  0.66731594  0.73756076  0.07482467  1
  O  O311  1  0.69187915  0.75147086  0.58386753  1
  O  O312  1  0.16401698  0.00733371  0.43798294  1
  O  O313  1  0.19487602  -0.00684414  0.91619476  1
  O  O314  1  0.15522264  0.49671274  0.41446564  1
  O  O315  1  0.17099511  0.49834075  0.91031934  1
  O  O316  1  0.49619150  -0.01341847  0.42600027  1
  O  O317  1  0.49419746  -0.01418370  0.92366793  1
  O  O318  1  0.52045072  0.50046367  0.43076301  1
  O  O319  1  0.49099208  0.50305966  0.91176792  1
  O  O320  1  0.82942586  0.00330357  0.41658464  1
  O  O321  1  0.84717114  0.00786258  0.91865971  1
  O  O322  1  0.80605989  0.49902019  0.41123665  1
  O  O323  1  0.84080377  0.49249285  0.91944053  1
  O  O324  1  0.33113110  0.25659358  0.41357069  1
  O  O325  1  0.33582445  0.25720701  0.91074791  1
  O  O326  1  0.31924934  0.74430072  0.41834316  1
  O  O327  1  0.32809060  0.74536331  0.91211069  1
  O  O328  1  0.68142062  0.24439413  0.41189096  1
  O  O329  1  0.66710801  0.26291649  0.92120385  1
  O  O330  1  0.67982963  0.75790729  0.41073157  1
  O  O331  1  0.65613504  0.74836902  0.91317026  1
  O  O332  1  0.97488717  0.25669919  0.42018926  1
  O  O333  1  1.01105030  0.26055100  0.91891042  1
  O  O334  1  0.98365166  0.73379581  0.42552927  1
  O  O335  1  1.03061373  0.74090396  0.92104744  1
  O  O336  1  0.21382983  0.07917535  0.19800291  1
  O  O337  1  0.21098883  0.08304185  0.69516639  1
  O  O338  1  0.21490154  0.58541941  0.19084659  1
  O  O339  1  0.20855598  0.58607945  0.69074243  1
  O  O340  1  0.54281951  0.08346799  0.19694645  1
  O  O341  1  0.54503289  0.08046626  0.69425499  1
  O  O342  1  0.54338871  0.58285349  0.19454308  1
  O  O343  1  0.54343818  0.58663952  0.69420419  1
  O  O344  1  0.86971194  0.08325924  0.19584866  1
  O  O345  1  0.87522175  0.08309488  0.69461032  1
  O  O346  1  0.88215269  0.59344948  0.19031171  1
  O  O347  1  0.86826923  0.58287558  0.69231918  1
  O  O348  1  0.02933093  0.32459962  0.18274688  1
  O  O349  1  0.04263067  0.33263431  0.69256636  1
  O  O350  1  0.04611327  0.83399475  0.19701150  1
  O  O351  1  0.04330492  0.83394249  0.69529898  1
  O  O352  1  0.37649735  0.33117685  0.19193636  1
  O  O353  1  0.37969710  0.33710175  0.69555610  1
  O  O354  1  0.37756667  0.83289245  0.19841105  1
  O  O355  1  0.37689964  0.83247253  0.69511270  1
  O  O356  1  0.70705813  0.33148013  0.19234778  1
  O  O357  1  0.71187180  0.33372832  0.69491921  1
  O  O358  1  0.71317394  0.83577242  0.20021830  1
  O  O359  1  0.70920296  0.83215186  0.69481625  1
  O  O360  1  0.21894955  0.42655221  0.19500080  1
  O  O361  1  0.20840617  0.41839959  0.68798002  1
  O  O362  1  0.21456406  0.91497562  0.19886048  1
  O  O363  1  0.21003803  0.91462694  0.69682582  1
  O  O364  1  0.54453378  0.41414016  0.19527697  1
  O  O365  1  0.54527088  0.41853251  0.69187207  1
  O  O366  1  0.54055206  0.91768861  0.19453084  1
  O  O367  1  0.54330125  0.91432292  0.69590817  1
  O  O368  1  0.87949739  0.40710051  0.19428383  1
  O  O369  1  0.87669838  0.41650765  0.69327052  1
  O  O370  1  0.87476373  0.91833788  0.19409599  1
  O  O371  1  0.87611063  0.91907666  0.69479139  1
  O  O372  1  0.04208764  0.16562924  0.19436627  1
  O  O373  1  0.04315529  0.16816384  0.69311535  1
  O  O374  1  0.04142223  0.67180949  0.19522826  1
  O  O375  1  0.04490190  0.67354095  0.69301720  1
  O  O376  1  0.37620530  0.16575637  0.19683922  1
  O  O377  1  0.37848593  0.16210415  0.69052741  1
  O  O378  1  0.37833456  0.66860038  0.19515717  1
  O  O379  1  0.37467168  0.66711859  0.69303474  1
  O  O380  1  0.70734105  0.16503069  0.19619254  1
  O  O381  1  0.71230512  0.16671773  0.69513056  1
  O  O382  1  0.70968614  0.66191283  0.19054441  1
  O  O383  1  0.70876423  0.66854477  0.69346175  1
  O  O384  1  0.12356337  0.08171882  0.30216769  1
  O  O385  1  0.12183953  0.08483663  0.79918802  1
  O  O386  1  0.12469228  0.58174210  0.30248344  1
  O  O387  1  0.13698621  0.58142525  0.80272899  1
  O  O388  1  0.45509614  0.08157842  0.30200676  1
  O  O389  1  0.45422933  0.08322526  0.80032415  1
  O  O390  1  0.45786034  0.58499021  0.30025748  1
  O  O391  1  0.45365497  0.58393116  0.80164321  1
  O  O392  1  0.78776779  0.08301944  0.30561262  1
  O  O393  1  0.78870300  0.08367107  0.80689131  1
  O  O394  1  0.78493643  0.58885212  0.30403206  1
  O  O395  1  0.78875160  0.58442172  0.79951677  1
  O  O396  1  0.29899426  0.33496886  0.30446069  1
  O  O397  1  0.28774116  0.34065623  0.80185821  1
  O  O398  1  0.29255725  0.83161081  0.31073164  1
  O  O399  1  0.28958059  0.83031346  0.80366279  1
  O  O400  1  0.62530210  0.33099526  0.30666234  1
  O  O401  1  0.62261290  0.33651892  0.80399991  1
  O  O402  1  0.62030393  0.83909491  0.30472603  1
  O  O403  1  0.62075332  0.83143742  0.80490243  1
  O  O404  1  0.95175919  0.32856336  0.30491678  1
  O  O405  1  0.95971092  0.33344012  0.80288353  1
  O  O406  1  0.95421810  0.83407434  0.30005996  1
  O  O407  1  0.95719525  0.83436533  0.80096876  1
  O  O408  1  0.11850661  0.42330277  0.30054887  1
  O  O409  1  0.12641012  0.41632333  0.80110516  1
  O  O410  1  0.12371987  0.91580060  0.30385570  1
  O  O411  1  0.12684871  0.91574969  0.80743660  1
  O  O412  1  0.45772424  0.41665778  0.29928473  1
  O  O413  1  0.45753210  0.42082361  0.80213478  1
  O  O414  1  0.45851131  0.91353969  0.30935902  1
  O  O415  1  0.45328865  0.91416536  0.80581945  1
  O  O416  1  0.78351833  0.40832510  0.30463068  1
  O  O417  1  0.79026878  0.41690025  0.80290212  1
  O  O418  1  0.79024898  0.91974205  0.30791282  1
  O  O419  1  0.78767864  0.91520553  0.80080903  1
  O  O420  1  0.29028765  0.16687056  0.30895681  1
  O  O421  1  0.28787805  0.16734400  0.80670587  1
  O  O422  1  0.29615590  0.66438276  0.30847130  1
  O  O423  1  0.28961940  0.66562451  0.80237449  1
  O  O424  1  0.62246489  0.16419894  0.30657140  1
  O  O425  1  0.61954342  0.16813195  0.79867956  1
  O  O426  1  0.62514388  0.66593701  0.30673973  1
  O  O427  1  0.62113902  0.66583072  0.80493247  1
  O  O428  1  0.95018123  0.17164451  0.30944547  1
  O  O429  1  0.95537563  0.16700747  0.79929686  1
  O  O430  1  0.95655127  0.66535384  0.30593685  1
  O  O431  1  0.95562893  0.67310303  0.80968659  1
  F  F432  1  0.04653235  -0.00626297  0.19838242  1
  F  F433  1  0.04464034  -0.00265947  0.70189183  1
  F  F434  1  0.04761520  0.50922440  0.19173108  1
  F  F435  1  0.04812004  0.49123763  0.69521499  1
  F  F436  1  0.37712970  -0.00407561  0.20484747  1
  F  F437  1  0.37839044  -0.00478912  0.69972726  1
  F  F438  1  0.38064109  0.50231776  0.19874352  1
  F  F439  1  0.37874746  0.50360447  0.69659161  1
  F  F440  1  0.71070165  0.00059033  0.20298197  1
  F  F441  1  0.70984988  0.00154634  0.70222580  1
  F  F442  1  0.69779662  0.49942300  0.19650224  1
  F  F443  1  0.71041128  0.49910522  0.69974451  1
  F  F444  1  0.21652991  0.23586011  0.19849510  1
  F  F445  1  0.20573101  0.24908195  0.69731416  1
  F  F446  1  0.21602693  0.75549179  0.20459161  1
  F  F447  1  0.21192243  0.75037261  0.69990919  1
  F  F448  1  0.54456052  0.24806255  0.20404506  1
  F  F449  1  0.54664586  0.25238514  0.69771586  1
  F  F450  1  0.53825930  0.74972436  0.19995688  1
  F  F451  1  0.54390294  0.75010911  0.70150516  1
  F  F452  1  0.87348626  0.24536040  0.20025556  1
  F  F453  1  0.87702360  0.25199860  0.69981768  1
  F  F454  1  0.87926063  0.75038446  0.20006864  1
  F  F455  1  0.87673614  0.74902442  0.70141289  1
  F  F456  1  0.28979309  -0.00215211  0.30263545  1
  F  F457  1  0.28964030  -0.00043244  0.79610249  1
  F  F458  1  0.29023328  0.50293774  0.29884684  1
  F  F459  1  0.28880858  0.50009089  0.79103283  1
  F  F460  1  0.62061676  -0.00069814  0.29778342  1
  F  F461  1  0.61858232  -0.00234092  0.79732522  1
  F  F462  1  0.62283319  0.49937588  0.29832882  1
  F  F463  1  0.61925231  0.50123973  0.79497302  1
  F  F464  1  0.95250863  -0.00225312  0.30054233  1
  F  F465  1  0.95462168  0.00075727  0.79692797  1
  F  F466  1  0.96628286  0.50696014  0.30328485  1
  F  F467  1  0.95134163  0.48887989  0.79913448  1
  F  F468  1  0.11403076  0.24316364  0.29966317  1
  F  F469  1  0.12173982  0.25371567  0.79510565  1
  F  F470  1  0.11994365  0.75313725  0.30453692  1
  F  F471  1  0.12478740  0.74893254  0.79695753  1
  F  F472  1  0.45414274  0.24936708  0.29784260  1
  F  F473  1  0.45990776  0.25164631  0.79714817  1
  F  F474  1  0.45545676  0.75043557  0.29994969  1
  F  F475  1  0.45232318  0.74812764  0.79607649  1
  F  F476  1  0.78557573  0.24861928  0.29631025  1
  F  F477  1  0.78739060  0.25217262  0.79633368  1
  F  F478  1  0.79475893  0.74798070  0.29912546  1
  F  F479  1  0.78598198  0.74911246  0.79731889  1
