# generated using pymatgen
data_K24Na3Li5Mg64Fe17Si79(O5F)48
_symmetry_space_group_name_H-M   'P 1'
_cell_length_a   16.08054311
_cell_length_b   18.56453114
_cell_length_c   20.53950666
_cell_angle_alpha   89.98446538
_cell_angle_beta   100.00086525
_cell_angle_gamma   90.01987735
_symmetry_Int_Tables_number   1
_chemical_formula_structural   K24Na3Li5Mg64Fe17Si79(O5F)48
_chemical_formula_sum   'K24 Na3 Li5 Mg64 Fe17 Si79 O240 F48'
_cell_volume   6038.44301693
_cell_formula_units_Z   1
loop_
 _symmetry_equiv_pos_site_id
 _symmetry_equiv_pos_as_xyz
  1  'x, y, z'
loop_
 _atom_site_type_symbol
 _atom_site_label
 _atom_site_symmetry_multiplicity
 _atom_site_fract_x
 _atom_site_fract_y
 _atom_site_fract_z
 _atom_site_occupancy
  K  K0  1  -0.01322289  -0.00960982  -0.00268361  1
  K  K1  1  -0.00692849  -0.00631094  0.49767976  1
  K  K2  1  -0.00725279  0.50811404  0.00041222  1
  K  K3  1  -0.00052737  0.50699574  0.49790834  1
  K  K4  1  0.34809177  0.00181594  -0.00511178  1
  K  K5  1  0.34740295  0.00247422  0.51222005  1
  K  K6  1  0.33006534  0.51499538  0.00326567  1
  K  K7  1  0.33902958  0.49429727  0.49887308  1
  K  K8  1  0.67241114  -0.00422313  -0.00588530  1
  K  K9  1  0.66640893  0.00449125  0.50088487  1
  K  K10  1  0.66148949  0.50278989  0.00203582  1
  K  K11  1  0.66363273  0.50318186  0.49885998  1
  K  K12  1  0.17065746  0.25309359  -0.00151894  1
  K  K13  1  0.16745779  0.25120702  0.49836003  1
  K  K14  1  0.17773377  0.74547123  -0.00600896  1
  K  K15  1  0.17229715  0.74188461  0.50340006  1
  K  K16  1  0.49866048  0.24567141  -0.00658350  1
  K  K17  1  0.51231857  0.25127211  0.50519206  1
  K  K18  1  0.48741299  0.74154613  -0.00671494  1
  K  K19  1  0.50114337  0.75204716  0.49919634  1
  K  K20  1  0.82943683  0.24485762  0.00393116  1
  K  K21  1  0.82385420  0.24235853  0.49689191  1
  K  K22  1  0.82886826  0.75451912  -0.00215144  1
  K  K23  1  0.83004566  0.75458272  0.49943503  1
  Na  Na24  1  0.83685345  0.50116120  0.75124841  1
  Na  Na25  1  0.50136127  0.16458281  0.75135048  1
  Na  Na26  1  0.33190708  0.42188385  0.24575324  1
  Li  Li27  1  0.49547789  0.50025975  0.24731054  1
  Li  Li28  1  0.50273259  0.00181340  0.75563890  1
  Li  Li29  1  -0.00030166  0.91408082  0.75514408  1
  Li  Li30  1  -0.00211677  0.08313969  0.25269554  1
  Li  Li31  1  0.83565872  0.83397618  0.25661996  1
  Mg  Mg32  1  -0.00281448  0.24902673  0.25198944  1
  Mg  Mg33  1  0.50021243  0.00128129  0.24922122  1
  Mg  Mg34  1  0.83587785  -0.00294536  0.75700216  1
  Mg  Mg35  1  0.50178605  0.50059089  0.74525682  1
  Mg  Mg36  1  0.66833298  0.25035685  0.74809037  1
  Mg  Mg37  1  0.66859935  0.74961331  0.75287029  1
  Mg  Mg38  1  0.82940914  0.50135186  0.25361038  1
  Mg  Mg39  1  0.16304174  -0.00080130  0.74972112  1
  Mg  Mg40  1  0.16946827  0.50143375  0.74881263  1
  Mg  Mg41  1  0.66576643  0.25125369  0.25442304  1
  Mg  Mg42  1  0.33251666  0.75016368  0.74796081  1
  Mg  Mg43  1  0.16389771  0.49879055  0.25037341  1
  Mg  Mg44  1  0.00120215  0.75187942  0.75369049  1
  Mg  Mg45  1  0.33620869  0.24760062  0.74914457  1
  Mg  Mg46  1  -0.00440315  0.75122634  0.25257069  1
  Mg  Mg47  1  0.33069243  0.25231144  0.24847674  1
  Mg  Mg48  1  0.16181511  0.00155831  0.24613641  1
  Mg  Mg49  1  0.33186961  0.75025196  0.24395111  1
  Mg  Mg50  1  0.66720879  0.74995904  0.25247169  1
  Mg  Mg51  1  0.83588621  -0.00258114  0.25481522  1
  Mg  Mg52  1  0.00123235  0.24938952  0.75148985  1
  Mg  Mg53  1  0.16455473  0.33509794  0.25050884  1
  Mg  Mg54  1  0.50011352  0.83612444  0.74914290  1
  Mg  Mg55  1  -0.00166236  0.58498601  0.25337188  1
  Mg  Mg56  1  0.83706589  0.83517983  0.75589111  1
  Mg  Mg57  1  0.66453568  0.41841168  0.25348279  1
  Mg  Mg58  1  0.83523995  0.33509703  0.74847093  1
  Mg  Mg59  1  0.33618404  0.91853508  0.75025758  1
  Mg  Mg60  1  0.33179008  0.08532585  0.24757830  1
  Mg  Mg61  1  0.66891789  0.58321705  0.74782138  1
  Mg  Mg62  1  0.33431832  0.41531203  0.74523743  1
  Mg  Mg63  1  0.16216608  0.16638355  0.24783404  1
  Mg  Mg64  1  0.83408040  0.33489098  0.25417818  1
  Mg  Mg65  1  0.16455707  0.66482984  0.24700171  1
  Mg  Mg66  1  0.66502279  0.58327430  0.25091109  1
  Mg  Mg67  1  0.16497318  0.83590464  0.75268588  1
  Mg  Mg68  1  0.00002709  0.08076079  0.75323327  1
  Mg  Mg69  1  0.00294702  0.41711644  0.75085444  1
  Mg  Mg70  1  0.67005045  0.08491519  0.25551959  1
  Mg  Mg71  1  0.16829915  0.33306543  0.74898884  1
  Mg  Mg72  1  0.66592654  0.08192969  0.75549017  1
  Mg  Mg73  1  0.16866960  0.16478719  0.75227885  1
  Mg  Mg74  1  0.49847888  0.33702314  0.25069933  1
  Mg  Mg75  1  0.83723183  0.16387153  0.25509181  1
  Mg  Mg76  1  0.49700310  0.66257398  0.24669851  1
  Mg  Mg77  1  0.33696979  0.08064987  0.74913374  1
  Mg  Mg78  1  0.16403213  0.83444563  0.24678572  1
  Mg  Mg79  1  0.49787599  0.66610920  0.74649328  1
  Mg  Mg80  1  0.33122454  0.91707800  0.24482020  1
  Mg  Mg81  1  0.83855433  0.66626461  0.75283403  1
  Mg  Mg82  1  0.83368191  0.66893932  0.25380907  1
  Mg  Mg83  1  0.83315117  0.16466423  0.75231575  1
  Mg  Mg84  1  0.50128258  0.33370957  0.74598931  1
  Mg  Mg85  1  0.50170072  0.16774581  0.25154492  1
  Mg  Mg86  1  0.33259051  0.58337936  0.24173121  1
  Mg  Mg87  1  0.66729392  0.41727004  0.74640242  1
  Mg  Mg88  1  -0.00080528  0.41529193  0.25322006  1
  Mg  Mg89  1  0.66570772  0.91693892  0.75330168  1
  Mg  Mg90  1  0.16892027  0.66560944  0.74750306  1
  Mg  Mg91  1  0.67101605  0.91484603  0.25194277  1
  Mg  Mg92  1  0.00308284  0.58528630  0.75328799  1
  Mg  Mg93  1  -0.00218438  0.91799518  0.25136430  1
  Mg  Mg94  1  0.49978145  0.83397313  0.24725510  1
  Mg  Mg95  1  0.33202896  0.58633842  0.74626360  1
  Fe  Fe96  1  0.52576942  0.41600444  0.60716515  1
  Fe  Fe97  1  0.98288593  0.67072754  0.39289636  1
  Fe  Fe98  1  0.48244228  0.08282981  0.89382074  1
  Fe  Fe99  1  0.14522884  0.41704755  0.39215562  1
  Fe  Fe100  1  0.47803585  0.91552761  0.88890324  1
  Fe  Fe101  1  0.81185734  0.91033571  0.39148878  1
  Fe  Fe102  1  0.35693634  0.66607800  0.10539648  1
  Fe  Fe103  1  0.19081162  0.57829796  0.60527098  1
  Fe  Fe104  1  0.64095790  0.16962809  0.39251445  1
  Fe  Fe105  1  0.97553332  0.66773111  0.89354647  1
  Fe  Fe106  1  0.30649079  0.66779686  0.88836416  1
  Fe  Fe107  1  0.80722344  0.41663956  0.39286933  1
  Fe  Fe108  1  0.97489918  0.32909729  0.39426672  1
  Fe  Fe109  1  0.80806604  0.59043814  0.39330594  1
  Fe  Fe110  1  0.36088565  0.66799490  0.60474370  1
  Fe  Fe111  1  0.80532976  0.91441565  0.89423722  1
  Fe  Fe112  1  0.52640945  0.08133218  0.61170052  1
  Si  Si113  1  0.69216373  0.66743293  0.11368277  1
  Si  Si114  1  0.02056182  0.33154441  0.11108573  1
  Si  Si115  1  0.98057822  0.83444153  0.89278587  1
  Si  Si116  1  0.02214372  0.66690561  0.11337584  1
  Si  Si117  1  0.47732030  0.41390908  0.88285460  1
  Si  Si118  1  0.97696616  0.16887606  0.88789524  1
  Si  Si119  1  0.18635462  0.08321300  0.61526485  1
  Si  Si120  1  0.30572714  0.16447213  0.38240800  1
  Si  Si121  1  0.69430742  0.16657824  0.11633214  1
  Si  Si122  1  0.52712274  0.91983683  0.11350347  1
  Si  Si123  1  0.85815504  0.91601774  0.61962237  1
  Si  Si124  1  0.52616604  0.08619620  0.11503357  1
  Si  Si125  1  0.14182648  0.08623853  0.88750218  1
  Si  Si126  1  0.70294961  0.66404582  0.61586118  1
  Si  Si127  1  0.85756908  0.91586866  0.11680965  1
  Si  Si128  1  0.35651366  0.84038025  0.10850628  1
  Si  Si129  1  0.35761618  0.33263716  0.11150073  1
  Si  Si130  1  0.47459097  0.57826884  0.88465902  1
  Si  Si131  1  0.13863689  0.57789680  0.88904634  1
  Si  Si132  1  0.14692725  0.92039652  0.38339779  1
  Si  Si133  1  0.86058125  0.07980635  0.61905928  1
  Si  Si134  1  0.52841424  0.91081760  0.61185578  1
  Si  Si135  1  0.14513830  0.41398635  0.88481746  1
  Si  Si136  1  0.85680786  0.08081555  0.11678569  1
  Si  Si137  1  0.85708441  0.41801064  0.11371000  1
  Si  Si138  1  0.35694050  0.16724385  0.11187753  1
  Si  Si139  1  0.63796791  0.82274587  0.89049400  1
  Si  Si140  1  0.98952510  0.83601086  0.39003975  1
  Si  Si141  1  0.14453652  0.08183132  0.38198076  1
  Si  Si142  1  0.52652157  0.41281730  0.11335608  1
  Si  Si143  1  0.35300141  0.83749134  0.61121490  1
  Si  Si144  1  0.81476523  0.08236154  0.39264648  1
  Si  Si145  1  0.69213803  0.33205730  0.11492536  1
  Si  Si146  1  0.14816327  0.58322018  0.38553751  1
  Si  Si147  1  0.18723973  0.40979752  0.61231611  1
  Si  Si148  1  0.30689856  0.32602279  0.38535507  1
  Si  Si149  1  0.52988625  0.58052467  0.11101938  1
  Si  Si150  1  0.02658719  0.32746993  0.61604224  1
  Si  Si151  1  0.02078488  0.16709657  0.11360544  1
  Si  Si152  1  0.30333538  0.84014379  0.88765543  1
  Si  Si153  1  0.18774601  0.08619225  0.11093510  1
  Si  Si154  1  0.34882461  0.16500830  0.61160106  1
  Si  Si155  1  0.13862584  0.92173306  0.88567111  1
  Si  Si156  1  0.31062250  0.33304661  0.88381397  1
  Si  Si157  1  0.69424222  0.82897253  0.61613161  1
  Si  Si158  1  0.65107979  0.17481134  0.88961822  1
  Si  Si159  1  0.46694913  0.41698239  0.38168252  1
  Si  Si160  1  0.80478206  0.58400551  0.88817726  1
  Si  Si161  1  0.30833004  0.16713313  0.88870309  1
  Si  Si162  1  0.46952138  0.91697099  0.38155520  1
  Si  Si163  1  0.98239787  0.16157514  0.38741108  1
  Si  Si164  1  0.69855049  0.16771104  0.61470419  1
  Si  Si165  1  0.02350183  0.83538101  0.61818883  1
  Si  Si166  1  0.18548059  0.41309893  0.11085593  1
  Si  Si167  1  0.64715148  0.33735048  0.88537957  1
  Si  Si168  1  0.02305851  0.83339732  0.11375413  1
  Si  Si169  1  0.62881417  0.66468692  0.38657389  1
  Si  Si170  1  0.81016599  0.41716975  0.88523055  1
  Si  Si171  1  0.18740834  0.91998907  0.11077765  1
  Si  Si172  1  0.85710407  0.58400182  0.11457990  1
  Si  Si173  1  0.86951825  0.41651731  0.61520268  1
  Si  Si174  1  0.35397891  0.32968305  0.61006068  1
  Si  Si175  1  0.97692487  0.33452617  0.88674065  1
  Si  Si176  1  0.63374954  0.34109398  0.39010015  1
  Si  Si177  1  0.18787009  0.91872653  0.61563600  1
  Si  Si178  1  0.18363234  0.57973648  0.10856110  1
  Si  Si179  1  0.70278517  0.33489292  0.61171448  1
  Si  Si180  1  0.81201814  0.08747153  0.89179534  1
  Si  Si181  1  0.86855797  0.58427833  0.61620380  1
  Si  Si182  1  0.46782211  0.08196087  0.38483284  1
  Si  Si183  1  0.30414234  0.67015454  0.37944300  1
  Si  Si184  1  0.53220704  0.58880647  0.60943812  1
  Si  Si185  1  0.30622734  0.83384962  0.38045648  1
  Si  Si186  1  0.46348017  0.58213213  0.38102151  1
  Si  Si187  1  0.68920303  0.83280933  0.11500006  1
  Si  Si188  1  0.63992220  0.65857024  0.88395986  1
  Si  Si189  1  0.63416548  0.83186094  0.38742649  1
  Si  Si190  1  0.02262188  0.16391880  0.61759025  1
  Si  Si191  1  0.02741583  0.67173293  0.61330926  1
  O  O192  1  0.26697817  0.12503462  0.08203126  1
  O  O193  1  0.26283173  0.11645786  0.58172009  1
  O  O194  1  0.25501615  0.61699459  0.07361641  1
  O  O195  1  0.28269382  0.60077045  0.56622172  1
  O  O196  1  0.60114056  0.13058592  0.08678182  1
  O  O197  1  0.61465898  0.12889441  0.57718705  1
  O  O198  1  0.60938365  0.61950261  0.08106377  1
  O  O199  1  0.62244550  0.61381951  0.58608766  1
  O  O200  1  0.93370488  0.12123262  0.08556730  1
  O  O201  1  0.94232763  0.11158518  0.58963701  1
  O  O202  1  0.93252898  0.62551391  0.08427798  1
  O  O203  1  0.94490414  0.62049513  0.58430998  1
  O  O204  1  0.09919270  0.36629491  0.07846529  1
  O  O205  1  0.11408803  0.34672069  0.59008153  1
  O  O206  1  0.09941813  0.87540406  0.08319829  1
  O  O207  1  0.10298204  0.87051971  0.58650320  1
  O  O208  1  0.43416302  0.37428954  0.08164461  1
  O  O209  1  0.43107794  0.35668762  0.57532177  1
  O  O210  1  0.43401271  0.88589104  0.08344402  1
  O  O211  1  0.43644205  0.87043687  0.58398338  1
  O  O212  1  0.76720018  0.37578583  0.08447140  1
  O  O213  1  0.78542803  0.36995391  0.58483121  1
  O  O214  1  0.76837360  0.87355143  0.08783968  1
  O  O215  1  0.77224280  0.87040510  0.58813102  1
  O  O216  1  0.26628571  0.37363114  0.08318500  1
  O  O217  1  0.27099386  0.38107633  0.58421134  1
  O  O218  1  0.26798353  0.88661182  0.08182845  1
  O  O219  1  0.27059901  0.89208894  0.58518151  1
  O  O220  1  0.60061758  0.36826302  0.08158652  1
  O  O221  1  0.61987439  0.37694435  0.57575777  1
  O  O222  1  0.60155459  0.87711918  0.08323485  1
  O  O223  1  0.60353973  0.86446056  0.58226800  1
  O  O224  1  0.93277919  0.37693196  0.08162934  1
  O  O225  1  0.95052879  0.38278693  0.58558769  1
  O  O226  1  0.93369594  0.87539328  0.08497614  1
  O  O227  1  0.93886873  0.88404694  0.58913674  1
  O  O228  1  0.10025504  0.13086333  0.08223211  1
  O  O229  1  0.10264626  0.13287487  0.58647016  1
  O  O230  1  0.09293421  0.62192428  0.08113341  1
  O  O231  1  0.10414844  0.64653495  0.57793808  1
  O  O232  1  0.43502215  0.12567512  0.08450635  1
  O  O233  1  0.42415665  0.13220324  0.57816294  1
  O  O234  1  0.44472586  0.61865364  0.07268180  1
  O  O235  1  0.46568236  0.65023104  0.57832078  1
  O  O236  1  0.76784681  0.12322947  0.08471525  1
  O  O237  1  0.78024609  0.12966168  0.58842559  1
  O  O238  1  0.77038189  0.62831074  0.08405391  1
  O  O239  1  0.78228168  0.62921488  0.58614794  1
  O  O240  1  0.05893662  0.10067527  0.41121946  1
  O  O241  1  0.06163300  0.12141560  0.91755533  1
  O  O242  1  0.06717335  0.60080699  0.41970228  1
  O  O243  1  0.05504958  0.59490987  0.92060837  1
  O  O244  1  0.37802345  0.10372627  0.40892024  1
  O  O245  1  0.38673160  0.12288898  0.92806966  1
  O  O246  1  0.38208089  0.61652763  0.40997173  1
  O  O247  1  0.39863082  0.60603020  0.91962664  1
  O  O248  1  0.73734386  0.11501116  0.42539459  1
  O  O249  1  0.73754777  0.12994538  0.92250964  1
  O  O250  1  0.70638454  0.61752190  0.42335056  1
  O  O251  1  0.71548607  0.60202742  0.91518313  1
  O  O252  1  0.22993833  0.34670992  0.42241383  1
  O  O253  1  0.22983372  0.36592552  0.91410909  1
  O  O254  1  0.22531624  0.86465253  0.41091485  1
  O  O255  1  0.21632114  0.86790720  0.91537476  1
  O  O256  1  0.54569388  0.36613200  0.41614553  1
  O  O257  1  0.56254024  0.36650385  0.91326589  1
  O  O258  1  0.54909568  0.86622337  0.41225273  1
  O  O259  1  0.55228080  0.83798638  0.91935235  1
  O  O260  1  0.87534539  0.33993189  0.42627943  1
  O  O261  1  0.89688716  0.37002014  0.91625356  1
  O  O262  1  0.90985395  0.85715745  0.42535397  1
  O  O263  1  0.90242750  0.86072293  0.92833822  1
  O  O264  1  0.05309891  0.39760898  0.43152652  1
  O  O265  1  0.06490949  0.37856258  0.91519505  1
  O  O266  1  0.06420953  0.89940702  0.41477840  1
  O  O267  1  0.05567073  0.89660664  0.91584766  1
  O  O268  1  0.38513670  0.38268235  0.40953154  1
  O  O269  1  0.39752307  0.37824053  0.91331456  1
  O  O270  1  0.38650422  0.88624309  0.40958603  1
  O  O271  1  0.37463550  0.89794871  0.91808692  1
  O  O272  1  0.70138046  0.40248229  0.41822029  1
  O  O273  1  0.72861274  0.38858993  0.91767045  1
  O  O274  1  0.71540580  0.87516556  0.42471683  1
  O  O275  1  0.71491206  0.87310158  0.92802065  1
  O  O276  1  0.22051395  0.13953162  0.41139670  1
  O  O277  1  0.22171415  0.13900424  0.91616987  1
  O  O278  1  0.21912417  0.64885443  0.40771913  1
  O  O279  1  0.21587154  0.62859524  0.92318480  1
  O  O280  1  0.54257102  0.13265404  0.42064793  1
  O  O281  1  0.57202117  0.15009112  0.92248155  1
  O  O282  1  0.54353383  0.63352066  0.41260487  1
  O  O283  1  0.55816038  0.62819401  0.91378382  1
  O  O284  1  0.89965581  0.13302556  0.41750322  1
  O  O285  1  0.89813760  0.13705658  0.91924444  1
  O  O286  1  0.88735324  0.65822428  0.42966477  1
  O  O287  1  0.87775694  0.63595255  0.92680743  1
  O  O288  1  0.17464467  0.00339786  0.08205133  1
  O  O289  1  0.16615529  0.00112320  0.58645789  1
  O  O290  1  0.17161711  0.49508802  0.08006900  1
  O  O291  1  0.15270861  0.48403191  0.57852005  1
  O  O292  1  0.52388490  0.00370253  0.08647105  1
  O  O293  1  0.52152323  -0.01257554  0.57358027  1
  O  O294  1  0.52795913  0.49519524  0.08401035  1
  O  O295  1  0.50743465  0.51072051  0.57554260  1
  O  O296  1  0.84950217  -0.00140682  0.08522124  1
  O  O297  1  0.84318104  -0.00163774  0.58925287  1
  O  O298  1  0.84889312  0.50092815  0.08284395  1
  O  O299  1  0.85670327  0.50024474  0.58999395  1
  O  O300  1  0.00634205  0.24871036  0.08023141  1
  O  O301  1  -0.00055874  0.24554080  0.58938600  1
  O  O302  1  0.01577440  0.75049936  0.08457028  1
  O  O303  1  0.00209354  0.75488361  0.58711012  1
  O  O304  1  0.34821740  0.24919281  0.07946989  1
  O  O305  1  0.32544202  0.24769793  0.58396263  1
  O  O306  1  0.34748920  0.76273304  0.07380308  1
  O  O307  1  0.32861370  0.76245560  0.57335778  1
  O  O308  1  0.69211708  0.24898428  0.08529897  1
  O  O309  1  0.69968442  0.25075195  0.58661630  1
  O  O310  1  0.68284367  0.75043671  0.08324535  1
  O  O311  1  0.69143538  0.74646768  0.58576688  1
  O  O312  1  0.17772706  0.00148754  0.41048034  1
  O  O313  1  0.16013546  0.00449010  0.91645448  1
  O  O314  1  0.19278642  0.50871479  0.41365553  1
  O  O315  1  0.16538309  0.49378717  0.91492035  1
  O  O316  1  0.48667015  -0.00170955  0.41094921  1
  O  O317  1  0.51545715  -0.00250307  0.93732079  1
  O  O318  1  0.47776885  0.50024553  0.41178235  1
  O  O319  1  0.49736620  0.49495953  0.91314769  1
  O  O320  1  0.83758395  0.00366570  0.42513749  1
  O  O321  1  0.82624549  0.01007475  0.92755512  1
  O  O322  1  0.84662222  0.50333958  0.43021753  1
  O  O323  1  0.82908772  0.49941450  0.91265629  1
  O  O324  1  0.33861069  0.24306998  0.41196733  1
  O  O325  1  0.32135650  0.25193937  0.91527614  1
  O  O326  1  0.32977926  0.75247775  0.40803963  1
  O  O327  1  0.32578255  0.76158104  0.92125063  1
  O  O328  1  0.65834011  0.26330645  0.42519948  1
  O  O329  1  0.67275784  0.25850767  0.91801698  1
  O  O330  1  0.63734824  0.74853925  0.41469813  1
  O  O331  1  0.66675928  0.73823640  0.91396829  1
  O  O332  1  1.01711314  0.23546935  0.42306791  1
  O  O333  1  0.99279788  0.25206210  0.91679153  1
  O  O334  1  1.03235854  0.76111413  0.41892899  1
  O  O335  1  1.01654797  0.75823734  0.92622823  1
  O  O336  1  0.20807432  0.08496372  0.19107709  1
  O  O337  1  0.20489160  0.08439075  0.69558357  1
  O  O338  1  0.20294961  0.58297509  0.18902798  1
  O  O339  1  0.21067830  0.58070001  0.69810918  1
  O  O340  1  0.54112562  0.08469115  0.19511606  1
  O  O341  1  0.55373388  0.07503357  0.69944189  1
  O  O342  1  0.54649703  0.58724375  0.19053655  1
  O  O343  1  0.54574802  0.58502087  0.69134302  1
  O  O344  1  0.87138710  0.08226352  0.19608984  1
  O  O345  1  0.87844089  0.08246831  0.69950734  1
  O  O346  1  0.87504840  0.58214443  0.19403321  1
  O  O347  1  0.88563354  0.58949558  0.69546165  1
  O  O348  1  0.03954391  0.33073866  0.19064192  1
  O  O349  1  0.04446324  0.32983215  0.69704002  1
  O  O350  1  0.04262131  0.83457940  0.19382494  1
  O  O351  1  0.04428744  0.83345412  0.69785464  1
  O  O352  1  0.37829296  0.32606212  0.19031871  1
  O  O353  1  0.37497867  0.33182463  0.69150290  1
  O  O354  1  0.37434529  0.83793327  0.18974445  1
  O  O355  1  0.37212029  0.83380763  0.69185841  1
  O  O356  1  0.70831390  0.33152900  0.19474182  1
  O  O357  1  0.71573270  0.33523654  0.69299011  1
  O  O358  1  0.69982430  0.83209513  0.19403878  1
  O  O359  1  0.71101599  0.83034055  0.69626940  1
  O  O360  1  0.19743523  0.41403392  0.18968356  1
  O  O361  1  0.20919945  0.41306302  0.69387698  1
  O  O362  1  0.20741060  0.91876904  0.19122905  1
  O  O363  1  0.20588261  0.91760004  0.69571306  1
  O  O364  1  0.54571961  0.40963944  0.19244127  1
  O  O365  1  0.54537098  0.41683870  0.69906475  1
  O  O366  1  0.54318384  0.91823886  0.19417784  1
  O  O367  1  0.55051514  0.90931927  0.69176037  1
  O  O368  1  0.87618735  0.41731063  0.19312611  1
  O  O369  1  0.88717369  0.40906443  0.69476809  1
  O  O370  1  0.87914275  0.91894953  0.19571802  1
  O  O371  1  0.87557533  0.91690277  0.69905220  1
  O  O372  1  0.04265997  0.16937582  0.19275931  1
  O  O373  1  0.04325682  0.16564710  0.69822027  1
  O  O374  1  0.04231584  0.66748768  0.19328467  1
  O  O375  1  0.04634733  0.66862279  0.69435199  1
  O  O376  1  0.37416152  0.16649974  0.19212173  1
  O  O377  1  0.36261578  0.16592563  0.69164338  1
  O  O378  1  0.37699378  0.67031061  0.19628487  1
  O  O379  1  0.37930146  0.66675283  0.69725793  1
  O  O380  1  0.71199915  0.16580546  0.19621425  1
  O  O381  1  0.71422417  0.16670474  0.69582852  1
  O  O382  1  0.70778522  0.66878930  0.19358564  1
  O  O383  1  0.71602936  0.66661678  0.69629769  1
  O  O384  1  0.12880845  0.08271607  0.30199582  1
  O  O385  1  0.12261985  0.08591886  0.80721575  1
  O  O386  1  0.12325496  0.58504825  0.30350316  1
  O  O387  1  0.12489366  0.58071674  0.80768252  1
  O  O388  1  0.45337556  0.08319115  0.30329427  1
  O  O389  1  0.44817861  0.07622877  0.80584940  1
  O  O390  1  0.44988799  0.58506544  0.30152985  1
  O  O391  1  0.45835583  0.57958367  0.80392757  1
  O  O392  1  0.79247087  0.08306292  0.31052998  1
  O  O393  1  0.79489411  0.08561670  0.81095622  1
  O  O394  1  0.78586206  0.58572444  0.29969186  1
  O  O395  1  0.78715562  0.59052653  0.80849374  1
  O  O396  1  0.28344090  0.32410024  0.30513168  1
  O  O397  1  0.29094604  0.33334487  0.80354730  1
  O  O398  1  0.28806394  0.83585413  0.29965484  1
  O  O399  1  0.28696136  0.83662617  0.80605585  1
  O  O400  1  0.62013550  0.33372302  0.30812478  1
  O  O401  1  0.62842678  0.33514749  0.80540883  1
  O  O402  1  0.61951090  0.83443067  0.30623264  1
  O  O403  1  0.62542603  0.82930393  0.80905184  1
  O  O404  1  0.95517401  0.33186268  0.29994762  1
  O  O405  1  0.95929080  0.33275165  0.80662449  1
  O  O406  1  0.96786880  0.83644627  0.30899987  1
  O  O407  1  0.95750577  0.83082633  0.81214762  1
  O  O408  1  0.12018509  0.41551668  0.29883684  1
  O  O409  1  0.12619899  0.41268131  0.80449326  1
  O  O410  1  0.12743987  0.91811018  0.30269420  1
  O  O411  1  0.12411474  0.92117049  0.80593964  1
  O  O412  1  0.46012408  0.41623481  0.30316089  1
  O  O413  1  0.45652296  0.41541441  0.80291809  1
  O  O414  1  0.45292284  0.91770770  0.30069266  1
  O  O415  1  0.45505768  0.91490201  0.79763652  1
  O  O416  1  0.78666501  0.41667406  0.29902694  1
  O  O417  1  0.78878325  0.40894185  0.80636415  1
  O  O418  1  0.78739404  0.91700556  0.30094953  1
  O  O419  1  0.78846468  0.91519865  0.80297567  1
  O  O420  1  0.28741382  0.16486458  0.30138066  1
  O  O421  1  0.28993349  0.16654580  0.80785555  1
  O  O422  1  0.28664424  0.67088063  0.29895903  1
  O  O423  1  0.28833863  0.66787948  0.79758418  1
  O  O424  1  0.62115518  0.16662016  0.30024174  1
  O  O425  1  0.63985200  0.17171412  0.80997469  1
  O  O426  1  0.61709394  0.66674387  0.30537568  1
  O  O427  1  0.62206597  0.66240034  0.80343869  1
  O  O428  1  0.95840580  0.16652265  0.30694346  1
  O  O429  1  0.95898674  0.16809499  0.80757223  1
  O  O430  1  0.95569747  0.66762453  0.30001510  1
  O  O431  1  0.95811719  0.66767911  0.80187859  1
  F  F432  1  0.04618578  -0.00504444  0.19680264  1
  F  F433  1  0.04510219  0.00642425  0.70096635  1
  F  F434  1  0.04002916  0.50198481  0.20052883  1
  F  F435  1  0.04764107  0.49900446  0.70278905  1
  F  F436  1  0.37764188  0.00239099  0.19788580  1
  F  F437  1  0.36030111  -0.00027853  0.69233464  1
  F  F438  1  0.37537046  0.51116990  0.18590939  1
  F  F439  1  0.37940896  0.49871077  0.70026647  1
  F  F440  1  0.70989769  0.00331345  0.20293175  1
  F  F441  1  0.71672002  0.00220789  0.70535093  1
  F  F442  1  0.70870044  0.49979240  0.19744269  1
  F  F443  1  0.70447840  0.50034871  0.69818032  1
  F  F444  1  0.20935833  0.24826232  0.19748919  1
  F  F445  1  0.21089186  0.24822682  0.70444083  1
  F  F446  1  0.20897762  0.75293097  0.19617348  1
  F  F447  1  0.20943570  0.75499346  0.70073283  1
  F  F448  1  0.54424898  0.25069409  0.20090135  1
  F  F449  1  0.55281650  0.25809522  0.69845133  1
  F  F450  1  0.54438020  0.75103767  0.20151982  1
  F  F451  1  0.54898145  0.74984990  0.70328401  1
  F  F452  1  0.87523032  0.24687121  0.20073966  1
  F  F453  1  0.88168659  0.24741248  0.70366963  1
  F  F454  1  0.87761567  0.75053702  0.20084563  1
  F  F455  1  0.87891274  0.75395750  0.70370625  1
  F  F456  1  0.28661995  0.00018749  0.29212832  1
  F  F457  1  0.28264676  0.00168632  0.79694994  1
  F  F458  1  0.28184234  0.51188852  0.29425000  1
  F  F459  1  0.29085065  0.49504139  0.79728809  1
  F  F460  1  0.61862021  -0.00014135  0.29805719  1
  F  F461  1  0.63379584  -0.00201407  0.80693418  1
  F  F462  1  0.61987627  0.50183893  0.29525051  1
  F  F463  1  0.62304597  0.50097753  0.79832511  1
  F  F464  1  0.95668644  -0.00104667  0.29919342  1
  F  F465  1  0.95483810  0.00620982  0.80526097  1
  F  F466  1  0.95244754  0.50006233  0.29691411  1
  F  F467  1  0.96993685  0.49692360  0.80362911  1
  F  F468  1  0.12017029  0.24854966  0.29487929  1
  F  F469  1  0.12253675  0.24977054  0.80074029  1
  F  F470  1  0.12290238  0.75131979  0.29305054  1
  F  F471  1  0.12362340  0.74960330  0.79870945  1
  F  F472  1  0.45159611  0.24874043  0.29587746  1
  F  F473  1  0.45124931  0.26076380  0.79994309  1
  F  F474  1  0.45162173  0.75535648  0.29559357  1
  F  F475  1  0.45539424  0.75060068  0.79582763  1
  F  F476  1  0.78716354  0.24835521  0.29775995  1
  F  F477  1  0.79259319  0.25138957  0.79774179  1
  F  F478  1  0.78328981  0.74883582  0.30003236  1
  F  F479  1  0.78923863  0.74966386  0.80013861  1
