# generated using pymatgen
data_K24Na3Li5Mg64Fe17Si79(O5F)48
_symmetry_space_group_name_H-M   'P 1'
_cell_length_a   16.09178621
_cell_length_b   18.61195098
_cell_length_c   20.57027380
_cell_angle_alpha   90.01428048
_cell_angle_beta   100.03483598
_cell_angle_gamma   89.96680720
_symmetry_Int_Tables_number   1
_chemical_formula_structural   K24Na3Li5Mg64Fe17Si79(O5F)48
_chemical_formula_sum   'K24 Na3 Li5 Mg64 Fe17 Si79 O240 F48'
_cell_volume   6066.53859968
_cell_formula_units_Z   1
loop_
 _symmetry_equiv_pos_site_id
 _symmetry_equiv_pos_as_xyz
  1  'x, y, z'
loop_
 _atom_site_type_symbol
 _atom_site_label
 _atom_site_symmetry_multiplicity
 _atom_site_fract_x
 _atom_site_fract_y
 _atom_site_fract_z
 _atom_site_occupancy
  K  K0  1  -0.00616034  0.01797736  0.00198501  1
  K  K1  1  -0.00932434  0.00606394  0.49773948  1
  K  K2  1  -0.00053587  0.49649817  0.00950922  1
  K  K3  1  0.00163680  0.49871298  0.49268585  1
  K  K4  1  0.32671607  0.00269910  0.00079355  1
  K  K5  1  0.33575342  0.00327326  0.49976083  1
  K  K6  1  0.34154944  0.49241812  0.01537106  1
  K  K7  1  0.33687423  0.50870304  0.49249709  1
  K  K8  1  0.67644543  0.00675476  0.00079632  1
  K  K9  1  0.67276569  0.00913521  0.50389379  1
  K  K10  1  0.66269173  0.49178650  0.01664577  1
  K  K11  1  0.66553616  0.49998931  0.48956048  1
  K  K12  1  0.17523494  0.24950218  0.00500510  1
  K  K13  1  0.15446357  0.25034177  0.49233697  1
  K  K14  1  0.16783719  0.74928140  0.00234416  1
  K  K15  1  0.16117827  0.74004297  0.49457357  1
  K  K16  1  0.50671459  0.24794887  0.00523129  1
  K  K17  1  0.50997941  0.25698252  0.49395370  1
  K  K18  1  0.50419251  0.74183367  0.00901726  1
  K  K19  1  0.50707835  0.74590097  0.49352559  1
  K  K20  1  0.83348002  0.24260564  0.01068791  1
  K  K21  1  0.82744772  0.24856301  0.48708747  1
  K  K22  1  0.83248115  0.75246042  0.00228078  1
  K  K23  1  0.83660275  0.74864186  0.49743290  1
  Na  Na24  1  0.66485748  0.75014709  0.24502440  1
  Na  Na25  1  0.33409025  0.58331138  0.74034092  1
  Na  Na26  1  0.66930103  0.41599844  0.24440114  1
  Li  Li27  1  -0.00921946  0.25416985  0.25436338  1
  Li  Li28  1  0.83397663  0.00363525  0.75329326  1
  Li  Li29  1  0.83706090  0.33572027  0.24681342  1
  Li  Li30  1  0.16938623  0.16617420  0.75819380  1
  Li  Li31  1  0.33347972  0.41412612  0.24349381  1
  Mg  Mg32  1  0.49797855  0.49883112  0.24447778  1
  Mg  Mg33  1  0.66652694  0.24851528  0.75142568  1
  Mg  Mg34  1  0.49891314  0.50251211  0.74468604  1
  Mg  Mg35  1  0.16874869  0.49726747  0.25293673  1
  Mg  Mg36  1  0.32949805  0.24785843  0.75476754  1
  Mg  Mg37  1  0.66815807  0.25213580  0.25136749  1
  Mg  Mg38  1  0.16667749  0.00236266  0.24953384  1
  Mg  Mg39  1  0.66864918  0.74892114  0.74568614  1
  Mg  Mg40  1  0.00057250  0.75015774  0.74633660  1
  Mg  Mg41  1  0.50019137  -0.00057512  0.24985066  1
  Mg  Mg42  1  0.16537444  0.00414971  0.75440907  1
  Mg  Mg43  1  0.33281780  0.74978577  0.24465576  1
  Mg  Mg44  1  0.33266568  0.25108841  0.24644400  1
  Mg  Mg45  1  0.00272743  0.24888634  0.75486002  1
  Mg  Mg46  1  0.83363074  0.50056574  0.74715442  1
  Mg  Mg47  1  0.33338948  0.75018592  0.74677491  1
  Mg  Mg48  1  0.16857541  0.50026537  0.74854386  1
  Mg  Mg49  1  0.83363171  0.49879345  0.24888051  1
  Mg  Mg50  1  0.83531037  0.00114788  0.25569474  1
  Mg  Mg51  1  0.50001746  0.00062602  0.75177145  1
  Mg  Mg52  1  0.00021272  0.74810127  0.25215522  1
  Mg  Mg53  1  0.49842334  0.83300791  0.74790392  1
  Mg  Mg54  1  0.49686194  0.66443614  0.24136863  1
  Mg  Mg55  1  0.66676181  0.91565389  0.24964121  1
  Mg  Mg56  1  0.66417211  0.41616659  0.74742622  1
  Mg  Mg57  1  0.83228285  0.83686954  0.74897096  1
  Mg  Mg58  1  0.33166376  0.91587924  0.24629825  1
  Mg  Mg59  1  0.49960371  0.66536201  0.74404295  1
  Mg  Mg60  1  0.66467465  0.58524653  0.74356817  1
  Mg  Mg61  1  0.16738303  0.66588347  0.74533135  1
  Mg  Mg62  1  0.67057070  0.08356607  0.75116377  1
  Mg  Mg63  1  0.49846498  0.33493809  0.24749290  1
  Mg  Mg64  1  -0.00111054  0.41229989  0.25304309  1
  Mg  Mg65  1  0.49748253  0.83233216  0.24543706  1
  Mg  Mg66  1  0.00225064  0.91651539  0.25257922  1
  Mg  Mg67  1  -0.00033886  0.08517680  0.75541211  1
  Mg  Mg68  1  0.83197748  0.16344277  0.75248064  1
  Mg  Mg69  1  0.83357177  0.66567047  0.24914693  1
  Mg  Mg70  1  0.00071742  0.08798595  0.25370038  1
  Mg  Mg71  1  0.16642534  0.33311164  0.25134085  1
  Mg  Mg72  1  0.49774602  0.33424767  0.75039238  1
  Mg  Mg73  1  0.50110491  0.16643015  0.25003552  1
  Mg  Mg74  1  0.83233478  0.66578033  0.74462524  1
  Mg  Mg75  1  0.66863623  0.08509990  0.25504705  1
  Mg  Mg76  1  -0.00346266  0.91909373  0.75053595  1
  Mg  Mg77  1  0.66332097  0.58335345  0.24536638  1
  Mg  Mg78  1  0.83226835  0.33310405  0.75014676  1
  Mg  Mg79  1  0.16628443  0.66371074  0.25032814  1
  Mg  Mg80  1  0.83589468  0.17140049  0.25615063  1
  Mg  Mg81  1  0.16349953  0.16779128  0.25108010  1
  Mg  Mg82  1  0.33296325  0.41548242  0.75169385  1
  Mg  Mg83  1  0.66937668  0.91771801  0.75054521  1
  Mg  Mg84  1  0.00043008  0.41605863  0.75118226  1
  Mg  Mg85  1  0.33111009  0.08401322  0.24948678  1
  Mg  Mg86  1  0.00160710  0.58516363  0.74523657  1
  Mg  Mg87  1  0.33161306  0.91747452  0.74995698  1
  Mg  Mg88  1  0.33073458  0.08579164  0.75585014  1
  Mg  Mg89  1  0.83541830  0.83311016  0.25181844  1
  Mg  Mg90  1  0.32986396  0.58116765  0.24505622  1
  Mg  Mg91  1  0.00115891  0.58263005  0.25076510  1
  Mg  Mg92  1  0.16774617  0.33161702  0.75414469  1
  Mg  Mg93  1  0.16715696  0.83434534  0.24827403  1
  Mg  Mg94  1  0.49960538  0.16509814  0.75407650  1
  Mg  Mg95  1  0.16427571  0.83573350  0.74854624  1
  Fe  Fe96  1  0.97206663  0.66673348  0.38998715  1
  Fe  Fe97  1  0.97496783  0.16647001  0.39513117  1
  Fe  Fe98  1  0.52655609  0.40824811  0.10519255  1
  Fe  Fe99  1  0.18403424  0.08556052  0.11124771  1
  Fe  Fe100  1  0.85997290  0.41803428  0.11017259  1
  Fe  Fe101  1  0.80780443  0.08355981  0.89276541  1
  Fe  Fe102  1  0.19221589  0.41206838  0.11279796  1
  Fe  Fe103  1  0.14570641  0.57795827  0.39104824  1
  Fe  Fe104  1  0.63830401  0.17150027  0.39043643  1
  Fe  Fe105  1  0.52570333  0.58464605  0.10217180  1
  Fe  Fe106  1  0.52675902  0.58268800  0.60214530  1
  Fe  Fe107  1  0.69253057  0.16574109  0.61120208  1
  Fe  Fe108  1  0.69982114  0.66777074  0.60442756  1
  Fe  Fe109  1  0.35872997  0.67208732  0.60433803  1
  Fe  Fe110  1  0.30760120  0.16592351  0.89505920  1
  Fe  Fe111  1  0.35510922  0.83666290  0.10686190  1
  Fe  Fe112  1  0.03323698  0.66497382  0.60787813  1
  Si  Si113  1  0.64235822  0.33870512  0.38732673  1
  Si  Si114  1  0.63093010  0.66377953  0.37992277  1
  Si  Si115  1  0.36041666  0.15979524  0.11412077  1
  Si  Si116  1  0.13809548  0.91402076  0.88625486  1
  Si  Si117  1  0.47538003  0.07862122  0.88992052  1
  Si  Si118  1  0.14240864  0.42117472  0.88592158  1
  Si  Si119  1  0.63865099  0.33634493  0.88519811  1
  Si  Si120  1  0.47589676  0.91720386  0.38479710  1
  Si  Si121  1  0.86485689  0.91705420  0.11679915  1
  Si  Si122  1  0.19248811  0.08611388  0.61962498  1
  Si  Si123  1  0.47771438  0.91362372  0.88499629  1
  Si  Si124  1  0.81075023  0.42245754  0.38502862  1
  Si  Si125  1  0.02283053  0.83788627  0.61220404  1
  Si  Si126  1  0.63593583  0.16945841  0.89009323  1
  Si  Si127  1  0.97428005  0.66336049  0.88330303  1
  Si  Si128  1  0.02671163  0.33236026  0.11498925  1
  Si  Si129  1  0.35071456  0.83963113  0.61180542  1
  Si  Si130  1  0.69516819  0.15932999  0.11723741  1
  Si  Si131  1  0.18292185  0.91867660  0.11055544  1
  Si  Si132  1  0.30984850  0.83506156  0.38351023  1
  Si  Si133  1  0.63704543  0.83095476  0.38310005  1
  Si  Si134  1  0.85930680  0.58772204  0.11075255  1
  Si  Si135  1  0.97608127  0.33822757  0.39169622  1
  Si  Si136  1  0.52950259  0.91696408  0.11048527  1
  Si  Si137  1  0.31248945  0.32687098  0.38477828  1
  Si  Si138  1  0.69969957  0.67231933  0.11024143  1
  Si  Si139  1  0.97493327  0.17164068  0.89076972  1
  Si  Si140  1  0.80759046  0.41550183  0.88445898  1
  Si  Si141  1  0.97756976  0.33697196  0.88676518  1
  Si  Si142  1  0.47462930  0.42256929  0.88488812  1
  Si  Si143  1  0.52752859  0.08142373  0.11568067  1
  Si  Si144  1  0.51818729  0.41386772  0.61289773  1
  Si  Si145  1  0.31035988  0.33823266  0.89020413  1
  Si  Si146  1  0.68704349  0.33557132  0.61357015  1
  Si  Si147  1  0.19686825  0.57634764  0.61062569  1
  Si  Si148  1  0.80843080  0.91168461  0.88857640  1
  Si  Si149  1  0.13548537  0.07977722  0.89084609  1
  Si  Si150  1  0.19018294  0.41194012  0.61595717  1
  Si  Si151  1  0.47226009  0.41756151  0.38211521  1
  Si  Si152  1  0.86760725  0.08756797  0.61608250  1
  Si  Si153  1  0.79985803  0.58690085  0.38574792  1
  Si  Si154  1  0.35772434  0.16460162  0.61786106  1
  Si  Si155  1  0.69880588  0.32159665  0.10957417  1
  Si  Si156  1  0.34946233  0.66659065  0.10697721  1
  Si  Si157  1  0.98047593  0.83816929  0.38818269  1
  Si  Si158  1  0.86145242  0.08068906  0.11913631  1
  Si  Si159  1  0.68965489  0.84080635  0.61127596  1
  Si  Si160  1  0.64219856  0.82929128  0.88445809  1
  Si  Si161  1  0.36031619  0.32401862  0.10949879  1
  Si  Si162  1  0.18665599  0.58248248  0.11072426  1
  Si  Si163  1  0.52054790  0.91761525  0.61621683  1
  Si  Si164  1  0.02603956  0.66769594  0.11376506  1
  Si  Si165  1  0.85627354  0.41449285  0.61524356  1
  Si  Si166  1  0.03028652  0.16802828  0.62136206  1
  Si  Si167  1  0.86801667  0.57860041  0.61056884  1
  Si  Si168  1  0.35621754  0.32817444  0.61753145  1
  Si  Si169  1  0.80664841  0.91080956  0.38688732  1
  Si  Si170  1  0.47630266  0.58724045  0.88231224  1
  Si  Si171  1  0.02357248  0.33192167  0.61754500  1
  Si  Si172  1  0.14510932  0.08274903  0.39044140  1
  Si  Si173  1  0.64272894  0.66504033  0.88370918  1
  Si  Si174  1  0.46788224  0.58275675  0.37973974  1
  Si  Si175  1  0.85897101  0.92206396  0.61668268  1
  Si  Si176  1  0.30877340  0.16476383  0.38540940  1
  Si  Si177  1  0.52151784  0.08161649  0.61582754  1
  Si  Si178  1  0.30796653  0.83554607  0.88471813  1
  Si  Si179  1  0.30870687  0.67133001  0.38347822  1
  Si  Si180  1  0.47087294  0.08168998  0.38725245  1
  Si  Si181  1  0.14667337  0.91872963  0.38556939  1
  Si  Si182  1  0.69891376  0.84024738  0.11429946  1
  Si  Si183  1  0.14427753  0.58587660  0.88435933  1
  Si  Si184  1  0.97373705  0.82849004  0.88457505  1
  Si  Si185  1  0.14906622  0.40984262  0.39092534  1
  Si  Si186  1  0.80471972  0.07671559  0.39333135  1
  Si  Si187  1  0.18839031  0.92428203  0.61579841  1
  Si  Si188  1  0.02576695  0.83048925  0.11582943  1
  Si  Si189  1  0.30786651  0.67099692  0.88278052  1
  Si  Si190  1  0.80830644  0.58124252  0.88336566  1
  Si  Si191  1  0.02043445  0.17082846  0.11603922  1
  O  O192  1  0.28732762  0.10392423  0.08272546  1
  O  O193  1  0.27496627  0.11455499  0.58898354  1
  O  O194  1  0.26885227  0.61171611  0.08073860  1
  O  O195  1  0.28643528  0.59134763  0.58763859  1
  O  O196  1  0.61057402  0.11109496  0.08755241  1
  O  O197  1  0.59896215  0.10525612  0.58085511  1
  O  O198  1  0.61903030  0.62967423  0.07084170  1
  O  O199  1  0.62409407  0.59905243  0.56765531  1
  O  O200  1  0.93670589  0.11878547  0.08799141  1
  O  O201  1  0.95440371  0.11352462  0.58883221  1
  O  O202  1  0.94510641  0.61767153  0.08293536  1
  O  O203  1  0.95671027  0.58929547  0.58489095  1
  O  O204  1  0.11004047  0.34282165  0.08045277  1
  O  O205  1  0.10514910  0.36327917  0.58804493  1
  O  O206  1  0.10844129  0.85640031  0.08622056  1
  O  O207  1  0.10489731  0.87616148  0.58604239  1
  O  O208  1  0.44026187  0.34232986  0.07395841  1
  O  O209  1  0.44077337  0.35436853  0.58929768  1
  O  O210  1  0.45369208  0.86657831  0.07448740  1
  O  O211  1  0.43743803  0.86883976  0.58591814  1
  O  O212  1  0.77787969  0.34975016  0.07635966  1
  O  O213  1  0.77192515  0.36690460  0.58715676  1
  O  O214  1  0.77965780  0.87275038  0.08320866  1
  O  O215  1  0.76937879  0.88217518  0.58521498  1
  O  O216  1  0.28414911  0.37732028  0.07651645  1
  O  O217  1  0.27119208  0.37559613  0.58803468  1
  O  O218  1  0.26362974  0.89889285  0.07628162  1
  O  O219  1  0.27415420  0.89994265  0.58797567  1
  O  O220  1  0.61747564  0.36690168  0.07230062  1
  O  O221  1  0.60525369  0.38788319  0.58660886  1
  O  O222  1  0.61714302  0.89090713  0.08403628  1
  O  O223  1  0.60402674  0.89147710  0.58660301  1
  O  O224  1  0.95737141  0.38981858  0.07818320  1
  O  O225  1  0.93837851  0.37918528  0.58816025  1
  O  O226  1  0.94345900  0.88098547  0.08656903  1
  O  O227  1  0.93827838  0.88782251  0.58543277  1
  O  O228  1  0.09500189  0.14785003  0.07578389  1
  O  O229  1  0.11493511  0.14164902  0.59251579  1
  O  O230  1  0.10826771  0.64060971  0.08310370  1
  O  O231  1  0.12807094  0.63406095  0.57461602  1
  O  O232  1  0.44810083  0.13423111  0.08719974  1
  O  O233  1  0.43700670  0.13113988  0.58728991  1
  O  O234  1  0.42770700  0.64093834  0.07244584  1
  O  O235  1  0.45120966  0.65266731  0.56535677  1
  O  O236  1  0.77193780  0.11912900  0.08716221  1
  O  O237  1  0.79035283  0.13656997  0.57962105  1
  O  O238  1  0.78676854  0.64905875  0.08201569  1
  O  O239  1  0.80155957  0.63891762  0.57775767  1
  O  O240  1  0.07258152  0.10951127  0.42971456  1
  O  O241  1  0.05577607  0.11893476  0.91756018  1
  O  O242  1  0.05518446  0.60558616  0.42920236  1
  O  O243  1  0.06452235  0.62366916  0.91283577  1
  O  O244  1  0.38378937  0.10684697  0.41376777  1
  O  O245  1  0.39855857  0.10209990  0.92558534  1
  O  O246  1  0.39272328  0.62237248  0.41076513  1
  O  O247  1  0.39741121  0.62851415  0.90904577  1
  O  O248  1  0.72552805  0.10782352  0.42370438  1
  O  O249  1  0.71842090  0.12796754  0.92735736  1
  O  O250  1  0.71410893  0.61714428  0.41181688  1
  O  O251  1  0.73159353  0.62190175  0.91257206  1
  O  O252  1  0.23044666  0.35419939  0.41634541  1
  O  O253  1  0.22951801  0.37865643  0.91580504  1
  O  O254  1  0.22857160  0.86680319  0.41433897  1
  O  O255  1  0.22955437  0.87412901  0.91399155  1
  O  O256  1  0.56411007  0.38199732  0.41545833  1
  O  O257  1  0.56394585  0.38046450  0.91374067  1
  O  O258  1  0.56136758  0.87072465  0.41601447  1
  O  O259  1  0.56099780  0.86374534  0.91312193  1
  O  O260  1  0.89960156  0.38294005  0.42088002  1
  O  O261  1  0.89608421  0.37298458  0.91406133  1
  O  O262  1  0.89730751  0.87186556  0.41583923  1
  O  O263  1  0.89498784  0.86271997  0.91522269  1
  O  O264  1  0.06772615  0.37911168  0.42243037  1
  O  O265  1  0.06124486  0.38651870  0.91443622  1
  O  O266  1  0.06208086  0.89291104  0.41410813  1
  O  O267  1  0.06405266  0.86798203  0.91461868  1
  O  O268  1  0.39760954  0.37520064  0.41431413  1
  O  O269  1  0.39551301  0.38816516  0.91472700  1
  O  O270  1  0.39361468  0.88423554  0.41302795  1
  O  O271  1  0.39554794  0.88042918  0.91319689  1
  O  O272  1  0.72991041  0.38545713  0.41316616  1
  O  O273  1  0.72951842  0.37646157  0.91290177  1
  O  O274  1  0.72969857  0.86722335  0.41395142  1
  O  O275  1  0.72931253  0.87099104  0.91735393  1
  O  O276  1  0.22811502  0.13455213  0.41664134  1
  O  O277  1  0.21922533  0.11965969  0.92776897  1
  O  O278  1  0.23399844  0.64477304  0.42017755  1
  O  O279  1  0.23070001  0.63140782  0.91368253  1
  O  O280  1  0.54462914  0.13318438  0.42329030  1
  O  O281  1  0.55550957  0.13196114  0.91749301  1
  O  O282  1  0.55330599  0.62796613  0.41146047  1
  O  O283  1  0.56452864  0.62962597  0.91446276  1
  O  O284  1  0.89052117  0.11543496  0.42945586  1
  O  O285  1  0.89962227  0.14428585  0.92695471  1
  O  O286  1  0.87389958  0.63924884  0.42170415  1
  O  O287  1  0.89793264  0.62276802  0.91338251  1
  O  O288  1  0.14164389  -0.00578205  0.08226773  1
  O  O289  1  0.16757054  0.00622693  0.58690149  1
  O  O290  1  0.15933403  0.50561541  0.07755159  1
  O  O291  1  0.16994868  0.49208698  0.58574483  1
  O  O292  1  0.51043006  0.00049630  0.08378262  1
  O  O293  1  0.49402241  -0.00088837  0.58985221  1
  O  O294  1  0.50794484  0.49627879  0.06123390  1
  O  O295  1  0.48633681  0.48793428  0.57764622  1
  O  O296  1  0.85367710  -0.00123896  0.08740181  1
  O  O297  1  0.85020339  0.00435321  0.58818899  1
  O  O298  1  0.83296786  0.51258613  0.07380335  1
  O  O299  1  0.83637174  0.49548440  0.58665333  1
  O  O300  1  -0.01278473  0.25131576  0.09257513  1
  O  O301  1  0.00808399  0.24927128  0.59051339  1
  O  O302  1  0.00272621  0.74990915  0.08496531  1
  O  O303  1  0.00531018  0.76025042  0.57828558  1
  O  O304  1  0.33357184  0.23971462  0.08498448  1
  O  O305  1  0.33702109  0.24598671  0.58853118  1
  O  O306  1  0.31827374  0.74536815  0.07685024  1
  O  O307  1  0.31835887  0.76629931  0.57521883  1
  O  O308  1  0.68115448  0.23668648  0.08070272  1
  O  O309  1  0.66344500  0.25863396  0.58007699  1
  O  O310  1  0.68463953  0.75846421  0.08547008  1
  O  O311  1  0.67387053  0.76460139  0.57433034  1
  O  O312  1  0.17332958  -0.00095161  0.41518214  1
  O  O313  1  0.13907201  -0.00545433  0.91783222  1
  O  O314  1  0.17820442  0.48579920  0.42564619  1
  O  O315  1  0.15338469  0.50400785  0.91432993  1
  O  O316  1  0.48911673  -0.00166840  0.41585010  1
  O  O317  1  0.50113525  -0.00547167  0.91419908  1
  O  O318  1  0.47540102  0.50089610  0.41078347  1
  O  O319  1  0.48472843  0.50529161  0.91232262  1
  O  O320  1  0.81205239  -0.00922046  0.41911794  1
  O  O321  1  0.82227886  -0.01210919  0.92631476  1
  O  O322  1  0.81537349  0.50489376  0.41661481  1
  O  O323  1  0.81692661  0.49866266  0.91252314  1
  O  O324  1  0.33392052  0.24489832  0.41680899  1
  O  O325  1  0.32522989  0.26159424  0.92657643  1
  O  O326  1  0.33301653  0.75432339  0.41119143  1
  O  O327  1  0.31825060  0.75332465  0.91470582  1
  O  O328  1  0.65632121  0.26349239  0.42832617  1
  O  O329  1  0.64007586  0.25472461  0.91512679  1
  O  O330  1  0.64152660  0.74747530  0.40938084  1
  O  O331  1  0.65464902  0.74710936  0.91422742  1
  O  O332  1  0.98299627  0.26070074  0.42979237  1
  O  O333  1  0.99716147  0.25584443  0.91596144  1
  O  O334  1  1.00260397  0.76173041  0.42211706  1
  O  O335  1  0.98257231  0.74549233  0.91342779  1
  O  O336  1  0.21006761  0.08362641  0.20301385  1
  O  O337  1  0.21249223  0.08007922  0.69881697  1
  O  O338  1  0.20693221  0.58486359  0.19126404  1
  O  O339  1  0.19828516  0.58001612  0.69055503  1
  O  O340  1  0.54373464  0.07942717  0.19589944  1
  O  O341  1  0.54056820  0.08360852  0.69699483  1
  O  O342  1  0.54239029  0.58383098  0.19352258  1
  O  O343  1  0.54558403  0.58332998  0.69591319  1
  O  O344  1  0.87667061  0.07936481  0.19889145  1
  O  O345  1  0.88303918  0.08948700  0.69607444  1
  O  O346  1  0.87851904  0.58566570  0.19125395  1
  O  O347  1  0.87880137  0.58093675  0.69271817  1
  O  O348  1  0.04672488  0.33720965  0.19529680  1
  O  O349  1  0.04222579  0.33380633  0.69793530  1
  O  O350  1  0.04287901  0.83331063  0.19622669  1
  O  O351  1  0.04183898  0.83719242  0.69357493  1
  O  O352  1  0.37838613  0.32517070  0.19002024  1
  O  O353  1  0.37441741  0.32942681  0.69803650  1
  O  O354  1  0.37576632  0.83567911  0.19867934  1
  O  O355  1  0.37276848  0.83883321  0.69316593  1
  O  O356  1  0.71084562  0.32019477  0.18879239  1
  O  O357  1  0.70814030  0.33434260  0.69496648  1
  O  O358  1  0.71800993  0.84410512  0.19351329  1
  O  O359  1  0.70900237  0.83633616  0.69252639  1
  O  O360  1  0.21056028  0.41587073  0.20314273  1
  O  O361  1  0.20870116  0.41284708  0.69648361  1
  O  O362  1  0.20585272  0.91683742  0.19236422  1
  O  O363  1  0.20706112  0.92048974  0.69650062  1
  O  O364  1  0.53330865  0.41554349  0.19433155  1
  O  O365  1  0.54115728  0.41391248  0.69420116  1
  O  O366  1  0.54434681  0.91671179  0.19154120  1
  O  O367  1  0.54110079  0.91637604  0.69685383  1
  O  O368  1  0.88170634  0.42055631  0.19986481  1
  O  O369  1  0.87645632  0.41482409  0.69617602  1
  O  O370  1  0.88030274  0.91683406  0.19700774  1
  O  O371  1  0.87769801  0.91575030  0.69632865  1
  O  O372  1  0.04611917  0.15983076  0.19495205  1
  O  O373  1  0.04344813  0.16821377  0.70099584  1
  O  O374  1  0.04472262  0.66940581  0.19354599  1
  O  O375  1  0.04589436  0.66881081  0.70031216  1
  O  O376  1  0.37872550  0.16172697  0.19522654  1
  O  O377  1  0.37785423  0.16513867  0.69807612  1
  O  O378  1  0.37009818  0.66667614  0.18861055  1
  O  O379  1  0.38431895  0.67991770  0.69517551  1
  O  O380  1  0.71335031  0.16040921  0.19704911  1
  O  O381  1  0.71013999  0.16849279  0.70267352  1
  O  O382  1  0.71645309  0.66412556  0.18953687  1
  O  O383  1  0.71322057  0.66735024  0.69770691  1
  O  O384  1  0.12333533  0.08219436  0.30999996  1
  O  O385  1  0.12044777  0.07948080  0.81065441  1
  O  O386  1  0.12262870  0.58388533  0.29925800  1
  O  O387  1  0.12503079  0.58392924  0.80436596  1
  O  O388  1  0.45587326  0.08100518  0.30640529  1
  O  O389  1  0.45707476  0.08110334  0.80869074  1
  O  O390  1  0.45084091  0.58448814  0.30000748  1
  O  O391  1  0.46588815  0.58476838  0.80347854  1
  O  O392  1  0.79036131  0.07857148  0.31197937  1
  O  O393  1  0.78825486  0.08348053  0.80270334  1
  O  O394  1  0.78764867  0.58637990  0.30512095  1
  O  O395  1  0.79191759  0.58195341  0.80319548  1
  O  O396  1  0.29187395  0.32567826  0.30578877  1
  O  O397  1  0.29118665  0.33447781  0.80918822  1
  O  O398  1  0.28842485  0.83630255  0.30342668  1
  O  O399  1  0.28920090  0.83606627  0.80431780  1
  O  O400  1  0.61840090  0.32733253  0.30863249  1
  O  O401  1  0.62209813  0.33496239  0.80459015  1
  O  O402  1  0.61667715  0.84035120  0.30419047  1
  O  O403  1  0.62463168  0.83250063  0.80421624  1
  O  O404  1  0.96184177  0.33599596  0.31278657  1
  O  O405  1  0.95678151  0.33618848  0.80626637  1
  O  O406  1  0.96062474  0.83660727  0.30717505  1
  O  O407  1  0.95690194  0.83186618  0.80439657  1
  O  O408  1  0.12597098  0.41374362  0.31072687  1
  O  O409  1  0.12289566  0.41838285  0.80556296  1
  O  O410  1  0.12688048  0.91692674  0.30506304  1
  O  O411  1  0.12147185  0.91547325  0.80582883  1
  O  O412  1  0.45565916  0.41560935  0.30304573  1
  O  O413  1  0.45772710  0.41741894  0.80469537  1
  O  O414  1  0.45790838  0.91719604  0.30468670  1
  O  O415  1  0.45689053  0.91516814  0.80454808  1
  O  O416  1  0.79826602  0.42179555  0.30688690  1
  O  O417  1  0.79000990  0.41633259  0.80399168  1
  O  O418  1  0.79043529  0.91424481  0.30656797  1
  O  O419  1  0.78783596  0.91121394  0.80848782  1
  O  O420  1  0.29171887  0.16585832  0.30554275  1
  O  O421  1  0.29167812  0.16660288  0.80441407  1
  O  O422  1  0.28930240  0.67084523  0.30258185  1
  O  O423  1  0.28387265  0.67526314  0.80378631  1
  O  O424  1  0.61966023  0.16543185  0.29932913  1
  O  O425  1  0.62041679  0.16714113  0.80918749  1
  O  O426  1  0.61413614  0.66366137  0.30103496  1
  O  O427  1  0.62540037  0.66757941  0.80382241  1
  O  O428  1  0.95459065  0.16193853  0.30532828  1
  O  O429  1  0.95584839  0.16966848  0.80987349  1
  O  O430  1  0.95538543  0.66723661  0.29783686  1
  O  O431  1  0.95475901  0.66500989  0.80328644  1
  F  F432  1  0.04364896  -0.00044364  0.20586587  1
  F  F433  1  0.04580857  0.00142557  0.70417909  1
  F  F434  1  0.04589820  0.49809738  0.20456643  1
  F  F435  1  0.04504138  0.49698858  0.70356826  1
  F  F436  1  0.37950340  -0.00025448  0.20254906  1
  F  F437  1  0.37772333  0.00190991  0.70568587  1
  F  F438  1  0.37606135  0.50323699  0.19754482  1
  F  F439  1  0.38210308  0.48563482  0.69823313  1
  F  F440  1  0.71439513  0.00069857  0.20578020  1
  F  F441  1  0.70392407  -0.00129948  0.70052665  1
  F  F442  1  0.71766219  0.51044251  0.19578784  1
  F  F443  1  0.71361081  0.49778176  0.70128555  1
  F  F444  1  0.21203608  0.24706069  0.20153034  1
  F  F445  1  0.21249445  0.25532398  0.70324250  1
  F  F446  1  0.20915316  0.75114073  0.20112925  1
  F  F447  1  0.20978749  0.75483711  0.70075664  1
  F  F448  1  0.54469207  0.24840544  0.20079070  1
  F  F449  1  0.54352275  0.24884924  0.70519295  1
  F  F450  1  0.53060973  0.75185455  0.19295521  1
  F  F451  1  0.54773691  0.75353284  0.70167619  1
  F  F452  1  0.87531591  0.24630886  0.20418698  1
  F  F453  1  0.88012109  0.25107538  0.70621056  1
  F  F454  1  0.88108295  0.75608921  0.19917212  1
  F  F455  1  0.87850631  0.75227149  0.70165602  1
  F  F456  1  0.28950191  -0.00354137  0.29857412  1
  F  F457  1  0.28792675  -0.00245185  0.80189343  1
  F  F458  1  0.28621703  0.51082497  0.30202881  1
  F  F459  1  0.28409787  0.49279586  0.80025094  1
  F  F460  1  0.62085474  -0.00217955  0.29855956  1
  F  F461  1  0.62007547  -0.00109649  0.79966649  1
  F  F462  1  0.61521299  0.50851011  0.29924013  1
  F  F463  1  0.62372267  0.49887386  0.79608617  1
  F  F464  1  0.95625815  -0.00259168  0.30185153  1
  F  F465  1  0.95928677  -0.00054560  0.80161447  1
  F  F466  1  0.95594160  0.50385430  0.30005730  1
  F  F467  1  0.95480484  0.50116166  0.79767185  1
  F  F468  1  0.12890319  0.24876551  0.30117645  1
  F  F469  1  0.11900041  0.25758609  0.80517924  1
  F  F470  1  0.12267971  0.75241513  0.29763572  1
  F  F471  1  0.12092749  0.75425179  0.79861309  1
  F  F472  1  0.45311560  0.24795202  0.29672502  1
  F  F473  1  0.45502337  0.25055192  0.80027455  1
  F  F474  1  0.45346038  0.74860181  0.29544189  1
  F  F475  1  0.45610484  0.75507864  0.79970045  1
  F  F476  1  0.78122088  0.24107954  0.30736997  1
  F  F477  1  0.78771323  0.25459226  0.80129319  1
  F  F478  1  0.79985853  0.75156004  0.29988788  1
  F  F479  1  0.79037102  0.75119766  0.79724958  1
