# generated using pymatgen
data_K24Na3Li5Mg64Fe17Si79(O5F)48
_symmetry_space_group_name_H-M   'P 1'
_cell_length_a   16.08896013
_cell_length_b   18.57766198
_cell_length_c   20.54786574
_cell_angle_alpha   90.02898034
_cell_angle_beta   99.99780267
_cell_angle_gamma   89.97164199
_symmetry_Int_Tables_number   1
_chemical_formula_structural   K24Na3Li5Mg64Fe17Si79(O5F)48
_chemical_formula_sum   'K24 Na3 Li5 Mg64 Fe17 Si79 O240 F48'
_cell_volume   6048.39372577
_cell_formula_units_Z   1
loop_
 _symmetry_equiv_pos_site_id
 _symmetry_equiv_pos_as_xyz
  1  'x, y, z'
loop_
 _atom_site_type_symbol
 _atom_site_label
 _atom_site_symmetry_multiplicity
 _atom_site_fract_x
 _atom_site_fract_y
 _atom_site_fract_z
 _atom_site_occupancy
  K  K0  1  0.00400159  -0.00041857  0.01451484  1
  K  K1  1  -0.00197023  0.00154431  0.48583982  1
  K  K2  1  0.00527152  0.50344785  -0.00479520  1
  K  K3  1  -0.00401851  0.50473683  0.50185762  1
  K  K4  1  0.32251462  -0.00329025  -0.00317126  1
  K  K5  1  0.32723870  0.00680019  0.49722974  1
  K  K6  1  0.32268963  0.50013501  -0.01127730  1
  K  K7  1  0.33572120  0.50498963  0.50245710  1
  K  K8  1  0.66704762  0.00209412  0.00231615  1
  K  K9  1  0.67607201  0.00697070  0.49674226  1
  K  K10  1  0.66520625  0.49339805  -0.00665460  1
  K  K11  1  0.66555044  0.49382247  0.49980242  1
  K  K12  1  0.15976910  0.25003194  0.00475213  1
  K  K13  1  0.16891516  0.24123944  0.50245636  1
  K  K14  1  0.15762684  0.74733582  -0.01149409  1
  K  K15  1  0.15589505  0.75065864  0.50212621  1
  K  K16  1  0.50807913  0.25216349  -0.00467880  1
  K  K17  1  0.49543872  0.25459900  0.50032910  1
  K  K18  1  0.49148285  0.75284236  -0.00419813  1
  K  K19  1  0.49246419  0.74965890  0.50228144  1
  K  K20  1  0.83770161  0.24683065  0.00062601  1
  K  K21  1  0.82849809  0.24946609  0.49670269  1
  K  K22  1  0.85467755  0.75640397  0.00801367  1
  K  K23  1  0.84640739  0.74187528  0.49557847  1
  Na  Na24  1  0.83815037  0.00037217  0.24878166  1
  Na  Na25  1  0.49706340  0.33263778  0.25766238  1
  Na  Na26  1  0.16147522  0.82594465  0.75728570  1
  Li  Li27  1  0.00801993  0.74295222  0.75509737  1
  Li  Li28  1  0.16276609  0.00110741  0.24674280  1
  Li  Li29  1  0.66841010  0.41455279  0.75074444  1
  Li  Li30  1  0.83787373  0.66839741  0.25148274  1
  Li  Li31  1  0.00342258  0.58929363  0.75283216  1
  Mg  Mg32  1  0.83699407  0.50066807  0.75266759  1
  Mg  Mg33  1  0.49732461  0.50048238  0.25358302  1
  Mg  Mg34  1  0.49851820  -0.00015789  0.74748199  1
  Mg  Mg35  1  -0.00134503  0.75157432  0.24811617  1
  Mg  Mg36  1  0.33743044  0.25053971  0.74526073  1
  Mg  Mg37  1  0.66730380  0.25347965  0.74792854  1
  Mg  Mg38  1  0.00030913  0.24928926  0.24691567  1
  Mg  Mg39  1  0.16599478  0.49943945  0.25200727  1
  Mg  Mg40  1  0.33245830  0.25032109  0.25246153  1
  Mg  Mg41  1  0.67185021  0.74900765  0.24863151  1
  Mg  Mg42  1  0.66520109  0.24962966  0.25171270  1
  Mg  Mg43  1  0.66650406  0.74770597  0.75023085  1
  Mg  Mg44  1  0.83126955  0.50235358  0.25037502  1
  Mg  Mg45  1  0.16517236  -0.00321929  0.75246174  1
  Mg  Mg46  1  0.33404370  0.75329894  0.25000962  1
  Mg  Mg47  1  -0.00051499  0.24937548  0.74969840  1
  Mg  Mg48  1  0.50397290  0.49807674  0.75355914  1
  Mg  Mg49  1  0.16505118  0.49892289  0.74766034  1
  Mg  Mg50  1  0.50365262  -0.00031557  0.24774766  1
  Mg  Mg51  1  0.32886700  0.74717457  0.75487860  1
  Mg  Mg52  1  0.83000459  -0.00073378  0.74786909  1
  Mg  Mg53  1  0.00256021  0.41741330  0.75152553  1
  Mg  Mg54  1  0.66187624  0.41609108  0.25278239  1
  Mg  Mg55  1  0.16485546  0.83827128  0.24799969  1
  Mg  Mg56  1  0.15979484  0.66187319  0.75181436  1
  Mg  Mg57  1  0.00132457  0.41691579  0.25047258  1
  Mg  Mg58  1  0.83854549  0.83100560  0.25012550  1
  Mg  Mg59  1  0.84001152  0.66630363  0.75090737  1
  Mg  Mg60  1  0.00145240  0.91624025  0.24822234  1
  Mg  Mg61  1  0.16775983  0.33462774  0.25075157  1
  Mg  Mg62  1  0.67383334  0.91630989  0.24911605  1
  Mg  Mg63  1  0.83159356  0.33651293  0.75147243  1
  Mg  Mg64  1  0.49584419  0.83267351  0.75209520  1
  Mg  Mg65  1  0.50354302  0.33562717  0.74863843  1
  Mg  Mg66  1  0.50059617  0.16594633  0.25010799  1
  Mg  Mg67  1  0.33453436  0.58541657  0.25333953  1
  Mg  Mg68  1  0.66928284  0.58069822  0.75243421  1
  Mg  Mg69  1  0.66428471  0.08574794  0.74526998  1
  Mg  Mg70  1  0.49905544  0.16639326  0.74584854  1
  Mg  Mg71  1  -0.00107873  0.91400664  0.75301707  1
  Mg  Mg72  1  0.32966912  0.58257129  0.75291860  1
  Mg  Mg73  1  0.33172072  0.08256555  0.24689828  1
  Mg  Mg74  1  0.66452024  0.91408946  0.74907200  1
  Mg  Mg75  1  0.33265037  0.08379319  0.74656740  1
  Mg  Mg76  1  0.16545908  0.66770001  0.24855481  1
  Mg  Mg77  1  -0.00200753  0.58553426  0.25043859  1
  Mg  Mg78  1  0.50160759  0.66731985  0.25174452  1
  Mg  Mg79  1  0.82954221  0.16688227  0.74778105  1
  Mg  Mg80  1  0.33293115  0.41499694  0.74759753  1
  Mg  Mg81  1  0.33344778  0.41463285  0.25402918  1
  Mg  Mg82  1  0.16764850  0.33299080  0.74856098  1
  Mg  Mg83  1  0.50372740  0.83462296  0.24920233  1
  Mg  Mg84  1  0.16728916  0.16418096  0.74855190  1
  Mg  Mg85  1  0.00262309  0.08269034  0.24597695  1
  Mg  Mg86  1  0.83626127  0.16617615  0.24827874  1
  Mg  Mg87  1  -0.00204973  0.08274898  0.75020996  1
  Mg  Mg88  1  0.83207330  0.33560775  0.25068675  1
  Mg  Mg89  1  0.83543132  0.83081282  0.74935639  1
  Mg  Mg90  1  0.32940700  0.91391475  0.75267711  1
  Mg  Mg91  1  0.33224482  0.91876509  0.24713861  1
  Mg  Mg92  1  0.16558101  0.16448872  0.24569382  1
  Mg  Mg93  1  0.49846519  0.66445806  0.75092268  1
  Mg  Mg94  1  0.66759213  0.58435132  0.25050970  1
  Mg  Mg95  1  0.67103656  0.08449864  0.24882296  1
  Fe  Fe96  1  0.64813723  0.33541299  0.88907285  1
  Fe  Fe97  1  0.13844544  0.57765209  0.89075469  1
  Fe  Fe98  1  0.47110231  0.42512979  0.39579762  1
  Fe  Fe99  1  0.35626135  0.16320539  0.60603497  1
  Fe  Fe100  1  0.36422663  0.33913950  0.60731978  1
  Fe  Fe101  1  0.30529138  0.32709395  0.39371436  1
  Fe  Fe102  1  0.03190416  0.83050089  0.10567484  1
  Fe  Fe103  1  0.81170175  0.08607969  0.39028368  1
  Fe  Fe104  1  0.02736636  0.17055194  0.10407938  1
  Fe  Fe105  1  0.18407444  0.58827240  0.60956667  1
  Fe  Fe106  1  0.69208185  0.17295247  0.60785463  1
  Fe  Fe107  1  0.97765251  0.82897113  0.39257517  1
  Fe  Fe108  1  0.85384194  0.08835195  0.10364416  1
  Fe  Fe109  1  0.18593583  0.41724355  0.60880182  1
  Fe  Fe110  1  0.85498695  0.91267750  0.10514776  1
  Fe  Fe111  1  0.30598706  0.83575745  0.89453222  1
  Fe  Fe112  1  0.14066515  0.41634703  0.39092107  1
  Si  Si113  1  0.36703694  0.83563557  0.11477931  1
  Si  Si114  1  0.68493341  0.33862240  0.11565963  1
  Si  Si115  1  0.80687541  0.91154890  0.38949273  1
  Si  Si116  1  0.36429248  0.16601740  0.11269740  1
  Si  Si117  1  0.97077037  0.33905598  0.38564998  1
  Si  Si118  1  0.35619704  0.33112330  0.11404789  1
  Si  Si119  1  0.97321341  0.33089892  0.88585624  1
  Si  Si120  1  0.68960913  0.82606412  0.11062082  1
  Si  Si121  1  0.80521627  0.07784512  0.88284102  1
  Si  Si122  1  0.52061525  0.58226040  0.11518883  1
  Si  Si123  1  0.86486834  0.41644572  0.61562020  1
  Si  Si124  1  0.52894983  0.07672624  0.60767481  1
  Si  Si125  1  0.52019375  0.42013633  0.11611001  1
  Si  Si126  1  0.47673115  0.91896249  0.88849657  1
  Si  Si127  1  0.64055565  0.33151975  0.38889700  1
  Si  Si128  1  0.69094434  0.82966162  0.61443848  1
  Si  Si129  1  0.14833879  0.58476409  0.38578668  1
  Si  Si130  1  0.52229697  0.91040983  0.61406560  1
  Si  Si131  1  0.64280427  0.83403606  0.38445018  1
  Si  Si132  1  0.64153025  0.66507723  0.88634294  1
  Si  Si133  1  0.20187504  0.91622086  0.11048948  1
  Si  Si134  1  0.14253678  0.08686046  0.38195133  1
  Si  Si135  1  0.85349123  0.91794296  0.61419705  1
  Si  Si136  1  0.53389070  0.42294236  0.61598448  1
  Si  Si137  1  0.14305461  0.92078655  0.38668415  1
  Si  Si138  1  0.31310411  0.15894509  0.38353995  1
  Si  Si139  1  0.30953476  0.16358556  0.88478943  1
  Si  Si140  1  0.80362096  0.91332347  0.88387722  1
  Si  Si141  1  0.98043279  0.17422186  0.38760540  1
  Si  Si142  1  0.31302961  0.66383525  0.89462299  1
  Si  Si143  1  0.85304277  0.58310972  0.11571583  1
  Si  Si144  1  0.64283789  0.16456260  0.88561000  1
  Si  Si145  1  0.81080016  0.58943867  0.88735277  1
  Si  Si146  1  0.80695016  0.57965946  0.38533966  1
  Si  Si147  1  0.96957937  0.83657749  0.88603023  1
  Si  Si148  1  0.01603451  0.83540790  0.61794106  1
  Si  Si149  1  0.68751529  0.17490685  0.11115941  1
  Si  Si150  1  0.97275285  0.67159810  0.88809779  1
  Si  Si151  1  0.63754621  0.16521001  0.38715033  1
  Si  Si152  1  0.68497117  0.66290851  0.11439693  1
  Si  Si153  1  0.47899089  0.91541913  0.38317032  1
  Si  Si154  1  0.64582399  0.67061903  0.38575974  1
  Si  Si155  1  0.47777867  0.59458200  0.39043470  1
  Si  Si156  1  0.18712054  0.07636391  0.61276018  1
  Si  Si157  1  0.19624919  0.58260548  0.11592913  1
  Si  Si158  1  0.02375662  0.32438948  0.61366513  1
  Si  Si159  1  0.47525732  0.07875119  0.38166000  1
  Si  Si160  1  0.13846907  0.08866974  0.88677573  1
  Si  Si161  1  0.96809355  0.16628070  0.88379508  1
  Si  Si162  1  0.19599222  0.41915044  0.11363724  1
  Si  Si163  1  0.53195032  0.91729014  0.11419277  1
  Si  Si164  1  0.63886200  0.83122133  0.88538690  1
  Si  Si165  1  0.35985027  0.66759944  0.61511213  1
  Si  Si166  1  0.13154884  0.92445343  0.89143064  1
  Si  Si167  1  0.97872530  0.65896986  0.38726663  1
  Si  Si168  1  0.69600743  0.34160774  0.61346315  1
  Si  Si169  1  0.14221928  0.40521264  0.88960719  1
  Si  Si170  1  0.52916559  0.08379264  0.11391875  1
  Si  Si171  1  0.20001036  0.08401187  0.10949661  1
  Si  Si172  1  0.30747949  0.67557085  0.38545299  1
  Si  Si173  1  0.01938436  0.67357862  0.61430548  1
  Si  Si174  1  0.02424453  0.16052423  0.61583961  1
  Si  Si175  1  0.86037933  0.08260769  0.61318647  1
  Si  Si176  1  0.31003208  0.32811736  0.88565573  1
  Si  Si177  1  0.02415097  0.65776934  0.11181533  1
  Si  Si178  1  0.35863757  0.67037278  0.11603093  1
  Si  Si179  1  0.47711331  0.08312698  0.88383030  1
  Si  Si180  1  0.81707240  0.42366350  0.88909123  1
  Si  Si181  1  0.80256049  0.41435144  0.38613809  1
  Si  Si182  1  0.47670904  0.58182860  0.88760810  1
  Si  Si183  1  0.30965151  0.84118736  0.38438609  1
  Si  Si184  1  0.35356376  0.83369859  0.61574071  1
  Si  Si185  1  0.52719474  0.58717782  0.61671451  1
  Si  Si186  1  0.86077123  0.58241932  0.61680958  1
  Si  Si187  1  0.18457388  0.91349348  0.61716349  1
  Si  Si188  1  0.85268038  0.41887208  0.11459450  1
  Si  Si189  1  0.47406295  0.41536548  0.88923359  1
  Si  Si190  1  0.02349510  0.34334157  0.10998731  1
  Si  Si191  1  0.69515884  0.66386448  0.61593466  1
  O  O192  1  0.28343584  0.11698413  0.08034474  1
  O  O193  1  0.26476358  0.09841766  0.57770292  1
  O  O194  1  0.26803635  0.63147929  0.08744974  1
  O  O195  1  0.28332781  0.62004689  0.57775731  1
  O  O196  1  0.60470523  0.12237764  0.08280092  1
  O  O197  1  0.61221232  0.10113083  0.57875164  1
  O  O198  1  0.60222129  0.61170289  0.08427908  1
  O  O199  1  0.60700353  0.62174534  0.58599417  1
  O  O200  1  0.93710440  0.12114662  0.05772651  1
  O  O201  1  0.95083350  0.10116481  0.58918157  1
  O  O202  1  0.93463480  0.61292545  0.08521946  1
  O  O203  1  0.93333836  0.62419119  0.58466462  1
  O  O204  1  0.09968466  0.39154981  0.08413435  1
  O  O205  1  0.10350049  0.34356238  0.58016883  1
  O  O206  1  0.12622341  0.86784922  0.07217661  1
  O  O207  1  0.10196902  0.86273874  0.58984123  1
  O  O208  1  0.43585469  0.37139172  0.08686575  1
  O  O209  1  0.46648692  0.36642760  0.57901747  1
  O  O210  1  0.44833187  0.86818329  0.08582868  1
  O  O211  1  0.43318419  0.86869760  0.58469106  1
  O  O212  1  0.76726402  0.37058369  0.08633639  1
  O  O213  1  0.77898317  0.37288555  0.58367361  1
  O  O214  1  0.76543409  0.84539214  0.07304963  1
  O  O215  1  0.76670398  0.87134037  0.58519307  1
  O  O216  1  0.26600276  0.37119892  0.08131562  1
  O  O217  1  0.28667366  0.41004710  0.57881486  1
  O  O218  1  0.28876467  0.88703048  0.08403175  1
  O  O219  1  0.26633514  0.87900094  0.58700813  1
  O  O220  1  0.60228812  0.38926654  0.08596034  1
  O  O221  1  0.62550101  0.40580222  0.59292506  1
  O  O222  1  0.60830430  0.88047781  0.08290808  1
  O  O223  1  0.59863953  0.86719950  0.58521383  1
  O  O224  1  0.93394493  0.38892712  0.08421899  1
  O  O225  1  0.94174042  0.37707419  0.58589645  1
  O  O226  1  0.94132893  0.88181655  0.06186737  1
  O  O227  1  0.93493046  0.88760546  0.58463905  1
  O  O228  1  0.12102253  0.12945432  0.07147993  1
  O  O229  1  0.10701874  0.13179777  0.58677167  1
  O  O230  1  0.10041587  0.60977887  0.08649806  1
  O  O231  1  0.09463393  0.65187823  0.57522169  1
  O  O232  1  0.44401883  0.13001591  0.08332043  1
  O  O233  1  0.44727910  0.12090858  0.57225318  1
  O  O234  1  0.43632756  0.63116687  0.08651981  1
  O  O235  1  0.44762184  0.64069061  0.58872313  1
  O  O236  1  0.76234403  0.15367730  0.07298011  1
  O  O237  1  0.79142496  0.13965904  0.57899709  1
  O  O238  1  0.76784297  0.63119340  0.08575745  1
  O  O239  1  0.77021406  0.62325762  0.58526816  1
  O  O240  1  0.06832726  0.12781309  0.41443906  1
  O  O241  1  0.06246629  0.13382007  0.91328011  1
  O  O242  1  0.06174102  0.60704804  0.41378560  1
  O  O243  1  0.05106872  0.62456567  0.92599320  1
  O  O244  1  0.38770678  0.09726209  0.40785147  1
  O  O245  1  0.39425919  0.11473169  0.91303349  1
  O  O246  1  0.39583402  0.63350571  0.41658383  1
  O  O247  1  0.40498879  0.62135898  0.92159056  1
  O  O248  1  0.71398381  0.11599818  0.42378190  1
  O  O249  1  0.72403824  0.10995631  0.91150572  1
  O  O250  1  0.72825001  0.61965604  0.41532845  1
  O  O251  1  0.72737483  0.62011873  0.91620359  1
  O  O252  1  0.20495695  0.33924099  0.42433408  1
  O  O253  1  0.22991511  0.35856575  0.91705670  1
  O  O254  1  0.23675238  0.88195749  0.41608757  1
  O  O255  1  0.21419180  0.88081682  0.92585476  1
  O  O256  1  0.56521472  0.36322702  0.42237428  1
  O  O257  1  0.55601708  0.37255143  0.92660542  1
  O  O258  1  0.55677429  0.86014278  0.41235658  1
  O  O259  1  0.56192680  0.86921214  0.91535146  1
  O  O260  1  0.88160098  0.36052176  0.41227112  1
  O  O261  1  0.90780307  0.38180513  0.91800407  1
  O  O262  1  0.87866743  0.85547163  0.42429660  1
  O  O263  1  0.88552752  0.86538322  0.91443066  1
  O  O264  1  0.03524431  0.40080275  0.41725530  1
  O  O265  1  0.06901731  0.35638675  0.91749444  1
  O  O266  1  0.07547375  0.88404137  0.42646001  1
  O  O267  1  0.04753256  0.89048134  0.91692586  1
  O  O268  1  0.38002751  0.39703870  0.43186246  1
  O  O269  1  0.39126289  0.37902075  0.91606700  1
  O  O270  1  0.39776149  0.88502109  0.41355848  1
  O  O271  1  0.40395334  0.89215485  0.92730450  1
  O  O272  1  0.72530812  0.38081440  0.41877931  1
  O  O273  1  0.74473212  0.39061161  0.92587339  1
  O  O274  1  0.71697115  0.88868705  0.41688868  1
  O  O275  1  0.72383591  0.87796611  0.91302602  1
  O  O276  1  0.23095362  0.12848890  0.41338560  1
  O  O277  1  0.22917718  0.12961511  0.91537357  1
  O  O278  1  0.22411399  0.64548798  0.41212835  1
  O  O279  1  0.24328358  0.62010286  0.92728817  1
  O  O280  1  0.54996076  0.13543808  0.41174975  1
  O  O281  1  0.55939684  0.13203375  0.91426160  1
  O  O282  1  0.56046489  0.64869405  0.41501968  1
  O  O283  1  0.56589444  0.62478659  0.91668619  1
  O  O284  1  0.90794675  0.14242002  0.42544800  1
  O  O285  1  0.89326418  0.12132016  0.91062599  1
  O  O286  1  0.89610751  0.62031663  0.41396284  1
  O  O287  1  0.88756742  0.64336230  0.91833874  1
  O  O288  1  0.19299244  -0.00012753  0.08270271  1
  O  O289  1  0.15926770  -0.00606656  0.58561905  1
  O  O290  1  0.20513591  0.50155279  0.08571644  1
  O  O291  1  0.14142940  0.50258048  0.57327617  1
  O  O292  1  0.51723597  0.00017824  0.08513045  1
  O  O293  1  0.51325952  -0.00930800  0.58333032  1
  O  O294  1  0.49994570  0.50135705  0.08420302  1
  O  O295  1  0.51023329  0.50623080  0.58704543  1
  O  O296  1  0.81418836  0.00007673  0.06993847  1
  O  O297  1  0.83417705  0.00012161  0.58630000  1
  O  O298  1  0.83194232  0.50092362  0.08528587  1
  O  O299  1  0.85491759  0.49962025  0.58640791  1
  O  O300  1  0.01796630  0.26812822  0.07088918  1
  O  O301  1  -0.00614206  0.24081129  0.58849371  1
  O  O302  1  0.01851500  0.73317329  0.07365909  1
  O  O303  1  -0.00975897  0.75601791  0.58654652  1
  O  O304  1  0.35180447  0.24877734  0.08259721  1
  O  O305  1  0.32687417  0.25126164  0.56987763  1
  O  O306  1  0.35313527  0.75272410  0.08674742  1
  O  O307  1  0.34533174  0.75166512  0.58645263  1
  O  O308  1  0.65868061  0.25841413  0.08631569  1
  O  O309  1  0.66671742  0.26700687  0.57494532  1
  O  O310  1  0.65772410  0.74339772  0.08511314  1
  O  O311  1  0.68554860  0.74676732  0.58570980  1
  O  O312  1  0.15408066  0.00511940  0.41353897  1
  O  O313  1  0.14172958  0.00892921  0.92063200  1
  O  O314  1  0.18380662  0.50929137  0.41665231  1
  O  O315  1  0.14878249  0.48159439  0.92718038  1
  O  O316  1  0.50315584  -0.00300496  0.41107449  1
  O  O317  1  0.49997220  0.00244920  0.91417329  1
  O  O318  1  0.50132573  0.52058725  0.42871132  1
  O  O319  1  0.48404795  0.49958597  0.91753458  1
  O  O320  1  0.83148044  -0.00924181  0.42049555  1
  O  O321  1  0.81805794  -0.00436380  0.91170534  1
  O  O322  1  0.81637582  0.49715623  0.41655740  1
  O  O323  1  0.83247733  0.50810572  0.91672020  1
  O  O324  1  0.34715986  0.23307488  0.41773494  1
  O  O325  1  0.32866555  0.24516993  0.91545298  1
  O  O326  1  0.32289067  0.75863329  0.41398062  1
  O  O327  1  0.32666294  0.74273678  0.92972612  1
  O  O328  1  0.65718331  0.24781050  0.41514529  1
  O  O329  1  0.66543677  0.24015698  0.92257836  1
  O  O330  1  0.66801614  0.75261743  0.41384196  1
  O  O331  1  0.64951135  0.74853325  0.91479578  1
  O  O332  1  0.99873974  0.25821887  0.41447502  1
  O  O333  1  0.96425791  0.24804464  0.91291118  1
  O  O334  1  0.99552508  0.73406719  0.42668249  1
  O  O335  1  0.98763658  0.75569020  0.91652315  1
  O  O336  1  0.21595093  0.08737497  0.18944454  1
  O  O337  1  0.20660547  0.07991623  0.69419003  1
  O  O338  1  0.21314004  0.58505330  0.19626673  1
  O  O339  1  0.21342224  0.58240173  0.70151492  1
  O  O340  1  0.54456831  0.08301575  0.19407737  1
  O  O341  1  0.54243270  0.07924940  0.68995732  1
  O  O342  1  0.54025640  0.58467867  0.19573245  1
  O  O343  1  0.54624099  0.58615697  0.69722647  1
  O  O344  1  0.88546712  0.09483473  0.19397509  1
  O  O345  1  0.87525151  0.08261706  0.69445770  1
  O  O346  1  0.87424379  0.58111508  0.19523617  1
  O  O347  1  0.87336855  0.58272803  0.69616497  1
  O  O348  1  0.04038783  0.33719723  0.19049463  1
  O  O349  1  0.04186557  0.32794172  0.69492950  1
  O  O350  1  0.04892857  0.83125035  0.19757290  1
  O  O351  1  0.03087860  0.83733924  0.69652301  1
  O  O352  1  0.36754312  0.33173256  0.19275707  1
  O  O353  1  0.38217721  0.33402905  0.70089484  1
  O  O354  1  0.38207617  0.83403529  0.19533538  1
  O  O355  1  0.37649302  0.83419689  0.69575872  1
  O  O356  1  0.70623574  0.33765101  0.19582979  1
  O  O357  1  0.71755873  0.33178373  0.69317099  1
  O  O358  1  0.70748996  0.83019867  0.19153757  1
  O  O359  1  0.70666462  0.83166072  0.69478772  1
  O  O360  1  0.21273077  0.41930013  0.19347581  1
  O  O361  1  0.21122800  0.41386341  0.70215019  1
  O  O362  1  0.21676795  0.91208895  0.19063407  1
  O  O363  1  0.21030963  0.92044138  0.69618660  1
  O  O364  1  0.54376377  0.42466367  0.19512323  1
  O  O365  1  0.54237745  0.42216705  0.69590454  1
  O  O366  1  0.54659059  0.91576624  0.19455719  1
  O  O367  1  0.54118248  0.91179159  0.69480211  1
  O  O368  1  0.87241364  0.41842553  0.19504641  1
  O  O369  1  0.87937689  0.41598526  0.69591333  1
  O  O370  1  0.88177871  0.90704894  0.19538259  1
  O  O371  1  0.87044605  0.91685867  0.69465541  1
  O  O372  1  0.04582089  0.16928960  0.19614847  1
  O  O373  1  0.04314735  0.16302116  0.69672753  1
  O  O374  1  0.04334367  0.66310217  0.19269456  1
  O  O375  1  0.04189804  0.66852885  0.69321488  1
  O  O376  1  0.37936205  0.16543429  0.19276068  1
  O  O377  1  0.37790141  0.16410021  0.69926507  1
  O  O378  1  0.37819994  0.66934000  0.19656586  1
  O  O379  1  0.37819625  0.66693249  0.69621836  1
  O  O380  1  0.70678575  0.17116675  0.19163645  1
  O  O381  1  0.71078285  0.16797109  0.70003007  1
  O  O382  1  0.70137219  0.66343774  0.19388822  1
  O  O383  1  0.70983748  0.66576652  0.69614235  1
  O  O384  1  0.12483739  0.08707502  0.30253080  1
  O  O385  1  0.12231683  0.08542215  0.80637498  1
  O  O386  1  0.12675140  0.58598922  0.30439132  1
  O  O387  1  0.12177525  0.57617624  0.80112408  1
  O  O388  1  0.45885568  0.07883827  0.30116001  1
  O  O389  1  0.45803902  0.08135684  0.80357657  1
  O  O390  1  0.45803519  0.59084596  0.30913887  1
  O  O391  1  0.45888876  0.58386751  0.80736482  1
  O  O392  1  0.78495347  0.09327093  0.30040095  1
  O  O393  1  0.78800234  0.07995774  0.80239605  1
  O  O394  1  0.78553172  0.57899586  0.30593251  1
  O  O395  1  0.79111633  0.58739694  0.80712653  1
  O  O396  1  0.28777636  0.33256583  0.30032262  1
  O  O397  1  0.29120764  0.32714168  0.80594175  1
  O  O398  1  0.29325001  0.83688326  0.30407356  1
  O  O399  1  0.29966752  0.83299894  0.80481890  1
  O  O400  1  0.63215575  0.33320429  0.30892822  1
  O  O401  1  0.62306347  0.33210730  0.79885476  1
  O  O402  1  0.62364521  0.83225191  0.30392934  1
  O  O403  1  0.62100451  0.83149733  0.80467049  1
  O  O404  1  0.95384382  0.33661969  0.30418738  1
  O  O405  1  0.95664970  0.33161099  0.80548820  1
  O  O406  1  0.95865292  0.83060697  0.30192926  1
  O  O407  1  0.95022235  0.83882338  0.80651328  1
  O  O408  1  0.12097555  0.41742129  0.29755553  1
  O  O409  1  0.12271367  0.40810030  0.80922288  1
  O  O410  1  0.12654783  0.91433734  0.30711143  1
  O  O411  1  0.11593366  0.92699484  0.81151050  1
  O  O412  1  0.44841438  0.42901468  0.30456913  1
  O  O413  1  0.45912288  0.41654498  0.80897489  1
  O  O414  1  0.45943003  0.91542427  0.30280415  1
  O  O415  1  0.45867963  0.91716797  0.80730245  1
  O  O416  1  0.78652551  0.41832903  0.30556317  1
  O  O417  1  0.79840731  0.41910851  0.80913629  1
  O  O418  1  0.78586310  0.90643165  0.30908882  1
  O  O419  1  0.78538458  0.91413071  0.80317973  1
  O  O420  1  0.29062458  0.16251242  0.30258308  1
  O  O421  1  0.28881893  0.16337109  0.80485517  1
  O  O422  1  0.29264576  0.67139882  0.30494154  1
  O  O423  1  0.29757383  0.66448501  0.81361963  1
  O  O424  1  0.62167576  0.16515447  0.30601988  1
  O  O425  1  0.62161903  0.16380384  0.80479257  1
  O  O426  1  0.62510832  0.66765352  0.30539372  1
  O  O427  1  0.62355121  0.66692643  0.80592106  1
  O  O428  1  0.95845338  0.17240841  0.30713933  1
  O  O429  1  0.95375488  0.16535930  0.80336407  1
  O  O430  1  0.96251012  0.66452134  0.30718297  1
  O  O431  1  0.95175888  0.66880950  0.80892221  1
  F  F432  1  0.04583732  -0.00131132  0.19771145  1
  F  F433  1  0.04312862  0.00015897  0.70417823  1
  F  F434  1  0.04330178  0.50352248  0.20069925  1
  F  F435  1  0.04651509  0.48857819  0.69854483  1
  F  F436  1  0.38315639  -0.00153436  0.19794670  1
  F  F437  1  0.37785630  -0.00365198  0.70280662  1
  F  F438  1  0.37771289  0.50763447  0.20040347  1
  F  F439  1  0.38300766  0.50214233  0.70704760  1
  F  F440  1  0.69781154  -0.00068673  0.19652573  1
  F  F441  1  0.70884292  -0.00341036  0.69997386  1
  F  F442  1  0.70887990  0.49956867  0.20201958  1
  F  F443  1  0.71714611  0.50419064  0.70498158  1
  F  F444  1  0.21176587  0.24939295  0.19905524  1
  F  F445  1  0.21173567  0.24637460  0.70278381  1
  F  F446  1  0.21592198  0.75003998  0.20132707  1
  F  F447  1  0.21615771  0.73795494  0.70247222  1
  F  F448  1  0.54830007  0.24290303  0.20022629  1
  F  F449  1  0.54561415  0.24749119  0.69967924  1
  F  F450  1  0.54545176  0.74931528  0.20231679  1
  F  F451  1  0.54471628  0.74970088  0.70246433  1
  F  F452  1  0.87739965  0.25573892  0.20114601  1
  F  F453  1  0.87906721  0.25013194  0.70323531  1
  F  F454  1  0.87939337  0.74591356  0.20010831  1
  F  F455  1  0.86397300  0.74966937  0.69735669  1
  F  F456  1  0.29560991  -0.00071603  0.29595096  1
  F  F457  1  0.28813706  0.00221922  0.79931591  1
  F  F458  1  0.28724509  0.50409397  0.29745608  1
  F  F459  1  0.29310423  0.49639532  0.80294975  1
  F  F460  1  0.62155469  -0.00168710  0.29797595  1
  F  F461  1  0.61996895  -0.00141609  0.79491197  1
  F  F462  1  0.62057325  0.50336418  0.29977501  1
  F  F463  1  0.62047888  0.50805749  0.80513494  1
  F  F464  1  0.97257580  0.00121095  0.30204444  1
  F  F465  1  0.94961310  0.00123091  0.79777815  1
  F  F466  1  0.95243992  0.50077508  0.29669245  1
  F  F467  1  0.95430013  0.49406843  0.80154546  1
  F  F468  1  0.12137989  0.25152731  0.29455824  1
  F  F469  1  0.12122392  0.24639912  0.79813782  1
  F  F470  1  0.12616162  0.74893508  0.29711007  1
  F  F471  1  0.12142332  0.73473740  0.81021756  1
  F  F472  1  0.44927951  0.23717598  0.30133433  1
  F  F473  1  0.45815344  0.24738241  0.79984525  1
  F  F474  1  0.45626218  0.75237056  0.29874277  1
  F  F475  1  0.45742970  0.74845043  0.79949525  1
  F  F476  1  0.78736157  0.25274245  0.29577115  1
  F  F477  1  0.79133283  0.25067948  0.80049822  1
  F  F478  1  0.78641977  0.74870970  0.29744432  1
  F  F479  1  0.78439763  0.75090073  0.79930057  1
