# generated using pymatgen
data_K24Na3Li5Mg64Fe17Si79(O5F)48
_symmetry_space_group_name_H-M   'P 1'
_cell_length_a   16.09583919
_cell_length_b   18.58113076
_cell_length_c   20.54966777
_cell_angle_alpha   90.00219949
_cell_angle_beta   100.00894695
_cell_angle_gamma   89.99594096
_symmetry_Int_Tables_number   1
_chemical_formula_structural   K24Na3Li5Mg64Fe17Si79(O5F)48
_chemical_formula_sum   'K24 Na3 Li5 Mg64 Fe17 Si79 O240 F48'
_cell_volume   6052.43401505
_cell_formula_units_Z   1
loop_
 _symmetry_equiv_pos_site_id
 _symmetry_equiv_pos_as_xyz
  1  'x, y, z'
loop_
 _atom_site_type_symbol
 _atom_site_label
 _atom_site_symmetry_multiplicity
 _atom_site_fract_x
 _atom_site_fract_y
 _atom_site_fract_z
 _atom_site_occupancy
  K  K0  1  0.00458438  0.00518288  -0.00098251  1
  K  K1  1  0.00307808  -0.00505354  0.50449735  1
  K  K2  1  -0.00712534  0.49112873  0.00277987  1
  K  K3  1  -0.01511958  0.49527658  0.49205728  1
  K  K4  1  0.32371484  -0.00939544  -0.00153196  1
  K  K5  1  0.33390989  0.00730892  0.50123928  1
  K  K6  1  0.33968982  0.50667668  0.01473505  1
  K  K7  1  0.33327496  0.50331258  0.48973513  1
  K  K8  1  0.67017286  -0.00796144  0.00380989  1
  K  K9  1  0.67229999  -0.00282896  0.50121507  1
  K  K10  1  0.67124886  0.49434617  0.00379746  1
  K  K11  1  0.67703914  0.49567606  0.49598828  1
  K  K12  1  0.15533257  0.25205296  0.00397492  1
  K  K13  1  0.16327745  0.26057675  0.49654489  1
  K  K14  1  0.16707712  0.74899388  -0.00122050  1
  K  K15  1  0.16364046  0.74947477  0.50019090  1
  K  K16  1  0.50054467  0.25178553  0.00279233  1
  K  K17  1  0.50260411  0.25735009  0.49643171  1
  K  K18  1  0.50086045  0.74822023  0.00464489  1
  K  K19  1  0.50924979  0.74577946  0.50076733  1
  K  K20  1  0.84593181  0.26852778  0.00191939  1
  K  K21  1  0.83113855  0.25463201  0.50149695  1
  K  K22  1  0.82670881  0.74528418  0.00449124  1
  K  K23  1  0.82942920  0.74245155  0.49618976  1
  Na  Na24  1  0.16917165  0.50186675  0.25086529  1
  Na  Na25  1  -0.00136135  0.41682303  0.75416251  1
  Na  Na26  1  0.33599451  0.57759678  0.24307438  1
  Li  Li27  1  -0.00488269  0.25521355  0.74963548  1
  Li  Li28  1  0.49732121  0.50278717  0.24317032  1
  Li  Li29  1  0.83052114  0.66252101  0.25120306  1
  Li  Li30  1  0.00410299  0.91806830  0.75362077  1
  Li  Li31  1  0.67483782  0.41543772  0.74650940  1
  Mg  Mg32  1  0.66958812  0.74647864  0.24626106  1
  Mg  Mg33  1  0.16442322  -0.00002241  0.25319016  1
  Mg  Mg34  1  0.33344627  0.74676430  0.24810475  1
  Mg  Mg35  1  0.50596496  0.49861933  0.74458488  1
  Mg  Mg36  1  0.49695558  0.00108129  0.24794837  1
  Mg  Mg37  1  0.83233165  0.49810040  0.75128333  1
  Mg  Mg38  1  0.16767150  0.49980917  0.75098158  1
  Mg  Mg39  1  0.33270792  0.75135021  0.75126555  1
  Mg  Mg40  1  -0.00332633  0.74772570  0.25306836  1
  Mg  Mg41  1  0.49852877  -0.00059629  0.75126529  1
  Mg  Mg42  1  0.16266619  -0.00104436  0.75231241  1
  Mg  Mg43  1  0.00237913  0.75412260  0.75284567  1
  Mg  Mg44  1  0.66784129  0.75046016  0.74454931  1
  Mg  Mg45  1  0.00110163  0.25244593  0.25211677  1
  Mg  Mg46  1  0.66527848  0.25008145  0.25019654  1
  Mg  Mg47  1  0.33416957  0.25148565  0.75113724  1
  Mg  Mg48  1  0.83013389  0.50071204  0.25150180  1
  Mg  Mg49  1  0.83793091  -0.00135039  0.74859943  1
  Mg  Mg50  1  0.33098818  0.24976196  0.24990735  1
  Mg  Mg51  1  0.66868308  0.25171962  0.74956976  1
  Mg  Mg52  1  0.83247818  -0.00214159  0.24726846  1
  Mg  Mg53  1  0.49781874  0.33588048  0.24579453  1
  Mg  Mg54  1  0.33681145  0.58427745  0.74930830  1
  Mg  Mg55  1  0.32926777  0.08471237  0.75041845  1
  Mg  Mg56  1  0.50034533  0.66373686  0.24478251  1
  Mg  Mg57  1  0.32973659  0.08612564  0.25102740  1
  Mg  Mg58  1  0.50027598  0.16629929  0.75089462  1
  Mg  Mg59  1  0.33146717  0.91501302  0.25158286  1
  Mg  Mg60  1  0.00130901  0.08566264  0.75271915  1
  Mg  Mg61  1  0.16845617  0.66593864  0.75394641  1
  Mg  Mg62  1  0.16651731  0.83352131  0.25409759  1
  Mg  Mg63  1  0.49487438  0.16624238  0.24832458  1
  Mg  Mg64  1  0.66793089  0.08322766  0.74933254  1
  Mg  Mg65  1  0.00041615  0.58324622  0.75217343  1
  Mg  Mg66  1  0.83439980  0.33478005  0.25188102  1
  Mg  Mg67  1  0.83267434  0.33497260  0.74965617  1
  Mg  Mg68  1  0.33550975  0.41910637  0.24579581  1
  Mg  Mg69  1  0.66530465  0.58244170  0.24731906  1
  Mg  Mg70  1  0.00130698  0.91477374  0.25202495  1
  Mg  Mg71  1  0.16669328  0.83758796  0.75276079  1
  Mg  Mg72  1  -0.00019517  0.41578655  0.25332557  1
  Mg  Mg73  1  0.83337160  0.66598035  0.74927221  1
  Mg  Mg74  1  0.83529513  0.83525718  0.74825991  1
  Mg  Mg75  1  0.16265607  0.16988164  0.75200237  1
  Mg  Mg76  1  0.00311715  0.08380264  0.25316449  1
  Mg  Mg77  1  0.66734262  0.91515621  0.74705292  1
  Mg  Mg78  1  0.66627135  0.58170443  0.74718101  1
  Mg  Mg79  1  0.50564309  0.33508208  0.74737400  1
  Mg  Mg80  1  0.32904038  0.91552892  0.75349609  1
  Mg  Mg81  1  0.50118932  0.66548935  0.74586895  1
  Mg  Mg82  1  0.16692016  0.33793127  0.25190439  1
  Mg  Mg83  1  0.83109482  0.82976258  0.24887552  1
  Mg  Mg84  1  0.66444643  0.08345497  0.24714149  1
  Mg  Mg85  1  0.33588749  0.41658597  0.74963272  1
  Mg  Mg86  1  0.16556370  0.33406447  0.75264405  1
  Mg  Mg87  1  0.83543522  0.16560441  0.25223840  1
  Mg  Mg88  1  0.49901649  0.83350323  0.24613500  1
  Mg  Mg89  1  0.16713157  0.66622061  0.25086666  1
  Mg  Mg90  1  -0.00201631  0.58346301  0.25421870  1
  Mg  Mg91  1  0.16691165  0.16606554  0.25135698  1
  Mg  Mg92  1  0.66499528  0.41747513  0.24911483  1
  Mg  Mg93  1  0.66486898  0.91418871  0.24554194  1
  Mg  Mg94  1  0.49819001  0.83503463  0.74892767  1
  Mg  Mg95  1  0.83566485  0.16806765  0.74942751  1
  Fe  Fe96  1  0.14727962  0.91240003  0.39281360  1
  Fe  Fe97  1  0.30807814  0.17637253  0.39354445  1
  Fe  Fe98  1  0.13752526  0.91843864  0.89428170  1
  Fe  Fe99  1  0.30826317  0.82587803  0.89479021  1
  Fe  Fe100  1  0.02969446  0.33777331  0.11039597  1
  Fe  Fe101  1  0.98234320  0.32745417  0.39419418  1
  Fe  Fe102  1  0.52319072  0.57780689  0.10545415  1
  Fe  Fe103  1  0.69022772  0.83221312  0.10687140  1
  Fe  Fe104  1  0.35071659  0.16567638  0.10744866  1
  Fe  Fe105  1  0.69542181  0.83641721  0.60732742  1
  Fe  Fe106  1  0.19068062  0.91960648  0.61036911  1
  Fe  Fe107  1  0.80910507  0.41909132  0.89158785  1
  Fe  Fe108  1  0.80614171  0.41127753  0.39189307  1
  Fe  Fe109  1  0.14421793  0.08329482  0.39346406  1
  Fe  Fe110  1  0.52251947  0.58188378  0.60569042  1
  Fe  Fe111  1  0.80954902  0.58630611  0.38922827  1
  Fe  Fe112  1  0.69188129  0.33033088  0.60834350  1
  Si  Si113  1  0.35387000  0.33357361  0.11092514  1
  Si  Si114  1  0.47937419  0.58381110  0.38047498  1
  Si  Si115  1  0.80916398  0.08020322  0.88539190  1
  Si  Si116  1  0.69097859  0.66242467  0.10736477  1
  Si  Si117  1  0.69617874  0.66312247  0.60953709  1
  Si  Si118  1  0.35550409  0.67241806  0.61256259  1
  Si  Si119  1  0.97003435  0.83759141  0.38765052  1
  Si  Si120  1  0.68978068  0.15794349  0.61186172  1
  Si  Si121  1  0.86388800  0.91558377  0.11180115  1
  Si  Si122  1  0.02276130  0.66468693  0.11460400  1
  Si  Si123  1  0.63649277  0.16277039  0.38340866  1
  Si  Si124  1  0.19407516  0.41793523  0.61551523  1
  Si  Si125  1  0.36033776  0.83713680  0.61407415  1
  Si  Si126  1  0.31358652  0.65517157  0.88914192  1
  Si  Si127  1  0.80453190  0.91455126  0.88464417  1
  Si  Si128  1  0.96848694  0.83377440  0.88848791  1
  Si  Si129  1  0.31273947  0.34507743  0.38609965  1
  Si  Si130  1  0.14501015  0.59072147  0.38751619  1
  Si  Si131  1  0.47488326  0.42140098  0.37881043  1
  Si  Si132  1  0.63945065  0.67150332  0.88287431  1
  Si  Si133  1  0.86196525  0.08157670  0.11528725  1
  Si  Si134  1  0.64284112  0.16346276  0.88580373  1
  Si  Si135  1  0.48012235  0.57823200  0.88255924  1
  Si  Si136  1  0.18674782  0.07511796  0.11244933  1
  Si  Si137  1  0.52043300  0.92183964  0.11035494  1
  Si  Si138  1  0.86053812  0.41744620  0.61351752  1
  Si  Si139  1  0.63641833  0.83666813  0.88334949  1
  Si  Si140  1  0.14497828  0.09016396  0.88991496  1
  Si  Si141  1  0.97317680  0.15666977  0.38895935  1
  Si  Si142  1  0.98148131  0.67142994  0.39061069  1
  Si  Si143  1  0.97706096  0.66905782  0.88627777  1
  Si  Si144  1  0.80344167  0.08279075  0.38379070  1
  Si  Si145  1  0.35573749  0.83766981  0.11344486  1
  Si  Si146  1  0.86769483  0.91786780  0.61246997  1
  Si  Si147  1  0.31165001  0.33828670  0.88654216  1
  Si  Si148  1  0.85454124  0.41885847  0.11410287  1
  Si  Si149  1  0.69669125  0.16311143  0.11433975  1
  Si  Si150  1  0.97514617  0.32956832  0.88759901  1
  Si  Si151  1  0.86362450  0.08405078  0.61512249  1
  Si  Si152  1  0.31343951  0.82458802  0.38779983  1
  Si  Si153  1  0.47400190  0.08593198  0.88612104  1
  Si  Si154  1  0.47877428  0.41464291  0.88339715  1
  Si  Si155  1  0.35567470  0.16614222  0.61658603  1
  Si  Si156  1  0.35621747  0.33060183  0.61467281  1
  Si  Si157  1  0.69213025  0.32871847  0.11352893  1
  Si  Si158  1  0.47285530  0.08002659  0.38757761  1
  Si  Si159  1  0.52435786  0.40611099  0.10941702  1
  Si  Si160  1  0.47335400  0.92015716  0.88831838  1
  Si  Si161  1  0.30997308  0.17263146  0.88618286  1
  Si  Si162  1  0.63977144  0.32777505  0.88759791  1
  Si  Si163  1  0.19402563  0.58414761  0.61656561  1
  Si  Si164  1  0.02692141  0.66359429  0.61813959  1
  Si  Si165  1  0.02530208  0.16557790  0.11334403  1
  Si  Si166  1  0.18986010  0.59164025  0.11221155  1
  Si  Si167  1  0.02931753  0.33781467  0.61798556  1
  Si  Si168  1  0.80306756  0.91718641  0.38329154  1
  Si  Si169  1  0.52005595  0.08171603  0.61621168  1
  Si  Si170  1  0.18795633  0.91207877  0.11708209  1
  Si  Si171  1  0.85977906  0.58322976  0.11757031  1
  Si  Si172  1  0.52351473  0.91805002  0.61349396  1
  Si  Si173  1  0.14445677  0.41390324  0.88709118  1
  Si  Si174  1  0.80765156  0.59051181  0.88768293  1
  Si  Si175  1  0.47232768  0.91517101  0.38430460  1
  Si  Si176  1  0.14343034  0.42218200  0.39027180  1
  Si  Si177  1  0.86308204  0.58211633  0.61682585  1
  Si  Si178  1  0.18543920  0.08941398  0.61549681  1
  Si  Si179  1  0.63188841  0.32960612  0.38480998  1
  Si  Si180  1  0.97297909  0.16541878  0.88655727  1
  Si  Si181  1  0.31511107  0.66358156  0.38371188  1
  Si  Si182  1  0.02430889  0.17563299  0.61796496  1
  Si  Si183  1  0.02918055  0.82650764  0.61488763  1
  Si  Si184  1  0.35612996  0.67359573  0.10759907  1
  Si  Si185  1  0.63700016  0.83587796  0.38231204  1
  Si  Si186  1  0.52542069  0.08759243  0.11126393  1
  Si  Si187  1  0.63825335  0.67074350  0.38583433  1
  Si  Si188  1  0.51685988  0.41348622  0.60756545  1
  Si  Si189  1  0.02560903  0.82878160  0.11641644  1
  Si  Si190  1  0.19846587  0.42344373  0.11069322  1
  Si  Si191  1  0.14082748  0.57966566  0.88812169  1
  O  O192  1  0.26303252  0.09963170  0.07555377  1
  O  O193  1  0.27268124  0.11739460  0.58938916  1
  O  O194  1  0.26391616  0.63358628  0.08003342  1
  O  O195  1  0.27060517  0.62228679  0.58600616  1
  O  O196  1  0.61326694  0.11425710  0.08539873  1
  O  O197  1  0.60444587  0.10615777  0.58705836  1
  O  O198  1  0.61868947  0.60757765  0.07066505  1
  O  O199  1  0.62326150  0.60707791  0.57707778  1
  O  O200  1  0.93885291  0.11814450  0.08500774  1
  O  O201  1  0.93716590  0.13045956  0.58700167  1
  O  O202  1  0.94048344  0.61481685  0.08525453  1
  O  O203  1  0.94748007  0.61101761  0.58952430  1
  O  O204  1  0.11631036  0.38058996  0.07168015  1
  O  O205  1  0.10973697  0.37141179  0.58611142  1
  O  O206  1  0.11071015  0.85607996  0.08900682  1
  O  O207  1  0.10700802  0.85071232  0.57947943  1
  O  O208  1  0.44167585  0.35372554  0.08311824  1
  O  O209  1  0.43626862  0.35631525  0.58258615  1
  O  O210  1  0.43220195  0.87726932  0.08376195  1
  O  O211  1  0.44896067  0.85879469  0.58767464  1
  O  O212  1  0.76717826  0.37197451  0.08514916  1
  O  O213  1  0.78534767  0.36802762  0.57489158  1
  O  O214  1  0.78319679  0.87226495  0.07332717  1
  O  O215  1  0.78367802  0.87963164  0.57187535  1
  O  O216  1  0.28362183  0.39588693  0.08220898  1
  O  O217  1  0.27333574  0.38096615  0.58643419  1
  O  O218  1  0.27069262  0.88561424  0.08681836  1
  O  O219  1  0.29121256  0.89456234  0.58058149  1
  O  O220  1  0.60261626  0.36518922  0.07928675  1
  O  O221  1  0.59425448  0.38407034  0.57405660  1
  O  O222  1  0.59439794  0.89014043  0.07484346  1
  O  O223  1  0.60316946  0.89947791  0.57874439  1
  O  O224  1  0.92728039  0.38594360  0.07766108  1
  O  O225  1  0.95031512  0.39160499  0.59081440  1
  O  O226  1  0.94872325  0.88377527  0.08568708  1
  O  O227  1  0.94855036  0.87949441  0.58703748  1
  O  O228  1  0.10110118  0.12234307  0.08465711  1
  O  O229  1  0.10748275  0.14606365  0.58884158  1
  O  O230  1  0.10015823  0.63314494  0.07967361  1
  O  O231  1  0.10833831  0.63049259  0.58885437  1
  O  O232  1  0.45187362  0.14056938  0.07638652  1
  O  O233  1  0.43901819  0.13471863  0.58858683  1
  O  O234  1  0.42601466  0.63583929  0.07092134  1
  O  O235  1  0.43187965  0.64702431  0.57669814  1
  O  O236  1  0.77445805  0.12485830  0.08493706  1
  O  O237  1  0.76892849  0.11593322  0.58482485  1
  O  O238  1  0.78164188  0.63563875  0.08581714  1
  O  O239  1  0.78598062  0.63633138  0.58708102  1
  O  O240  1  0.03478588  0.09025386  0.41550341  1
  O  O241  1  0.06292417  0.12579240  0.91745761  1
  O  O242  1  0.07283787  0.63140092  0.42232614  1
  O  O243  1  0.06437516  0.62326357  0.91574702  1
  O  O244  1  0.40130217  0.11329487  0.42397650  1
  O  O245  1  0.39603009  0.12528141  0.91503398  1
  O  O246  1  0.39394281  0.60863846  0.41042908  1
  O  O247  1  0.39567203  0.60103826  0.91249632  1
  O  O248  1  0.72191193  0.11586221  0.41226349  1
  O  O249  1  0.72819364  0.11572081  0.91431047  1
  O  O250  1  0.71966379  0.62910967  0.42429943  1
  O  O251  1  0.73084878  0.63631022  0.91438146  1
  O  O252  1  0.23447218  0.38133233  0.41734658  1
  O  O253  1  0.23493538  0.37438240  0.91865566  1
  O  O254  1  0.23267944  0.84244061  0.42125587  1
  O  O255  1  0.22198538  0.85732616  0.93574575  1
  O  O256  1  0.54684487  0.36129467  0.40974654  1
  O  O257  1  0.55435358  0.35925184  0.91427574  1
  O  O258  1  0.55820745  0.86986218  0.41359086  1
  O  O259  1  0.56336715  0.87812785  0.91486346  1
  O  O260  1  0.89275617  0.35328060  0.43364040  1
  O  O261  1  0.91221240  0.37269085  0.92746549  1
  O  O262  1  0.88225768  0.86519693  0.41358357  1
  O  O263  1  0.88018293  0.85914658  0.91476052  1
  O  O264  1  0.07447470  0.38872021  0.43052510  1
  O  O265  1  0.07086035  0.36621570  0.91188626  1
  O  O266  1  0.04377948  0.89105328  0.42121541  1
  O  O267  1  0.03883480  0.88796089  0.92591536  1
  O  O268  1  0.39133875  0.40162964  0.41091559  1
  O  O269  1  0.39566430  0.38729816  0.91374428  1
  O  O270  1  0.39429286  0.87924888  0.41453446  1
  O  O271  1  0.40290785  0.88630625  0.92519404  1
  O  O272  1  0.71037281  0.37420611  0.42273783  1
  O  O273  1  0.71955028  0.37268232  0.92468998  1
  O  O274  1  0.71984958  0.88623020  0.41095282  1
  O  O275  1  0.72216192  0.88245115  0.91253122  1
  O  O276  1  0.21681291  0.15427132  0.43294817  1
  O  O277  1  0.22837958  0.14322101  0.91564559  1
  O  O278  1  0.23466228  0.63354453  0.41650590  1
  O  O279  1  0.23258467  0.61686941  0.91707646  1
  O  O280  1  0.56264138  0.12231335  0.41487526  1
  O  O281  1  0.56250505  0.12835967  0.91514114  1
  O  O282  1  0.55448013  0.63992195  0.41427135  1
  O  O283  1  0.56165178  0.63019009  0.91083507  1
  O  O284  1  0.88147346  0.13527579  0.41315872  1
  O  O285  1  0.89617052  0.12321123  0.91706588  1
  O  O286  1  0.90925574  0.63756402  0.42651026  1
  O  O287  1  0.89637065  0.63573086  0.91511923  1
  O  O288  1  0.15995451  -0.00835278  0.08732840  1
  O  O289  1  0.15863886  0.01332562  0.58101788  1
  O  O290  1  0.18619716  0.50848191  0.08419024  1
  O  O291  1  0.18320352  0.50127427  0.58751329  1
  O  O292  1  0.50366027  0.00529921  0.08348585  1
  O  O293  1  0.49138255  0.00067386  0.58918037  1
  O  O294  1  0.50605171  0.48236375  0.07190778  1
  O  O295  1  0.48277096  0.49077292  0.57624657  1
  O  O296  1  0.85237229  -0.00013294  0.08484867  1
  O  O297  1  0.86760346  0.00253078  0.58545107  1
  O  O298  1  0.83706188  0.50221330  0.08635748  1
  O  O299  1  0.84523781  0.50162818  0.58624195  1
  O  O300  1  0.01395507  0.24250611  0.07659563  1
  O  O301  1  0.00769538  0.25686502  0.58613205  1
  O  O302  1  0.00365074  0.74774237  0.08548320  1
  O  O303  1  0.00362675  0.74350756  0.58678865  1
  O  O304  1  0.31883599  0.25849776  0.07559002  1
  O  O305  1  0.33491413  0.24782419  0.58826922  1
  O  O306  1  0.34093476  0.75813641  0.07982450  1
  O  O307  1  0.33058383  0.75545572  0.58779233  1
  O  O308  1  0.68760569  0.24505748  0.08391754  1
  O  O309  1  0.67326942  0.23374072  0.57449895  1
  O  O310  1  0.67184467  0.74066317  0.07046994  1
  O  O311  1  0.67468809  0.74217155  0.57606213  1
  O  O312  1  0.19213502  -0.00250407  0.42709044  1
  O  O313  1  0.16447427  0.01409429  0.92647624  1
  O  O314  1  0.15863803  0.50776689  0.41518961  1
  O  O315  1  0.14307587  0.49679020  0.91738786  1
  O  O316  1  0.48961567  -0.00379227  0.41454671  1
  O  O317  1  0.48836929  0.00435535  0.91516741  1
  O  O318  1  0.50442259  0.50181012  0.40882493  1
  O  O319  1  0.50420720  0.49637220  0.91054170  1
  O  O320  1  0.81835854  -0.00008530  0.41329700  1
  O  O321  1  0.82005331  -0.00295859  0.91514864  1
  O  O322  1  0.82587001  0.49949832  0.43281313  1
  O  O323  1  0.81582339  0.51455324  0.92561207  1
  O  O324  1  0.34111136  0.27014945  0.42400488  1
  O  O325  1  0.32975129  0.25534764  0.91423219  1
  O  O326  1  0.34607055  0.74338495  0.41465529  1
  O  O327  1  0.33592840  0.73057209  0.92582537  1
  O  O328  1  0.64310647  0.24471206  0.41201009  1
  O  O329  1  0.65301356  0.24399406  0.91743221  1
  O  O330  1  0.65009034  0.75550522  0.41334852  1
  O  O331  1  0.64299500  0.75427879  0.91256161  1
  O  O332  1  1.00714011  0.23153359  0.42337146  1
  O  O333  1  0.98185598  0.24618850  0.91890817  1
  O  O334  1  0.99285031  0.75622419  0.41674854  1
  O  O335  1  0.99083201  0.75058905  0.91725391  1
  O  O336  1  0.20848425  0.07898964  0.19288944  1
  O  O337  1  0.20777064  0.08823042  0.69676983  1
  O  O338  1  0.20313848  0.59558748  0.19011976  1
  O  O339  1  0.21313964  0.58373848  0.69718392  1
  O  O340  1  0.54215426  0.08471112  0.19252541  1
  O  O341  1  0.54098546  0.08295927  0.69696000  1
  O  O342  1  0.54641019  0.58586730  0.19494269  1
  O  O343  1  0.54449265  0.58468492  0.69773373  1
  O  O344  1  0.87626503  0.08238099  0.19559645  1
  O  O345  1  0.87732753  0.08441759  0.69536403  1
  O  O346  1  0.87962896  0.58175512  0.19685265  1
  O  O347  1  0.87931602  0.58413505  0.69738693  1
  O  O348  1  0.04656508  0.33467242  0.20118064  1
  O  O349  1  0.05340933  0.33144747  0.69629244  1
  O  O350  1  0.04132324  0.83002620  0.19642878  1
  O  O351  1  0.04804504  0.82641092  0.69502144  1
  O  O352  1  0.37426349  0.32965911  0.19174013  1
  O  O353  1  0.37599131  0.33254242  0.69544121  1
  O  O354  1  0.37517604  0.83591993  0.19392206  1
  O  O355  1  0.37833630  0.83569978  0.69537873  1
  O  O356  1  0.70896851  0.32770104  0.19355820  1
  O  O357  1  0.71142350  0.32776111  0.69888327  1
  O  O358  1  0.71051626  0.83399662  0.19839753  1
  O  O359  1  0.71270287  0.83465704  0.69941221  1
  O  O360  1  0.21331294  0.41193351  0.18980440  1
  O  O361  1  0.21350985  0.41775101  0.69598632  1
  O  O362  1  0.20995138  0.91387903  0.19718915  1
  O  O363  1  0.21206216  0.91977869  0.70176811  1
  O  O364  1  0.54845736  0.40706006  0.18905803  1
  O  O365  1  0.53512732  0.41431920  0.68869929  1
  O  O366  1  0.54014547  0.91913726  0.19155968  1
  O  O367  1  0.54246039  0.91828972  0.69495480  1
  O  O368  1  0.87400146  0.41627720  0.19418795  1
  O  O369  1  0.86899894  0.41779514  0.69278000  1
  O  O370  1  0.87636336  0.91515823  0.19258612  1
  O  O371  1  0.87400798  0.91697334  0.69241570  1
  O  O372  1  0.04077716  0.16712793  0.19399705  1
  O  O373  1  0.04300843  0.16920885  0.69767074  1
  O  O374  1  0.04133218  0.66701290  0.19464268  1
  O  O375  1  0.04625451  0.66594718  0.69866753  1
  O  O376  1  0.37647946  0.16450044  0.19892723  1
  O  O377  1  0.37671780  0.16664063  0.69726984  1
  O  O378  1  0.37962875  0.67666670  0.18714285  1
  O  O379  1  0.37548245  0.66812356  0.69399622  1
  O  O380  1  0.71154833  0.16433496  0.19475607  1
  O  O381  1  0.70839092  0.16176775  0.69296360  1
  O  O382  1  0.70142733  0.66697214  0.18750997  1
  O  O383  1  0.71121079  0.66683318  0.69149585  1
  O  O384  1  0.12255063  0.08362261  0.29966920  1
  O  O385  1  0.12573534  0.08782538  0.80907584  1
  O  O386  1  0.11992430  0.59360113  0.30844916  1
  O  O387  1  0.12515688  0.58232680  0.80780674  1
  O  O388  1  0.45688927  0.08094503  0.30643747  1
  O  O389  1  0.45604543  0.08544783  0.80565117  1
  O  O390  1  0.46486558  0.58808055  0.30231268  1
  O  O391  1  0.45858813  0.58206894  0.80241000  1
  O  O392  1  0.78644864  0.08099993  0.30305045  1
  O  O393  1  0.78994497  0.08124581  0.80510977  1
  O  O394  1  0.78483485  0.58259685  0.29864951  1
  O  O395  1  0.78921407  0.58815344  0.80687628  1
  O  O396  1  0.29075839  0.33515739  0.30557044  1
  O  O397  1  0.29368600  0.33617151  0.80605289  1
  O  O398  1  0.29372784  0.83088354  0.30665533  1
  O  O399  1  0.29052589  0.83050132  0.80236473  1
  O  O400  1  0.62051663  0.32981429  0.30399575  1
  O  O401  1  0.61995932  0.32559269  0.80772625  1
  O  O402  1  0.61870442  0.83699487  0.30224272  1
  O  O403  1  0.61981295  0.83574383  0.80315745  1
  O  O404  1  0.95327161  0.33157353  0.30198803  1
  O  O405  1  0.94877430  0.32637897  0.80910837  1
  O  O406  1  0.95320521  0.83558609  0.30648060  1
  O  O407  1  0.95269894  0.83129402  0.80818913  1
  O  O408  1  0.11927551  0.41327728  0.31108622  1
  O  O409  1  0.13712555  0.41872049  0.80823083  1
  O  O410  1  0.12148534  0.91539886  0.30012147  1
  O  O411  1  0.12278989  0.91738269  0.80353452  1
  O  O412  1  0.45742213  0.41496406  0.29956995  1
  O  O413  1  0.45879712  0.41501138  0.80290300  1
  O  O414  1  0.45579287  0.91601175  0.30357164  1
  O  O415  1  0.45612032  0.91837396  0.80706254  1
  O  O416  1  0.78609641  0.41422309  0.29905599  1
  O  O417  1  0.79230348  0.41746636  0.80181448  1
  O  O418  1  0.78761144  0.91900331  0.30300407  1
  O  O419  1  0.78959556  0.91813499  0.80458834  1
  O  O420  1  0.28738125  0.16720355  0.30111788  1
  O  O421  1  0.29289800  0.16952069  0.80586484  1
  O  O422  1  0.28807859  0.67167330  0.30500318  1
  O  O423  1  0.29268053  0.66148093  0.80804902  1
  O  O424  1  0.62059977  0.16299834  0.30276240  1
  O  O425  1  0.62358815  0.16303677  0.80529039  1
  O  O426  1  0.62366379  0.67082365  0.30519663  1
  O  O427  1  0.62360564  0.67069186  0.80264785  1
  O  O428  1  0.95440394  0.16291781  0.30691479  1
  O  O429  1  0.95300889  0.16232261  0.80727380  1
  O  O430  1  0.96363599  0.66797314  0.31044355  1
  O  O431  1  0.95949135  0.66879597  0.80592513  1
  F  F432  1  0.04072104  -0.00103927  0.20019198  1
  F  F433  1  0.04610366  0.00930576  0.70188448  1
  F  F434  1  0.03263668  0.50065534  0.20281948  1
  F  F435  1  0.05254823  0.50972959  0.70094820  1
  F  F436  1  0.37688639  -0.00106643  0.20248259  1
  F  F437  1  0.37832037  0.00177825  0.70532721  1
  F  F438  1  0.38080353  0.48815649  0.18788366  1
  F  F439  1  0.37842837  0.49972284  0.70138362  1
  F  F440  1  0.71049437  0.00040739  0.19835596  1
  F  F441  1  0.71275833  0.00051498  0.70186130  1
  F  F442  1  0.71056545  0.49717810  0.19617370  1
  F  F443  1  0.71600005  0.50690055  0.69964286  1
  F  F444  1  0.20890479  0.25095607  0.20203039  1
  F  F445  1  0.21537473  0.25178589  0.70360973  1
  F  F446  1  0.21063133  0.75359049  0.20230966  1
  F  F447  1  0.21235738  0.74541584  0.70427309  1
  F  F448  1  0.54594672  0.24652311  0.20063645  1
  F  F449  1  0.54453405  0.24644904  0.70188496  1
  F  F450  1  0.54579495  0.75318780  0.19923413  1
  F  F451  1  0.54448157  0.75237103  0.70039673  1
  F  F452  1  0.87621453  0.24657320  0.20179787  1
  F  F453  1  0.87252025  0.24904313  0.70079769  1
  F  F454  1  0.88119261  0.75292961  0.20172284  1
  F  F455  1  0.88095454  0.74972827  0.70301870  1
  F  F456  1  0.28902448  -0.00140189  0.29768050  1
  F  F457  1  0.28972965  0.00490928  0.80173525  1
  F  F458  1  0.29875634  0.49018966  0.30420824  1
  F  F459  1  0.29177380  0.50038617  0.79794775  1
  F  F460  1  0.61977493  -0.00042635  0.29431553  1
  F  F461  1  0.62159144  -0.00034349  0.79767020  1
  F  F462  1  0.62615578  0.49833079  0.29630121  1
  F  F463  1  0.62062478  0.50199958  0.79801991  1
  F  F464  1  0.95047525  -0.00182627  0.29565298  1
  F  F465  1  0.95218938  0.00457264  0.80023927  1
  F  F466  1  0.95217549  0.49976910  0.30229248  1
  F  F467  1  0.95125344  0.51136144  0.80461926  1
  F  F468  1  0.12225213  0.24880360  0.29906305  1
  F  F469  1  0.13505965  0.25202049  0.80555590  1
  F  F470  1  0.11999647  0.75050844  0.29830879  1
  F  F471  1  0.12320949  0.74774961  0.80201967  1
  F  F472  1  0.45611677  0.25087031  0.29657457  1
  F  F473  1  0.45550053  0.25024398  0.79799907  1
  F  F474  1  0.45519875  0.75196720  0.29440212  1
  F  F475  1  0.45640746  0.74915210  0.79647615  1
  F  F476  1  0.78490022  0.24632809  0.29807246  1
  F  F477  1  0.78502574  0.24155730  0.80184198  1
  F  F478  1  0.78509476  0.75301607  0.30002183  1
  F  F479  1  0.78801573  0.74932051  0.79728859  1
