# generated using pymatgen
data_K24Na3Li5Mg64Fe17Si79(O5F)48
_symmetry_space_group_name_H-M   'P 1'
_cell_length_a   16.09412855
_cell_length_b   18.59288734
_cell_length_c   20.55684049
_cell_angle_alpha   89.99440016
_cell_angle_beta   100.01808776
_cell_angle_gamma   90.00678009
_symmetry_Int_Tables_number   1
_chemical_formula_structural   K24Na3Li5Mg64Fe17Si79(O5F)48
_chemical_formula_sum   'K24 Na3 Li5 Mg64 Fe17 Si79 O240 F48'
_cell_volume   6057.56282441
_cell_formula_units_Z   1
loop_
 _symmetry_equiv_pos_site_id
 _symmetry_equiv_pos_as_xyz
  1  'x, y, z'
loop_
 _atom_site_type_symbol
 _atom_site_label
 _atom_site_symmetry_multiplicity
 _atom_site_fract_x
 _atom_site_fract_y
 _atom_site_fract_z
 _atom_site_occupancy
  K  K0  1  0.00263214  -0.00816760  0.00650639  1
  K  K1  1  -0.00213902  0.00576075  0.49323862  1
  K  K2  1  0.00113564  0.49912780  -0.00203599  1
  K  K3  1  -0.00801642  0.50715435  0.49768452  1
  K  K4  1  0.34274662  -0.00432341  0.00966971  1
  K  K5  1  0.34056479  0.00374691  0.49194542  1
  K  K6  1  0.33149235  0.50786192  0.00207573  1
  K  K7  1  0.32240002  0.50177157  0.49491117  1
  K  K8  1  0.66603204  -0.00647086  0.00298267  1
  K  K9  1  0.66146992  -0.00368394  0.49363603  1
  K  K10  1  0.66487739  0.50659523  0.00489405  1
  K  K11  1  0.67375070  0.50200703  0.49210913  1
  K  K12  1  0.15930272  0.25697124  0.00289130  1
  K  K13  1  0.16188042  0.24892726  0.49535376  1
  K  K14  1  0.17831242  0.74818571  0.01090847  1
  K  K15  1  0.16848491  0.74916308  0.49309221  1
  K  K16  1  0.49793439  0.25187239  0.00949953  1
  K  K17  1  0.50776258  0.24482433  0.49836420  1
  K  K18  1  0.49254273  0.74831619  0.01331793  1
  K  K19  1  0.49571342  0.75692324  0.48781205  1
  K  K20  1  0.83845684  0.25638238  0.00186746  1
  K  K21  1  0.83503131  0.24626812  0.49359798  1
  K  K22  1  0.83736562  0.75154760  0.00464816  1
  K  K23  1  0.81880853  0.74459957  0.48997763  1
  Na  Na24  1  0.66481875  0.74841420  0.25463016  1
  Na  Na25  1  0.66877917  0.08031755  0.25310905  1
  Na  Na26  1  0.83530306  0.33067575  0.24854432  1
  Li  Li27  1  0.33576625  0.74723804  0.24953345  1
  Li  Li28  1  0.15253361  0.50182127  0.75725822  1
  Li  Li29  1  0.83976883  0.33435324  0.75439471  1
  Li  Li30  1  0.00565072  0.57548092  0.75442732  1
  Li  Li31  1  0.66606889  0.91809921  0.74663441  1
  Mg  Mg32  1  -0.00044408  0.74596065  0.75276872  1
  Mg  Mg33  1  0.83707422  0.49774230  0.75287612  1
  Mg  Mg34  1  0.00063740  0.25090662  0.24963620  1
  Mg  Mg35  1  0.33247338  0.75034361  0.75215717  1
  Mg  Mg36  1  0.66572945  0.75053284  0.75055771  1
  Mg  Mg37  1  0.16787855  -0.00087271  0.74913810  1
  Mg  Mg38  1  0.66931859  0.24638592  0.25066110  1
  Mg  Mg39  1  0.67063240  0.25231795  0.74547989  1
  Mg  Mg40  1  0.83028197  -0.00057205  0.74548274  1
  Mg  Mg41  1  0.16716058  -0.00201368  0.25015645  1
  Mg  Mg42  1  0.83322980  -0.00329331  0.25241141  1
  Mg  Mg43  1  0.83336244  0.50091020  0.24937745  1
  Mg  Mg44  1  -0.00221599  0.25047912  0.75121063  1
  Mg  Mg45  1  0.50096879  0.50177704  0.24766746  1
  Mg  Mg46  1  0.50633127  -0.00129329  0.74820391  1
  Mg  Mg47  1  0.49823175  -0.00161473  0.24941873  1
  Mg  Mg48  1  0.33365450  0.25306867  0.24505080  1
  Mg  Mg49  1  0.33278539  0.25043004  0.74872991  1
  Mg  Mg50  1  0.00068870  0.74905181  0.25050355  1
  Mg  Mg51  1  0.49667399  0.50021715  0.74898023  1
  Mg  Mg52  1  0.16828802  0.50175840  0.25033130  1
  Mg  Mg53  1  0.66920108  0.41676518  0.75033961  1
  Mg  Mg54  1  0.00028130  0.41706142  0.75591287  1
  Mg  Mg55  1  0.50319701  0.16590254  0.74699373  1
  Mg  Mg56  1  0.50333582  0.83615398  0.75116523  1
  Mg  Mg57  1  0.16468538  0.33575341  0.24670812  1
  Mg  Mg58  1  0.33511850  0.58650364  0.25034914  1
  Mg  Mg59  1  0.49771893  0.66596421  0.74997993  1
  Mg  Mg60  1  0.66715519  0.58472580  0.24931577  1
  Mg  Mg61  1  0.50016509  0.16622177  0.24902715  1
  Mg  Mg62  1  0.16987899  0.66829397  0.24928187  1
  Mg  Mg63  1  0.66613846  0.08320642  0.74368736  1
  Mg  Mg64  1  0.00311162  0.91445347  0.25064243  1
  Mg  Mg65  1  0.49927724  0.33499097  0.74849498  1
  Mg  Mg66  1  0.83378468  0.83125640  0.25367459  1
  Mg  Mg67  1  0.16385589  0.33687970  0.75351911  1
  Mg  Mg68  1  0.16686548  0.83307245  0.74979978  1
  Mg  Mg69  1  -0.00199991  0.41611208  0.24782906  1
  Mg  Mg70  1  -0.00022703  0.08353126  0.25248905  1
  Mg  Mg71  1  0.16549865  0.16644343  0.24738912  1
  Mg  Mg72  1  -0.00118168  0.58396413  0.25117542  1
  Mg  Mg73  1  0.66526636  0.91582536  0.25248393  1
  Mg  Mg74  1  0.16695512  0.16572700  0.74951787  1
  Mg  Mg75  1  0.82949107  0.83346812  0.74814623  1
  Mg  Mg76  1  0.16299437  0.66270413  0.75301667  1
  Mg  Mg77  1  0.67049908  0.41413591  0.24908977  1
  Mg  Mg78  1  0.33185871  0.91195510  0.25242277  1
  Mg  Mg79  1  0.66672091  0.58325068  0.75031693  1
  Mg  Mg80  1  0.33827488  0.08436529  0.74975360  1
  Mg  Mg81  1  0.33245724  0.08446027  0.24676220  1
  Mg  Mg82  1  0.83390029  0.16692932  0.74619591  1
  Mg  Mg83  1  0.83641184  0.66388052  0.75209084  1
  Mg  Mg84  1  -0.00201574  0.08324635  0.74811605  1
  Mg  Mg85  1  0.83411839  0.16382088  0.25260447  1
  Mg  Mg86  1  0.17152989  0.83445323  0.25268426  1
  Mg  Mg87  1  -0.00269376  0.91468031  0.74655994  1
  Mg  Mg88  1  0.49684594  0.66755776  0.25246690  1
  Mg  Mg89  1  0.49489032  0.83182159  0.25111731  1
  Mg  Mg90  1  0.32771992  0.41803078  0.75114222  1
  Mg  Mg91  1  0.33841863  0.91675619  0.75161948  1
  Mg  Mg92  1  0.50135777  0.33410725  0.24730855  1
  Mg  Mg93  1  0.83221720  0.66461811  0.25029012  1
  Mg  Mg94  1  0.32700300  0.58286671  0.75284331  1
  Mg  Mg95  1  0.33522274  0.41701047  0.24725931  1
  Fe  Fe96  1  0.85941919  0.08314010  0.60827869  1
  Fe  Fe97  1  0.81173481  0.07877189  0.39287017  1
  Fe  Fe98  1  0.97293306  0.32867742  0.89126175  1
  Fe  Fe99  1  0.35876690  0.65968530  0.10825065  1
  Fe  Fe100  1  0.52747002  0.08206086  0.60605763  1
  Fe  Fe101  1  0.85328179  0.58508349  0.10932005  1
  Fe  Fe102  1  0.36096681  0.83309291  0.10755080  1
  Fe  Fe103  1  0.47639689  0.57936316  0.39239309  1
  Fe  Fe104  1  0.80654653  0.58308543  0.39116233  1
  Fe  Fe105  1  0.35954107  0.34025036  0.10698916  1
  Fe  Fe106  1  0.13880084  0.91875340  0.39223208  1
  Fe  Fe107  1  0.48012414  0.92058069  0.89119458  1
  Fe  Fe108  1  0.14010584  0.58716304  0.89299939  1
  Fe  Fe109  1  0.30830402  0.66499066  0.39200658  1
  Fe  Fe110  1  0.47554014  0.92135479  0.39049750  1
  Fe  Fe111  1  0.02060030  0.33488869  0.10934588  1
  Fe  Fe112  1  0.18920337  0.91763377  0.10857242  1
  Si  Si113  1  0.14497170  0.07795603  0.88405621  1
  Si  Si114  1  0.14080997  0.91262778  0.88289124  1
  Si  Si115  1  0.18919226  0.41828397  0.61689493  1
  Si  Si116  1  0.30980193  0.16495435  0.88450169  1
  Si  Si117  1  0.63689744  0.66693530  0.38989681  1
  Si  Si118  1  0.35686322  0.83078003  0.61515969  1
  Si  Si119  1  0.18962479  0.42071536  0.11228040  1
  Si  Si120  1  0.47271345  0.09214113  0.38530508  1
  Si  Si121  1  0.35886170  0.17027058  0.61169205  1
  Si  Si122  1  0.48176390  0.09088541  0.88677327  1
  Si  Si123  1  0.02593235  0.83212559  0.61352592  1
  Si  Si124  1  0.52453718  0.90944603  0.61177204  1
  Si  Si125  1  0.52071079  0.41845309  0.61341657  1
  Si  Si126  1  0.47221116  0.58212062  0.88459335  1
  Si  Si127  1  0.30708657  0.33067007  0.88543262  1
  Si  Si128  1  0.18655296  0.08730736  0.11157451  1
  Si  Si129  1  0.14436017  0.41495584  0.89237274  1
  Si  Si130  1  0.86061768  0.58260091  0.61770551  1
  Si  Si131  1  0.52372984  0.08534468  0.11424983  1
  Si  Si132  1  0.18673642  0.58154533  0.11453640  1
  Si  Si133  1  0.69122433  0.66101695  0.61511357  1
  Si  Si134  1  0.68916580  0.34085967  0.61383336  1
  Si  Si135  1  0.30672841  0.17341048  0.38189052  1
  Si  Si136  1  0.80336066  0.08199360  0.88244231  1
  Si  Si137  1  0.63930311  0.33911020  0.88389769  1
  Si  Si138  1  0.31118218  0.67180957  0.88756593  1
  Si  Si139  1  0.53359417  0.58122208  0.11054037  1
  Si  Si140  1  0.35472197  0.66569395  0.61577061  1
  Si  Si141  1  0.80406699  0.91712641  0.88161420  1
  Si  Si142  1  0.64003760  0.83492832  0.38710188  1
  Si  Si143  1  0.13668674  0.58350266  0.38809587  1
  Si  Si144  1  0.19020372  0.58357606  0.61672530  1
  Si  Si145  1  0.19266489  0.91728933  0.61490094  1
  Si  Si146  1  0.48255601  0.41191600  0.38670796  1
  Si  Si147  1  0.64416347  0.82667859  0.88750505  1
  Si  Si148  1  0.02559796  0.66785954  0.61589194  1
  Si  Si149  1  0.85885460  0.91328952  0.11643922  1
  Si  Si150  1  0.03225519  0.16749857  0.61324475  1
  Si  Si151  1  0.97339677  0.83051036  0.38756797  1
  Si  Si152  1  0.64561304  0.32887240  0.38461793  1
  Si  Si153  1  0.63965482  0.66237851  0.88510043  1
  Si  Si154  1  0.85993312  0.41791927  0.61703045  1
  Si  Si155  1  0.69467493  0.16494659  0.11385825  1
  Si  Si156  1  0.80581404  0.58360602  0.88594166  1
  Si  Si157  1  0.97972816  0.33427638  0.38614127  1
  Si  Si158  1  0.69119960  0.82538192  0.61426277  1
  Si  Si159  1  0.53729960  0.41495198  0.11003407  1
  Si  Si160  1  0.02172315  0.82941026  0.11284024  1
  Si  Si161  1  0.85489893  0.91050066  0.61035891  1
  Si  Si162  1  0.81076895  0.41500422  0.38825603  1
  Si  Si163  1  0.69407351  0.83772461  0.11811460  1
  Si  Si164  1  0.85426188  0.42062107  0.11053368  1
  Si  Si165  1  0.63827358  0.16772423  0.38534582  1
  Si  Si166  1  0.35358641  0.33603786  0.61421920  1
  Si  Si167  1  0.64523735  0.17504720  0.88252556  1
  Si  Si168  1  0.30790840  0.83634505  0.88509254  1
  Si  Si169  1  0.30947691  0.33771169  0.38372655  1
  Si  Si170  1  0.02518194  0.66460034  0.11458409  1
  Si  Si171  1  0.69237220  0.67345218  0.11176091  1
  Si  Si172  1  0.97862367  0.16996644  0.38918068  1
  Si  Si173  1  0.97466331  0.66760357  0.38765815  1
  Si  Si174  1  0.69690056  0.32703348  0.11420622  1
  Si  Si175  1  0.80360921  0.41972951  0.88723101  1
  Si  Si176  1  0.97694204  0.15689914  0.88793300  1
  Si  Si177  1  0.47093357  0.41562465  0.88411014  1
  Si  Si178  1  0.30696872  0.83569830  0.39508255  1
  Si  Si179  1  0.35565760  0.16655193  0.10968762  1
  Si  Si180  1  0.85888718  0.07806147  0.11532178  1
  Si  Si181  1  0.19700488  0.08388940  0.61497795  1
  Si  Si182  1  0.01954978  0.16532771  0.11394115  1
  Si  Si183  1  0.14521860  0.08867146  0.38727267  1
  Si  Si184  1  0.52134867  0.58370496  0.61471930  1
  Si  Si185  1  0.53156392  0.92039122  0.11218533  1
  Si  Si186  1  0.97085179  0.83806589  0.88450712  1
  Si  Si187  1  0.69504645  0.17493703  0.60725420  1
  Si  Si188  1  0.14276506  0.41812981  0.38615956  1
  Si  Si189  1  0.02528873  0.33388079  0.61598960  1
  Si  Si190  1  0.96727372  0.67236740  0.88995741  1
  Si  Si191  1  0.81081077  0.90894883  0.38912122  1
  O  O192  1  0.27079127  0.11723753  0.08333644  1
  O  O193  1  0.27628480  0.11823897  0.58519178  1
  O  O194  1  0.26495724  0.59893802  0.07823581  1
  O  O195  1  0.26974885  0.61898534  0.58569949  1
  O  O196  1  0.60446164  0.12322729  0.08629156  1
  O  O197  1  0.61528625  0.12694600  0.57245382  1
  O  O198  1  0.60899826  0.62456615  0.08094946  1
  O  O199  1  0.60371485  0.61586438  0.58721540  1
  O  O200  1  0.94182254  0.10730080  0.08604719  1
  O  O201  1  0.95675437  0.11721146  0.57811511  1
  O  O202  1  0.95274106  0.61077391  0.07820592  1
  O  O203  1  0.93594736  0.62562743  0.58795480  1
  O  O204  1  0.12101829  0.36037796  0.08133045  1
  O  O205  1  0.10168157  0.37506708  0.58545906  1
  O  O206  1  0.09347470  0.85970494  0.07458489  1
  O  O207  1  0.10495448  0.87324988  0.58673268  1
  O  O208  1  0.45364817  0.37402226  0.07234383  1
  O  O209  1  0.43473731  0.37089655  0.58531727  1
  O  O210  1  0.45585901  0.87231637  0.07404482  1
  O  O211  1  0.43845745  0.85983211  0.58570429  1
  O  O212  1  0.78170368  0.35614314  0.08917090  1
  O  O213  1  0.76790524  0.38045994  0.58575406  1
  O  O214  1  0.77584294  0.86517184  0.08502083  1
  O  O215  1  0.77235422  0.85790300  0.58485909  1
  O  O216  1  0.27396826  0.40772459  0.08000293  1
  O  O217  1  0.26863551  0.38318687  0.58481325  1
  O  O218  1  0.27374768  0.89105927  0.06432686  1
  O  O219  1  0.27184057  0.87930887  0.58696228  1
  O  O220  1  0.61582655  0.37581087  0.08017427  1
  O  O221  1  0.60136187  0.38645134  0.58364953  1
  O  O222  1  0.61924874  0.89407688  0.08689192  1
  O  O223  1  0.60374756  0.86811033  0.58485763  1
  O  O224  1  0.93378140  0.39843361  0.07527849  1
  O  O225  1  0.93503033  0.37435220  0.58686849  1
  O  O226  1  0.93575349  0.87827617  0.08420125  1
  O  O227  1  0.93738389  0.87334538  0.58413072  1
  O  O228  1  0.10651322  0.14287117  0.08609984  1
  O  O229  1  0.11781929  0.13680071  0.58668269  1
  O  O230  1  0.11309126  0.64214702  0.08896748  1
  O  O231  1  0.10170453  0.62588601  0.58589555  1
  O  O232  1  0.43654338  0.12870822  0.08104997  1
  O  O233  1  0.43412324  0.14389417  0.57575753  1
  O  O234  1  0.44587053  0.61337793  0.07210158  1
  O  O235  1  0.43658253  0.63164648  0.58795893  1
  O  O236  1  0.77194833  0.12336982  0.08408907  1
  O  O237  1  0.77855606  0.15315694  0.57775004  1
  O  O238  1  0.76861773  0.65192912  0.07300167  1
  O  O239  1  0.76945488  0.62189189  0.58673108  1
  O  O240  1  0.06707651  0.12629548  0.41754643  1
  O  O241  1  0.06319165  0.10702370  0.91373427  1
  O  O242  1  0.05015134  0.60896654  0.41494409  1
  O  O243  1  0.04672503  0.62740785  0.92681974  1
  O  O244  1  0.38960703  0.12620452  0.41308578  1
  O  O245  1  0.39804707  0.12369076  0.91440616  1
  O  O246  1  0.38587004  0.59890302  0.43337847  1
  O  O247  1  0.39562581  0.62054058  0.91355758  1
  O  O248  1  0.70963205  0.11102802  0.41791167  1
  O  O249  1  0.73023597  0.12788388  0.91265467  1
  O  O250  1  0.71619493  0.61861627  0.42772535  1
  O  O251  1  0.72020565  0.61049189  0.91281714  1
  O  O252  1  0.23136969  0.37398177  0.41584582  1
  O  O253  1  0.22949330  0.36205947  0.91682092  1
  O  O254  1  0.22406526  0.85600364  0.42891153  1
  O  O255  1  0.21758030  0.85692774  0.90931076  1
  O  O256  1  0.56046432  0.35424085  0.41303123  1
  O  O257  1  0.55523596  0.36750260  0.91255464  1
  O  O258  1  0.56870954  0.86374390  0.42771493  1
  O  O259  1  0.57343075  0.86143965  0.92482278  1
  O  O260  1  0.89614559  0.36399221  0.41402379  1
  O  O261  1  0.87599975  0.36571098  0.92116190  1
  O  O262  1  0.88295364  0.84606010  0.41282456  1
  O  O263  1  0.89731959  0.88338554  0.91358611  1
  O  O264  1  0.06534842  0.38127972  0.41823310  1
  O  O265  1  0.06981184  0.38121024  0.92712633  1
  O  O266  1  0.04068931  0.88844901  0.42413235  1
  O  O267  1  0.05805685  0.88344434  0.91168023  1
  O  O268  1  0.39695085  0.38046446  0.41367961  1
  O  O269  1  0.39326926  0.37744320  0.91307324  1
  O  O270  1  0.38123565  0.89304430  0.42588533  1
  O  O271  1  0.37727021  0.89441836  0.91689632  1
  O  O272  1  0.72944490  0.37664664  0.41589170  1
  O  O273  1  0.71442924  0.39529289  0.91322722  1
  O  O274  1  0.72671179  0.88121262  0.41706988  1
  O  O275  1  0.73513080  0.86897069  0.91260700  1
  O  O276  1  0.22598549  0.14358046  0.41251119  1
  O  O277  1  0.23035015  0.12605688  0.91197887  1
  O  O278  1  0.21072832  0.63357820  0.42618532  1
  O  O279  1  0.23547605  0.64744160  0.92342366  1
  O  O280  1  0.54849093  0.15047374  0.41140882  1
  O  O281  1  0.56174730  0.14707975  0.91159731  1
  O  O282  1  0.55755830  0.64861314  0.42664707  1
  O  O283  1  0.55945915  0.62623392  0.91332485  1
  O  O284  1  0.90497284  0.13983754  0.42580545  1
  O  O285  1  0.89764808  0.11305591  0.91298832  1
  O  O286  1  0.89757465  0.64470477  0.42434616  1
  O  O287  1  0.88095350  0.64008839  0.91494161  1
  O  O288  1  0.15822778  0.01199623  0.07622000  1
  O  O289  1  0.18098693  0.00077443  0.58719925  1
  O  O290  1  0.14892368  0.50110366  0.09048193  1
  O  O291  1  0.17907634  0.50077703  0.58753176  1
  O  O292  1  0.51764554  0.00415244  0.08289018  1
  O  O293  1  0.50898877  -0.01335873  0.57566103  1
  O  O294  1  0.54045847  0.49786724  0.08300159  1
  O  O295  1  0.50324918  0.50131995  0.58624343  1
  O  O296  1  0.84225457  -0.00447515  0.08586343  1
  O  O297  1  0.83543076  -0.01187969  0.57681636  1
  O  O298  1  0.81283113  0.49458212  0.07705999  1
  O  O299  1  0.85682156  0.50062042  0.58627678  1
  O  O300  1  -0.01205674  0.24102236  0.08068709  1
  O  O301  1  0.02107955  0.25160324  0.58555000  1
  O  O302  1  -0.00164156  0.74656668  0.08694187  1
  O  O303  1  0.02002411  0.74979301  0.58352064  1
  O  O304  1  0.33980017  0.24441894  0.07430679  1
  O  O305  1  0.33407261  0.25406266  0.58596963  1
  O  O306  1  0.34268720  0.74587380  0.06338274  1
  O  O307  1  0.33794208  0.74799493  0.58761378  1
  O  O308  1  0.68275059  0.24569793  0.08003200  1
  O  O309  1  0.67388030  0.26021421  0.58284562  1
  O  O310  1  0.66629027  0.75761526  0.08865827  1
  O  O311  1  0.67954094  0.74240036  0.58439364  1
  O  O312  1  0.16709810  0.01328108  0.42477325  1
  O  O313  1  0.16379474  -0.00517029  0.91076573  1
  O  O314  1  0.15403295  0.49945265  0.41695608  1
  O  O315  1  0.17025564  0.49338862  0.92367368  1
  O  O316  1  0.49638806  0.01699255  0.42233328  1
  O  O317  1  0.50727290  0.01527413  0.92259992  1
  O  O318  1  0.51176397  0.48555881  0.42471385  1
  O  O319  1  0.48414271  0.49851002  0.91254118  1
  O  O320  1  0.84110701  -0.01549405  0.42459397  1
  O  O321  1  0.79973814  -0.00062884  0.91134225  1
  O  O322  1  0.82991165  0.48980188  0.42850386  1
  O  O323  1  0.82521896  0.50267585  0.91588011  1
  O  O324  1  0.32175652  0.25526481  0.41285782  1
  O  O325  1  0.32239287  0.24750781  0.91280505  1
  O  O326  1  0.33773136  0.75671376  0.42549565  1
  O  O327  1  0.33893699  0.75509903  0.90972545  1
  O  O328  1  0.66692485  0.24856557  0.41602192  1
  O  O329  1  0.66290736  0.25744219  0.91225588  1
  O  O330  1  0.66516214  0.75142520  0.40954839  1
  O  O331  1  0.66069423  0.74262608  0.91543083  1
  O  O332  1  0.99912708  0.25330033  0.41723157  1
  O  O333  1  0.98957108  0.23281013  0.92529593  1
  O  O334  1  1.00551912  0.74917226  0.41410309  1
  O  O335  1  0.97453269  0.75769424  0.91704297  1
  O  O336  1  0.20766537  0.08597497  0.19282340  1
  O  O337  1  0.21358612  0.08328255  0.69563336  1
  O  O338  1  0.20807100  0.58214430  0.19545286  1
  O  O339  1  0.21154833  0.58729313  0.69582079  1
  O  O340  1  0.53346667  0.08465446  0.19323133  1
  O  O341  1  0.54419717  0.08449978  0.69825729  1
  O  O342  1  0.54734544  0.58197121  0.19109373  1
  O  O343  1  0.54071218  0.58303927  0.69540780  1
  O  O344  1  0.87811752  0.07975679  0.19509069  1
  O  O345  1  0.87903315  0.08164898  0.70024265  1
  O  O346  1  0.88020364  0.58428194  0.20067457  1
  O  O347  1  0.87317998  0.58279587  0.69711601  1
  O  O348  1  0.04434508  0.33360797  0.20104119  1
  O  O349  1  0.04578260  0.33229677  0.69576347  1
  O  O350  1  0.04040862  0.83233760  0.19339780  1
  O  O351  1  0.04327363  0.83271647  0.69424112  1
  O  O352  1  0.37991857  0.33489935  0.19879028  1
  O  O353  1  0.37459233  0.33576710  0.69475861  1
  O  O354  1  0.37534592  0.83481840  0.19806735  1
  O  O355  1  0.37457755  0.83155309  0.69561048  1
  O  O356  1  0.70203923  0.32839262  0.19305692  1
  O  O357  1  0.70311200  0.33830448  0.69343312  1
  O  O358  1  0.71636008  0.83915489  0.19711785  1
  O  O359  1  0.71051113  0.82616654  0.69409734  1
  O  O360  1  0.21002096  0.41743794  0.19412086  1
  O  O361  1  0.21081168  0.41264645  0.69608202  1
  O  O362  1  0.21186640  0.91781067  0.20040345  1
  O  O363  1  0.21100340  0.91700882  0.69548067  1
  O  O364  1  0.54687059  0.41394441  0.19083468  1
  O  O365  1  0.53935463  0.41790550  0.69400110  1
  O  O366  1  0.54467430  0.91905100  0.19221881  1
  O  O367  1  0.54173236  0.91335043  0.69197579  1
  O  O368  1  0.87976732  0.42461285  0.19078758  1
  O  O369  1  0.87644084  0.41896060  0.69618094  1
  O  O370  1  0.87917914  0.91441622  0.19648350  1
  O  O371  1  0.87532582  0.91261679  0.69169364  1
  O  O372  1  0.04170509  0.16439243  0.19505342  1
  O  O373  1  0.04732381  0.16572874  0.69433769  1
  O  O374  1  0.04221308  0.66523944  0.19574038  1
  O  O375  1  0.04457318  0.67216559  0.69498204  1
  O  O376  1  0.37451372  0.16816393  0.19074478  1
  O  O377  1  0.37683141  0.16907594  0.69298354  1
  O  O378  1  0.37915214  0.66364860  0.19799789  1
  O  O379  1  0.37440554  0.66519349  0.69636049  1
  O  O380  1  0.71564191  0.17059134  0.19255366  1
  O  O381  1  0.70900772  0.17008381  0.68897870  1
  O  O382  1  0.71401548  0.66250683  0.19082109  1
  O  O383  1  0.70851297  0.66387797  0.69566435  1
  O  O384  1  0.12482747  0.08565743  0.30630683  1
  O  O385  1  0.12588070  0.08113053  0.80329856  1
  O  O386  1  0.12255835  0.58270749  0.30743924  1
  O  O387  1  0.12081258  0.58693763  0.80335289  1
  O  O388  1  0.45321197  0.08786369  0.30451151  1
  O  O389  1  0.45869501  0.08813245  0.80588000  1
  O  O390  1  0.45614399  0.57866515  0.30036984  1
  O  O391  1  0.45549851  0.58238290  0.80392708  1
  O  O392  1  0.80340764  0.07994594  0.30361006  1
  O  O393  1  0.78630678  0.08396702  0.80236590  1
  O  O394  1  0.78690710  0.58252088  0.30019907  1
  O  O395  1  0.78792504  0.58334094  0.80525901  1
  O  O396  1  0.28861022  0.33606259  0.30374155  1
  O  O397  1  0.29081738  0.33171322  0.80475324  1
  O  O398  1  0.28578249  0.83908266  0.31444022  1
  O  O399  1  0.28951868  0.83581004  0.80355347  1
  O  O400  1  0.62623090  0.33221134  0.30428996  1
  O  O401  1  0.62049491  0.33655190  0.80336081  1
  O  O402  1  0.61635686  0.84179501  0.30778292  1
  O  O403  1  0.62169173  0.82632261  0.80734760  1
  O  O404  1  0.96757169  0.33390874  0.30727346  1
  O  O405  1  0.95852594  0.33081950  0.80072468  1
  O  O406  1  0.95893331  0.83292838  0.30649604  1
  O  O407  1  0.95458208  0.83476838  0.80387561  1
  O  O408  1  0.12636823  0.41746747  0.30637705  1
  O  O409  1  0.12348645  0.41161705  0.81140785  1
  O  O410  1  0.12026168  0.91785146  0.30071962  1
  O  O411  1  0.12184193  0.91574302  0.80211803  1
  O  O412  1  0.46199553  0.41482186  0.30592718  1
  O  O413  1  0.45463532  0.41619389  0.80347960  1
  O  O414  1  0.45251296  0.91952059  0.29937893  1
  O  O415  1  0.45855657  0.91842998  0.79894902  1
  O  O416  1  0.78878348  0.42162384  0.30878903  1
  O  O417  1  0.78486657  0.42159663  0.80701983  1
  O  O418  1  0.79238360  0.91371926  0.30834905  1
  O  O419  1  0.79204249  0.91658005  0.80200227  1
  O  O420  1  0.28956155  0.17112013  0.30156960  1
  O  O421  1  0.29161930  0.16569487  0.80370326  1
  O  O422  1  0.28552280  0.66217619  0.30193413  1
  O  O423  1  0.29131659  0.66799567  0.80627113  1
  O  O424  1  0.61775312  0.17309401  0.30569205  1
  O  O425  1  0.62633303  0.17245009  0.80230088  1
  O  O426  1  0.61814452  0.65520104  0.31015032  1
  O  O427  1  0.62092291  0.66379173  0.80429865  1
  O  O428  1  0.96108811  0.16730184  0.30846962  1
  O  O429  1  0.96049006  0.16231222  0.80718500  1
  O  O430  1  0.95831912  0.66694378  0.30704300  1
  O  O431  1  0.95163424  0.67308850  0.80970979  1
  F  F432  1  0.04371004  0.00256171  0.20139878  1
  F  F433  1  0.04690331  -0.00125818  0.70041648  1
  F  F434  1  0.04710416  0.50058010  0.20549486  1
  F  F435  1  0.04109753  0.49233130  0.70150921  1
  F  F436  1  0.37606591  0.00408763  0.19955984  1
  F  F437  1  0.37824849  0.00233505  0.70069976  1
  F  F438  1  0.37991553  0.49729732  0.20025020  1
  F  F439  1  0.37631672  0.50014012  0.70069763  1
  F  F440  1  0.71779335  -0.01010401  0.19964732  1
  F  F441  1  0.71313261  0.00272911  0.69668818  1
  F  F442  1  0.71156255  0.49619562  0.20022933  1
  F  F443  1  0.71000943  0.50121379  0.70171570  1
  F  F444  1  0.21107941  0.25096838  0.20039547  1
  F  F445  1  0.21244138  0.25006035  0.70235636  1
  F  F446  1  0.20429880  0.75255280  0.20084821  1
  F  F447  1  0.21166714  0.75001614  0.70305210  1
  F  F448  1  0.54494813  0.24912342  0.19998237  1
  F  F449  1  0.54419715  0.25343418  0.70013417  1
  F  F450  1  0.53334950  0.74952929  0.19958011  1
  F  F451  1  0.54396406  0.74752248  0.70178845  1
  F  F452  1  0.88471650  0.23728467  0.20072735  1
  F  F453  1  0.88380476  0.24246531  0.69783363  1
  F  F454  1  0.88022274  0.75079776  0.20229199  1
  F  F455  1  0.87812681  0.74871032  0.70242526  1
  F  F456  1  0.28752301  0.00720551  0.29834724  1
  F  F457  1  0.28912346  0.00166941  0.79713125  1
  F  F458  1  0.28907157  0.49712001  0.29740659  1
  F  F459  1  0.29752965  0.49904574  0.80259228  1
  F  F460  1  0.61468612  -0.00687994  0.30130745  1
  F  F461  1  0.62453547  0.00338135  0.79773599  1
  F  F462  1  0.62142776  0.49610696  0.29466264  1
  F  F463  1  0.61737564  0.50013046  0.79677685  1
  F  F464  1  0.95758378  -0.00164554  0.29806361  1
  F  F465  1  0.95568709  -0.00400543  0.79655929  1
  F  F466  1  0.95694410  0.49736665  0.30083513  1
  F  F467  1  0.95132301  0.49638759  0.80428812  1
  F  F468  1  0.12522792  0.24865252  0.29818790  1
  F  F469  1  0.12361598  0.24700714  0.79808983  1
  F  F470  1  0.11966711  0.74951515  0.29798122  1
  F  F471  1  0.12083118  0.75299819  0.79859393  1
  F  F472  1  0.45358549  0.24989473  0.29615130  1
  F  F473  1  0.45450705  0.25124301  0.79575486  1
  F  F474  1  0.46212014  0.74980142  0.30475795  1
  F  F475  1  0.45478142  0.74896086  0.79728101  1
  F  F476  1  0.78528303  0.23999904  0.30355591  1
  F  F477  1  0.78652308  0.24636873  0.79553343  1
  F  F478  1  0.80091019  0.74769802  0.30213614  1
  F  F479  1  0.78688467  0.74855323  0.79792210  1
