# generated using pymatgen
data_K24Na3Li5Mg64Fe17Si79(O5F)48
_symmetry_space_group_name_H-M   'P 1'
_cell_length_a   16.10788222
_cell_length_b   18.59876412
_cell_length_c   20.56058294
_cell_angle_alpha   90.00353960
_cell_angle_beta   100.00183363
_cell_angle_gamma   89.98887605
_symmetry_Int_Tables_number   1
_chemical_formula_structural   K24Na3Li5Mg64Fe17Si79(O5F)48
_chemical_formula_sum   'K24 Na3 Li5 Mg64 Fe17 Si79 O240 F48'
_cell_volume   6066.06354228
_cell_formula_units_Z   1
loop_
 _symmetry_equiv_pos_site_id
 _symmetry_equiv_pos_as_xyz
  1  'x, y, z'
loop_
 _atom_site_type_symbol
 _atom_site_label
 _atom_site_symmetry_multiplicity
 _atom_site_fract_x
 _atom_site_fract_y
 _atom_site_fract_z
 _atom_site_occupancy
  K  K0  1  0.00784754  -0.00711908  -0.00857436  1
  K  K1  1  0.00270119  -0.00675124  0.51192525  1
  K  K2  1  0.00436887  0.50356514  -0.00536385  1
  K  K3  1  0.00000585  0.50691414  0.50596585  1
  K  K4  1  0.33081814  -0.00459223  -0.01840048  1
  K  K5  1  0.33607204  0.01511445  0.52171660  1
  K  K6  1  0.33548053  0.49919671  -0.00846471  1
  K  K7  1  0.33656825  0.50638965  0.51609267  1
  K  K8  1  0.65212254  -0.00083049  -0.00792571  1
  K  K9  1  0.66801189  -0.00709272  0.50479041  1
  K  K10  1  0.65313738  0.50035636  -0.00455080  1
  K  K11  1  0.66533612  0.49257369  0.51071506  1
  K  K12  1  0.18203175  0.24507960  -0.01165108  1
  K  K13  1  0.18319230  0.24682944  0.51620750  1
  K  K14  1  0.16520294  0.75375849  -0.01335070  1
  K  K15  1  0.16279760  0.74411194  0.51469768  1
  K  K16  1  0.49499636  0.25081722  -0.01214888  1
  K  K17  1  0.50260965  0.24497996  0.51423838  1
  K  K18  1  0.49104553  0.75428643  -0.01097991  1
  K  K19  1  0.48707162  0.74634033  0.50332895  1
  K  K20  1  0.82329804  0.24534077  -0.01102985  1
  K  K21  1  0.82315413  0.23906879  0.51077232  1
  K  K22  1  0.83498523  0.75820333  -0.00083712  1
  K  K23  1  0.84421478  0.75851369  0.50525654  1
  Na  Na24  1  0.49124074  0.50335333  0.74154239  1
  Na  Na25  1  0.83016534  0.16932714  0.75025442  1
  Na  Na26  1  0.33769084  0.08209111  0.74613075  1
  Li  Li27  1  0.48950077  0.00569032  0.74429166  1
  Li  Li28  1  0.33575654  0.24934824  0.24918956  1
  Li  Li29  1  0.17529305  0.66503243  0.75046647  1
  Li  Li30  1  0.32906477  0.58615366  0.74490207  1
  Li  Li31  1  0.49659647  0.15965805  0.74274028  1
  Mg  Mg32  1  0.16885157  0.50279613  0.75276644  1
  Mg  Mg33  1  0.83335929  0.00083302  0.25479261  1
  Mg  Mg34  1  0.33427923  0.75061075  0.24361171  1
  Mg  Mg35  1  0.33660787  0.25134920  0.75518822  1
  Mg  Mg36  1  0.16869697  0.49853537  0.24992136  1
  Mg  Mg37  1  -0.00059480  0.24943810  0.75480256  1
  Mg  Mg38  1  0.50083283  -0.00083019  0.24659703  1
  Mg  Mg39  1  0.00247170  0.74976001  0.25092460  1
  Mg  Mg40  1  0.66808733  0.75075940  0.24827994  1
  Mg  Mg41  1  0.66534803  0.75124900  0.74818532  1
  Mg  Mg42  1  0.49977991  0.49996615  0.24349641  1
  Mg  Mg43  1  0.83405832  0.00131495  0.75112139  1
  Mg  Mg44  1  0.66575746  0.25039420  0.25144160  1
  Mg  Mg45  1  0.00495764  0.74927986  0.75021777  1
  Mg  Mg46  1  0.16760446  0.00106892  0.24934290  1
  Mg  Mg47  1  0.66344282  0.24829306  0.74680632  1
  Mg  Mg48  1  0.00118521  0.24963240  0.25511239  1
  Mg  Mg49  1  0.16810395  -0.00078152  0.75150280  1
  Mg  Mg50  1  0.32772745  0.74565096  0.74824388  1
  Mg  Mg51  1  0.83049911  0.49909450  0.74854568  1
  Mg  Mg52  1  0.83505901  0.50032312  0.25404433  1
  Mg  Mg53  1  0.17103443  0.33108786  0.25188877  1
  Mg  Mg54  1  0.16858509  0.33377828  0.75491081  1
  Mg  Mg55  1  0.66574520  0.91608752  0.24914425  1
  Mg  Mg56  1  0.83433468  0.83458518  0.74943968  1
  Mg  Mg57  1  0.66221066  0.41526229  0.74669722  1
  Mg  Mg58  1  0.00327908  0.08357036  0.75598941  1
  Mg  Mg59  1  0.83772299  0.66611236  0.25369723  1
  Mg  Mg60  1  0.49441407  0.83708534  0.74519270  1
  Mg  Mg61  1  0.83326754  0.16542592  0.25592595  1
  Mg  Mg62  1  0.33409783  0.41294653  0.24772330  1
  Mg  Mg63  1  0.33259401  0.42016104  0.75174329  1
  Mg  Mg64  1  0.49723625  0.16757037  0.24993290  1
  Mg  Mg65  1  0.83372008  0.66613795  0.74913233  1
  Mg  Mg66  1  0.16706759  0.83194864  0.75056775  1
  Mg  Mg67  1  0.00273763  0.91516146  0.25059682  1
  Mg  Mg68  1  0.66255391  0.58411838  0.74773970  1
  Mg  Mg69  1  0.66245233  0.91902427  0.74725175  1
  Mg  Mg70  1  0.49783913  0.83495010  0.24402408  1
  Mg  Mg71  1  -0.00117402  0.41569897  0.75247672  1
  Mg  Mg72  1  0.00197340  0.58393941  0.74965260  1
  Mg  Mg73  1  0.66606134  0.58460579  0.24742640  1
  Mg  Mg74  1  0.66070877  0.08273825  0.74974048  1
  Mg  Mg75  1  0.33266500  0.58410768  0.24431801  1
  Mg  Mg76  1  0.49665539  0.33265704  0.74741356  1
  Mg  Mg77  1  0.00036294  0.08491643  0.25555749  1
  Mg  Mg78  1  0.83650733  0.83502592  0.25180407  1
  Mg  Mg79  1  0.16911387  0.16772252  0.25195440  1
  Mg  Mg80  1  0.49709991  0.33415449  0.24604161  1
  Mg  Mg81  1  0.33333778  0.08592879  0.25017995  1
  Mg  Mg82  1  0.33126505  0.91561842  0.74818970  1
  Mg  Mg83  1  0.00326251  0.91478980  0.75073207  1
  Mg  Mg84  1  0.83363331  0.33426619  0.25188402  1
  Mg  Mg85  1  0.00289589  0.58475838  0.25291238  1
  Mg  Mg86  1  0.66377507  0.41624801  0.24679520  1
  Mg  Mg87  1  0.82872956  0.33285283  0.74943811  1
  Mg  Mg88  1  0.00310141  0.41556952  0.25351362  1
  Mg  Mg89  1  0.16669496  0.83498687  0.24729373  1
  Mg  Mg90  1  0.16711971  0.66486752  0.24714182  1
  Mg  Mg91  1  0.49643888  0.66657516  0.24264683  1
  Mg  Mg92  1  0.17132795  0.16421228  0.75436873  1
  Mg  Mg93  1  0.33323580  0.91605106  0.24506545  1
  Mg  Mg94  1  0.66721497  0.08462946  0.25242871  1
  Mg  Mg95  1  0.49431124  0.66811818  0.74625541  1
  Fe  Fe96  1  0.14353453  0.08831826  0.89582374  1
  Fe  Fe97  1  0.35295359  0.83670520  0.10517766  1
  Fe  Fe98  1  0.52690276  0.07278589  0.60647946  1
  Fe  Fe99  1  0.31342255  0.82648721  0.89003016  1
  Fe  Fe100  1  0.19494720  0.92245743  0.60695497  1
  Fe  Fe101  1  0.35043049  0.66616112  0.10423511  1
  Fe  Fe102  1  0.36325546  0.17535766  0.60902116  1
  Fe  Fe103  1  0.97874160  0.66479946  0.39257845  1
  Fe  Fe104  1  0.03178697  0.83173538  0.10955409  1
  Fe  Fe105  1  0.53029241  0.91590252  0.10654894  1
  Fe  Fe106  1  0.80831982  0.08439144  0.39496576  1
  Fe  Fe107  1  0.02668089  0.83111544  0.60874240  1
  Fe  Fe108  1  0.31276159  0.33897547  0.89175728  1
  Fe  Fe109  1  0.68637404  0.32827634  0.60775738  1
  Fe  Fe110  1  0.13973408  0.91352168  0.89399298  1
  Fe  Fe111  1  0.35003106  0.66364330  0.60750468  1
  Fe  Fe112  1  0.52363328  0.41692770  0.10574079  1
  Si  Si113  1  0.01843729  0.66174010  0.61306426  1
  Si  Si114  1  0.86389554  0.08312733  0.61987928  1
  Si  Si115  1  0.18227579  0.57736487  0.61410188  1
  Si  Si116  1  0.97263233  0.17111086  0.89209171  1
  Si  Si117  1  0.19584846  0.92564611  0.11232436  1
  Si  Si118  1  0.14399864  0.92102967  0.38557959  1
  Si  Si119  1  0.80408080  0.58326011  0.88441501  1
  Si  Si120  1  0.69945140  0.33356479  0.11342322  1
  Si  Si121  1  0.80280624  0.58162927  0.38863333  1
  Si  Si122  1  0.30675326  0.66862615  0.38192965  1
  Si  Si123  1  0.85731225  0.08370113  0.11853596  1
  Si  Si124  1  0.63588935  0.66401852  0.38268266  1
  Si  Si125  1  0.70063713  0.66679840  0.11549089  1
  Si  Si126  1  0.96601891  0.82839427  0.88771090  1
  Si  Si127  1  0.31176231  0.65672908  0.88627874  1
  Si  Si128  1  0.98012066  0.17114801  0.39238616  1
  Si  Si129  1  0.80695585  0.08148791  0.88628095  1
  Si  Si130  1  0.52489040  0.42122160  0.60969276  1
  Si  Si131  1  0.02531355  0.33062748  0.11828597  1
  Si  Si132  1  0.47232897  0.08108686  0.38448583  1
  Si  Si133  1  0.13871229  0.58234085  0.88571663  1
  Si  Si134  1  0.18725408  0.08750646  0.11674429  1
  Si  Si135  1  0.48023595  0.58449400  0.88320983  1
  Si  Si136  1  0.18462242  0.41536407  0.61694671  1
  Si  Si137  1  0.14895050  0.41411888  0.38672173  1
  Si  Si138  1  0.31187801  0.33048102  0.38492568  1
  Si  Si139  1  0.97122217  0.66324704  0.88501073  1
  Si  Si140  1  0.31830786  0.16817240  0.89230256  1
  Si  Si141  1  0.86395926  0.41506094  0.11773902  1
  Si  Si142  1  0.48057956  0.41968459  0.88535655  1
  Si  Si143  1  0.52616219  0.90419757  0.60933887  1
  Si  Si144  1  0.53017942  0.59025242  0.60898824  1
  Si  Si145  1  0.80747551  0.41455133  0.38651552  1
  Si  Si146  1  0.47722183  0.91941809  0.88319897  1
  Si  Si147  1  0.97979532  0.83627141  0.38792558  1
  Si  Si148  1  0.35623230  0.34541967  0.61158527  1
  Si  Si149  1  0.69262003  0.16895009  0.11677911  1
  Si  Si150  1  0.30936119  0.16564191  0.38472430  1
  Si  Si151  1  0.35473858  0.16638576  0.11652426  1
  Si  Si152  1  0.70406989  0.83355397  0.11374471  1
  Si  Si153  1  0.69153890  0.15890968  0.61083444  1
  Si  Si154  1  0.64102072  0.83538051  0.88286858  1
  Si  Si155  1  0.18862484  0.41011952  0.11548663  1
  Si  Si156  1  0.86578711  0.92015176  0.11664879  1
  Si  Si157  1  0.85915090  0.41422531  0.61390364  1
  Si  Si158  1  0.48307850  0.08442291  0.88175921  1
  Si  Si159  1  0.47051691  0.58322516  0.38144665  1
  Si  Si160  1  0.14845636  0.57849515  0.38735947  1
  Si  Si161  1  0.52877666  0.59046921  0.10798463  1
  Si  Si162  1  0.86142971  0.57845946  0.11698999  1
  Si  Si163  1  0.80768448  0.91138528  0.38879326  1
  Si  Si164  1  0.64161842  0.67023111  0.88464999  1
  Si  Si165  1  0.35488382  0.33068291  0.11254715  1
  Si  Si166  1  0.97921927  0.33757430  0.38843939  1
  Si  Si167  1  0.18366166  0.09169414  0.61108892  1
  Si  Si168  1  0.96632988  0.33690672  0.88798121  1
  Si  Si169  1  0.52257031  0.08921461  0.11250875  1
  Si  Si170  1  0.18825925  0.57355913  0.11120792  1
  Si  Si171  1  0.02370899  0.33323185  0.61888355  1
  Si  Si172  1  0.02164621  0.17063212  0.61826485  1
  Si  Si173  1  0.47466475  0.91574409  0.38413032  1
  Si  Si174  1  0.02517026  0.66023950  0.11198190  1
  Si  Si175  1  0.69613935  0.83212399  0.61353650  1
  Si  Si176  1  0.85782298  0.92008399  0.61369506  1
  Si  Si177  1  0.35779896  0.83216400  0.60872689  1
  Si  Si178  1  0.80187193  0.41915963  0.88466608  1
  Si  Si179  1  0.80493308  0.91748726  0.88479184  1
  Si  Si180  1  0.85740677  0.57851945  0.61505243  1
  Si  Si181  1  0.02159770  0.16752435  0.11843605  1
  Si  Si182  1  0.63852331  0.33554548  0.38421578  1
  Si  Si183  1  0.63947852  0.82946997  0.38419109  1
  Si  Si184  1  0.64062087  0.33172048  0.88415029  1
  Si  Si185  1  0.30688394  0.83479565  0.38349365  1
  Si  Si186  1  0.14460968  0.08648085  0.38751814  1
  Si  Si187  1  0.13456788  0.41723642  0.89078815  1
  Si  Si188  1  0.64516202  0.16650808  0.88535949  1
  Si  Si189  1  0.47278571  0.41884577  0.38374506  1
  Si  Si190  1  0.63397319  0.16981941  0.38815307  1
  Si  Si191  1  0.69747014  0.66739289  0.61284225  1
  O  O192  1  0.27064471  0.11663558  0.08865890  1
  O  O193  1  0.25887789  0.12855021  0.57898273  1
  O  O194  1  0.26825272  0.59214016  0.07779326  1
  O  O195  1  0.25553205  0.60492118  0.57495633  1
  O  O196  1  0.60447311  0.12852608  0.08677073  1
  O  O197  1  0.62687934  0.09863635  0.57478230  1
  O  O198  1  0.61905894  0.61821114  0.08553139  1
  O  O199  1  0.61041129  0.62748790  0.57852135  1
  O  O200  1  0.93864571  0.11761035  0.08940192  1
  O  O201  1  0.94299811  0.11685538  0.58814925  1
  O  O202  1  0.94435188  0.60433089  0.08752939  1
  O  O203  1  0.93730886  0.60743624  0.58428293  1
  O  O204  1  0.10859370  0.35594180  0.08888544  1
  O  O205  1  0.10644296  0.35913624  0.58773903  1
  O  O206  1  0.12717420  0.86646637  0.07971999  1
  O  O207  1  0.10916213  0.86239954  0.56438294  1
  O  O208  1  0.43083157  0.35638954  0.07610092  1
  O  O209  1  0.42669019  0.39586380  0.58242259  1
  O  O210  1  0.45283911  0.84771517  0.07338457  1
  O  O211  1  0.45023040  0.84620830  0.58459835  1
  O  O212  1  0.78798992  0.35973730  0.08877323  1
  O  O213  1  0.78271410  0.36587431  0.57623167  1
  O  O214  1  0.79166241  0.86100196  0.08976606  1
  O  O215  1  0.76910384  0.87648113  0.58421990  1
  O  O216  1  0.26950619  0.38044437  0.08583400  1
  O  O217  1  0.26556587  0.38850990  0.58501394  1
  O  O218  1  0.28489040  0.92016747  0.08716932  1
  O  O219  1  0.29447331  0.89548778  0.57634446  1
  O  O220  1  0.62409054  0.38370010  0.07797294  1
  O  O221  1  0.58846337  0.37962524  0.56880658  1
  O  O222  1  0.63079503  0.88486978  0.07732885  1
  O  O223  1  0.60690770  0.86723450  0.57929866  1
  O  O224  1  0.94831400  0.38694646  0.08988884  1
  O  O225  1  0.94738801  0.38931576  0.58885517  1
  O  O226  1  0.94542315  0.90022086  0.08257326  1
  O  O227  1  0.92833269  0.88682637  0.57601654  1
  O  O228  1  0.10595486  0.14117995  0.09081852  1
  O  O229  1  0.10117678  0.14663349  0.58435157  1
  O  O230  1  0.10399246  0.62247541  0.08302683  1
  O  O231  1  0.09637058  0.62405469  0.58348943  1
  O  O232  1  0.43837996  0.14021783  0.08670333  1
  O  O233  1  0.43987545  0.13115336  0.56417766  1
  O  O234  1  0.45718572  0.64827715  0.07947432  1
  O  O235  1  0.44506231  0.62823446  0.57131957  1
  O  O236  1  0.77335206  0.13205840  0.08952390  1
  O  O237  1  0.78600189  0.13717690  0.59298619  1
  O  O238  1  0.78133504  0.63018342  0.08746932  1
  O  O239  1  0.77389180  0.62618746  0.58410648  1
  O  O240  1  0.06785079  0.12540054  0.41724276  1
  O  O241  1  0.06032589  0.14216968  0.93324187  1
  O  O242  1  0.07118866  0.60316546  0.42222471  1
  O  O243  1  0.06386611  0.62849601  0.91541147  1
  O  O244  1  0.39084637  0.11462197  0.41220705  1
  O  O245  1  0.40726955  0.12145808  0.91490990  1
  O  O246  1  0.39525430  0.62574094  0.41011910  1
  O  O247  1  0.39733212  0.60670767  0.91571710  1
  O  O248  1  0.71898941  0.13186458  0.42507173  1
  O  O249  1  0.73304198  0.12312781  0.91927400  1
  O  O250  1  0.71893307  0.61613174  0.41344496  1
  O  O251  1  0.73189239  0.62872566  0.91500320  1
  O  O252  1  0.23017367  0.36258921  0.41538159  1
  O  O253  1  0.21934549  0.37805866  0.92668682  1
  O  O254  1  0.22898118  0.87310300  0.41312454  1
  O  O255  1  0.23291420  0.86381113  0.93396280  1
  O  O256  1  0.56594559  0.38349169  0.41170989  1
  O  O257  1  0.56658259  0.37143735  0.91618971  1
  O  O258  1  0.56267240  0.87109512  0.41278141  1
  O  O259  1  0.56600204  0.87407202  0.91311370  1
  O  O260  1  0.89868013  0.37512936  0.41553809  1
  O  O261  1  0.89298161  0.38317610  0.91727464  1
  O  O262  1  0.89535400  0.86641289  0.41490758  1
  O  O263  1  0.88653866  0.86801946  0.91569373  1
  O  O264  1  0.06445967  0.38583412  0.41507787  1
  O  O265  1  0.05473893  0.37742994  0.91938735  1
  O  O266  1  0.05987762  0.89170923  0.41190742  1
  O  O267  1  0.05021740  0.86434359  0.92597445  1
  O  O268  1  0.39804271  0.37659083  0.41413038  1
  O  O269  1  0.40777995  0.39559154  0.92608621  1
  O  O270  1  0.39662901  0.87608148  0.41274463  1
  O  O271  1  0.40765638  0.88529735  0.92167866  1
  O  O272  1  0.73150591  0.37138107  0.41393470  1
  O  O273  1  0.72937779  0.37491747  0.91514126  1
  O  O274  1  0.73020799  0.86656467  0.41515024  1
  O  O275  1  0.72691460  0.88009517  0.91463297  1
  O  O276  1  0.22959622  0.13327560  0.41603930  1
  O  O277  1  0.24879635  0.12948991  0.92969854  1
  O  O278  1  0.23252808  0.62825138  0.41332679  1
  O  O279  1  0.23150594  0.61572488  0.91494021  1
  O  O280  1  0.55316736  0.13154280  0.41392287  1
  O  O281  1  0.57026764  0.12841195  0.91801733  1
  O  O282  1  0.55757649  0.62639346  0.41159719  1
  O  O283  1  0.56536913  0.63365395  0.91695797  1
  O  O284  1  0.90612241  0.13976570  0.42720477  1
  O  O285  1  0.89359011  0.12622056  0.91646996  1
  O  O286  1  0.88434765  0.62510552  0.42425323  1
  O  O287  1  0.89853331  0.61549130  0.91444375  1
  O  O288  1  0.15708884  0.00766358  0.09088061  1
  O  O289  1  0.16045221  0.01516871  0.57388656  1
  O  O290  1  0.15826242  0.49004891  0.08786351  1
  O  O291  1  0.15635950  0.49419996  0.58491457  1
  O  O292  1  0.50827575  0.01257682  0.07662588  1
  O  O293  1  0.50516240  -0.02128468  0.57020776  1
  O  O294  1  0.50879699  0.51179499  0.07443579  1
  O  O295  1  0.52857052  0.50585086  0.58415860  1
  O  O296  1  0.83548821  0.00241791  0.09067758  1
  O  O297  1  0.84035443  0.00352051  0.58674274  1
  O  O298  1  0.84049004  0.49607890  0.08835984  1
  O  O299  1  0.83915467  0.49716572  0.58552617  1
  O  O300  1  -0.00209677  0.24971636  0.09051470  1
  O  O301  1  -0.00429597  0.25285521  0.58961723  1
  O  O302  1  0.00059715  0.73708141  0.07794763  1
  O  O303  1  -0.00392420  0.73724291  0.57583916  1
  O  O304  1  0.32831700  0.24751657  0.08899035  1
  O  O305  1  0.34923104  0.27058471  0.57127406  1
  O  O306  1  0.29928263  0.75127489  0.07688242  1
  O  O307  1  0.32566155  0.75620743  0.57251950  1
  O  O308  1  0.68678207  0.25035046  0.08609506  1
  O  O309  1  0.67036475  0.23573796  0.57243548  1
  O  O310  1  0.69232584  0.74900101  0.08690529  1
  O  O311  1  0.69763879  0.74958191  0.58401588  1
  O  O312  1  0.15955617  0.00364731  0.41431669  1
  O  O313  1  0.14338818  0.00090608  0.93730692  1
  O  O314  1  0.17397674  0.49529528  0.41344267  1
  O  O315  1  0.13320252  0.50131163  0.91850581  1
  O  O316  1  0.48718824  -0.00159567  0.41301042  1
  O  O317  1  0.49708988  0.00193419  0.91269502  1
  O  O318  1  0.47650542  0.50155982  0.41290166  1
  O  O319  1  0.50851822  0.50287458  0.90980494  1
  O  O320  1  0.81531283  -0.01151755  0.42496017  1
  O  O321  1  0.81800718  -0.00130985  0.91757548  1
  O  O322  1  0.80994086  0.49677307  0.41533696  1
  O  O323  1  0.80297542  0.50152286  0.91497631  1
  O  O324  1  0.32707847  0.24807418  0.41305841  1
  O  O325  1  0.33627322  0.24711715  0.92811391  1
  O  O326  1  0.31754158  0.75118989  0.41090460  1
  O  O327  1  0.32951237  0.73213705  0.92541694  1
  O  O328  1  0.63521098  0.25456692  0.41355667  1
  O  O329  1  0.65486918  0.24996610  0.91604766  1
  O  O330  1  0.64431827  0.74626818  0.41266375  1
  O  O331  1  0.65444604  0.75291744  0.91366863  1
  O  O332  1  0.99771330  0.25613425  0.41706102  1
  O  O333  1  0.96106315  0.25580837  0.91802834  1
  O  O334  1  1.00399642  0.75916377  0.42166365  1
  O  O335  1  0.96293222  0.74384240  0.91451251  1
  O  O336  1  0.20793152  0.08687191  0.19748989  1
  O  O337  1  0.19747343  0.08638611  0.69098964  1
  O  O338  1  0.20708968  0.57884279  0.19274619  1
  O  O339  1  0.20020369  0.57907944  0.69306843  1
  O  O340  1  0.54365615  0.08677052  0.19411181  1
  O  O341  1  0.54643467  0.07829683  0.69471073  1
  O  O342  1  0.54608709  0.58483420  0.19039690  1
  O  O343  1  0.54996397  0.59598221  0.68850082  1
  O  O344  1  0.87838633  0.08597161  0.19907029  1
  O  O345  1  0.88521187  0.07700155  0.69888903  1
  O  O346  1  0.87768133  0.57916816  0.19745403  1
  O  O347  1  0.87367873  0.58148229  0.69542485  1
  O  O348  1  0.04286809  0.33223182  0.19892280  1
  O  O349  1  0.04252580  0.33436350  0.69917544  1
  O  O350  1  0.04555390  0.83259319  0.20203903  1
  O  O351  1  0.04124485  0.83150166  0.70022024  1
  O  O352  1  0.37702785  0.33582922  0.19279167  1
  O  O353  1  0.37538873  0.34026817  0.69160812  1
  O  O354  1  0.37779910  0.83415113  0.19918932  1
  O  O355  1  0.37474649  0.82949409  0.68970644  1
  O  O356  1  0.71373280  0.33387331  0.19482623  1
  O  O357  1  0.71058266  0.33423797  0.69896285  1
  O  O358  1  0.71509503  0.83312727  0.19512387  1
  O  O359  1  0.71252091  0.83198118  0.69393195  1
  O  O360  1  0.20826591  0.41295051  0.19620629  1
  O  O361  1  0.20114610  0.41606709  0.69671716  1
  O  O362  1  0.20891894  0.92049836  0.19452254  1
  O  O363  1  0.20723776  0.91677204  0.69768966  1
  O  O364  1  0.54495343  0.41635608  0.19838006  1
  O  O365  1  0.54755779  0.41205275  0.68887443  1
  O  O366  1  0.54771830  0.91755230  0.20002031  1
  O  O367  1  0.54933635  0.90760982  0.68908488  1
  O  O368  1  0.88016206  0.41593906  0.19846490  1
  O  O369  1  0.87494395  0.41689650  0.69481616  1
  O  O370  1  0.87976703  0.91954385  0.19805083  1
  O  O371  1  0.87578210  0.91584263  0.69455998  1
  O  O372  1  0.04011619  0.16770147  0.19918796  1
  O  O373  1  0.03991746  0.17022760  0.69822703  1
  O  O374  1  0.04503447  0.66221760  0.19322170  1
  O  O375  1  0.03109483  0.66428284  0.69274679  1
  O  O376  1  0.37707216  0.16417688  0.19639938  1
  O  O377  1  0.37930053  0.18106037  0.69650876  1
  O  O378  1  0.37631807  0.66514050  0.19786396  1
  O  O379  1  0.37695183  0.66835037  0.69685852  1
  O  O380  1  0.71065566  0.16940294  0.19742366  1
  O  O381  1  0.69804112  0.16523850  0.69034139  1
  O  O382  1  0.71603294  0.66597738  0.19645335  1
  O  O383  1  0.71246705  0.66700635  0.69327425  1
  O  O384  1  0.12404589  0.08639927  0.30677706  1
  O  O385  1  0.12301811  0.08417023  0.80352869  1
  O  O386  1  0.12711853  0.58000400  0.30597140  1
  O  O387  1  0.11704515  0.57906005  0.80659034  1
  O  O388  1  0.45691799  0.08260598  0.30402429  1
  O  O389  1  0.46988959  0.08562820  0.80431523  1
  O  O390  1  0.45676352  0.58100151  0.30135849  1
  O  O391  1  0.46428206  0.59276110  0.80551258  1
  O  O392  1  0.78874265  0.08434953  0.30253894  1
  O  O393  1  0.78635372  0.07665551  0.80750479  1
  O  O394  1  0.78943266  0.58213231  0.30731675  1
  O  O395  1  0.78832981  0.58458473  0.80422924  1
  O  O396  1  0.29037942  0.33531640  0.30532437  1
  O  O397  1  0.28802658  0.33644686  0.80073220  1
  O  O398  1  0.28821487  0.83480215  0.30325396  1
  O  O399  1  0.28980095  0.82934635  0.79878597  1
  O  O400  1  0.62469063  0.33493551  0.30387793  1
  O  O401  1  0.62224961  0.33457116  0.80474240  1
  O  O402  1  0.62450099  0.83083826  0.30401307  1
  O  O403  1  0.62609944  0.83328576  0.80299960  1
  O  O404  1  0.95835142  0.33544549  0.30763025  1
  O  O405  1  0.95235006  0.33680747  0.80792329  1
  O  O406  1  0.95800140  0.83448900  0.30681817  1
  O  O407  1  0.95140038  0.83018373  0.80721934  1
  O  O408  1  0.12650388  0.41378227  0.30599984  1
  O  O409  1  0.11790824  0.41589959  0.81016872  1
  O  O410  1  0.12647636  0.92028102  0.30500358  1
  O  O411  1  0.12003908  0.91609690  0.80274923  1
  O  O412  1  0.45485891  0.41765265  0.30359716  1
  O  O413  1  0.45569197  0.41280153  0.80635813  1
  O  O414  1  0.45681315  0.91724237  0.30422323  1
  O  O415  1  0.45673609  0.91370234  0.80374419  1
  O  O416  1  0.79103343  0.41556879  0.30575678  1
  O  O417  1  0.78894313  0.42003770  0.80493643  1
  O  O418  1  0.78958888  0.91493079  0.30741651  1
  O  O419  1  0.78984679  0.91565908  0.80465767  1
  O  O420  1  0.28809812  0.16468390  0.30515184  1
  O  O421  1  0.28855154  0.17443543  0.81291154  1
  O  O422  1  0.28805078  0.66583083  0.30177581  1
  O  O423  1  0.29214437  0.66379937  0.80750138  1
  O  O424  1  0.62183967  0.16816602  0.30683486  1
  O  O425  1  0.63384464  0.16784983  0.80679669  1
  O  O426  1  0.62218587  0.66535926  0.30225421  1
  O  O427  1  0.62713513  0.66836683  0.80465059  1
  O  O428  1  0.95864754  0.16927968  0.31082720  1
  O  O429  1  0.96525594  0.16913984  0.81270508  1
  O  O430  1  0.95763491  0.66536250  0.30011876  1
  O  O431  1  0.95345234  0.66323211  0.80489478  1
  F  F432  1  0.04416313  0.00401588  0.20557656  1
  F  F433  1  0.04061372  0.00056036  0.70282263  1
  F  F434  1  0.04522272  0.49762693  0.20491482  1
  F  F435  1  0.04141891  0.49735961  0.70424611  1
  F  F436  1  0.37917176  0.00325965  0.20313494  1
  F  F437  1  0.37760697  -0.01265198  0.69408043  1
  F  F438  1  0.37724343  0.49787792  0.19974114  1
  F  F439  1  0.35857512  0.49851032  0.69558549  1
  F  F440  1  0.71320640  0.00035444  0.20352108  1
  F  F441  1  0.71529420  -0.00214217  0.70056119  1
  F  F442  1  0.71598033  0.49972907  0.20298532  1
  F  F443  1  0.71257101  0.50253269  0.69797901  1
  F  F444  1  0.20358315  0.24978054  0.20159751  1
  F  F445  1  0.20806930  0.25001325  0.70482978  1
  F  F446  1  0.20989288  0.74916804  0.20208989  1
  F  F447  1  0.20731642  0.74823261  0.69991049  1
  F  F448  1  0.54775712  0.24983249  0.20129652  1
  F  F449  1  0.54616026  0.25525472  0.69995526  1
  F  F450  1  0.54985753  0.74943339  0.20090621  1
  F  F451  1  0.54822925  0.75071746  0.70072993  1
  F  F452  1  0.88000778  0.24995198  0.20676584  1
  F  F453  1  0.88485866  0.26030840  0.70159747  1
  F  F454  1  0.87837659  0.75050617  0.20323172  1
  F  F455  1  0.87682412  0.74889477  0.70264523  1
  F  F456  1  0.28883935  0.00086388  0.29741643  1
  F  F457  1  0.28534710  -0.00735289  0.80239185  1
  F  F458  1  0.28981843  0.49914041  0.29582421  1
  F  F459  1  0.28176996  0.49348487  0.80506498  1
  F  F460  1  0.62241371  0.00195126  0.29964913  1
  F  F461  1  0.63271018  -0.00346152  0.80187788  1
  F  F462  1  0.62225935  0.50202783  0.29669337  1
  F  F463  1  0.63312686  0.50084285  0.79772761  1
  F  F464  1  0.95605596  0.00087498  0.30140516  1
  F  F465  1  0.95381687  -0.00330078  0.80216273  1
  F  F466  1  0.95672641  0.49826185  0.30149069  1
  F  F467  1  0.95024520  0.50040417  0.79886143  1
  F  F468  1  0.12174393  0.25078934  0.30233960  1
  F  F469  1  0.11964330  0.25258611  0.80234034  1
  F  F470  1  0.12480254  0.74641630  0.29864062  1
  F  F471  1  0.11827733  0.74894377  0.80277169  1
  F  F472  1  0.46007843  0.25224777  0.29770871  1
  F  F473  1  0.45411140  0.26086451  0.80414493  1
  F  F474  1  0.45875832  0.74893031  0.29751414  1
  F  F475  1  0.45900399  0.75345888  0.79661911  1
  F  F476  1  0.78819970  0.25253701  0.30078442  1
  F  F477  1  0.78342765  0.26014947  0.80491311  1
  F  F478  1  0.78854580  0.74978885  0.29930782  1
  F  F479  1  0.78705050  0.74907347  0.79746838  1
