# generated using pymatgen
data_K24Na3Li5Mg64Fe17Si79(O5F)48
_symmetry_space_group_name_H-M   'P 1'
_cell_length_a   16.11590666
_cell_length_b   18.62763051
_cell_length_c   20.58795575
_cell_angle_alpha   89.98943562
_cell_angle_beta   100.01258475
_cell_angle_gamma   90.04088439
_symmetry_Int_Tables_number   1
_chemical_formula_structural   K24Na3Li5Mg64Fe17Si79(O5F)48
_chemical_formula_sum   'K24 Na3 Li5 Mg64 Fe17 Si79 O240 F48'
_cell_volume   6086.39453768
_cell_formula_units_Z   1
loop_
 _symmetry_equiv_pos_site_id
 _symmetry_equiv_pos_as_xyz
  1  'x, y, z'
loop_
 _atom_site_type_symbol
 _atom_site_label
 _atom_site_symmetry_multiplicity
 _atom_site_fract_x
 _atom_site_fract_y
 _atom_site_fract_z
 _atom_site_occupancy
  K  K0  1  0.00996236  0.00814014  0.01600165  1
  K  K1  1  -0.00451626  -0.00039410  0.48369363  1
  K  K2  1  0.01450816  0.49669685  0.00630542  1
  K  K3  1  -0.01449030  0.50835859  0.49258851  1
  K  K4  1  0.33170606  0.00055939  0.01730834  1
  K  K5  1  0.32858986  -0.00424005  0.47515217  1
  K  K6  1  0.33565351  0.49411046  0.00858791  1
  K  K7  1  0.33456841  0.49463637  0.48624960  1
  K  K8  1  0.67523329  -0.00259204  0.03480989  1
  K  K9  1  0.65312420  0.00666414  0.46277308  1
  K  K10  1  0.66564605  0.49538665  0.00990577  1
  K  K11  1  0.66738704  0.49438128  0.48867621  1
  K  K12  1  0.17325368  0.24276322  0.01350155  1
  K  K13  1  0.17001226  0.25974226  0.48815560  1
  K  K14  1  0.16857731  0.75275911  0.00648771  1
  K  K15  1  0.15833782  0.76400879  0.48434235  1
  K  K16  1  0.50012262  0.25171067  0.01292710  1
  K  K17  1  0.48746259  0.24567667  0.46533116  1
  K  K18  1  0.50711887  0.75923648  0.02055271  1
  K  K19  1  0.49787278  0.75715719  0.48515937  1
  K  K20  1  0.84903672  0.24942596  0.00737556  1
  K  K21  1  0.81773699  0.24468369  0.48732166  1
  K  K22  1  0.83315763  0.75837688  0.01711955  1
  K  K23  1  0.83146849  0.73887476  0.48767278  1
  Na  Na24  1  0.33909800  0.24930640  0.25335209  1
  Na  Na25  1  0.83275473  0.33094485  0.75027312  1
  Na  Na26  1  0.50414349  0.66965182  0.25388454  1
  Li  Li27  1  0.51529814  0.00336954  0.25545015  1
  Li  Li28  1  0.17201552  0.49961029  0.25075155  1
  Li  Li29  1  0.49842487  0.32627699  0.25344781  1
  Li  Li30  1  0.66244491  0.92482539  0.24852359  1
  Li  Li31  1  0.66392664  0.07215981  0.25455854  1
  Mg  Mg32  1  0.33544351  0.74933596  0.25346912  1
  Mg  Mg33  1  0.16689767  0.49934848  0.75414216  1
  Mg  Mg34  1  0.33311152  0.25197953  0.75354479  1
  Mg  Mg35  1  0.33454808  0.75014087  0.75190490  1
  Mg  Mg36  1  0.66615625  0.75321776  0.25056892  1
  Mg  Mg37  1  0.16548134  -0.00013343  0.25048839  1
  Mg  Mg38  1  0.66576471  0.24901300  0.75034262  1
  Mg  Mg39  1  -0.00359655  0.74942191  0.24906934  1
  Mg  Mg40  1  -0.00152275  0.25018052  0.75268190  1
  Mg  Mg41  1  0.83161698  0.49834229  0.24953735  1
  Mg  Mg42  1  0.50048083  0.49894015  0.75155923  1
  Mg  Mg43  1  0.66335647  0.24504196  0.25097237  1
  Mg  Mg44  1  0.16509334  0.00066982  0.75633113  1
  Mg  Mg45  1  0.49839166  0.00092354  0.74955735  1
  Mg  Mg46  1  0.83314442  -0.00029950  0.74868958  1
  Mg  Mg47  1  0.50023377  0.49869604  0.25175501  1
  Mg  Mg48  1  0.82550634  -0.00224998  0.24504405  1
  Mg  Mg49  1  0.66663938  0.75100408  0.74741728  1
  Mg  Mg50  1  0.00063822  0.75004285  0.75093725  1
  Mg  Mg51  1  0.83416464  0.49875044  0.74637771  1
  Mg  Mg52  1  0.00232080  0.24974519  0.24706596  1
  Mg  Mg53  1  0.16757902  0.66582335  0.75101941  1
  Mg  Mg54  1  0.17026432  0.33543992  0.24879883  1
  Mg  Mg55  1  0.16737307  0.16539258  0.24852975  1
  Mg  Mg56  1  0.50200142  0.66571473  0.75066141  1
  Mg  Mg57  1  0.33204805  0.08527686  0.75176129  1
  Mg  Mg58  1  -0.00130464  0.58385310  0.74879856  1
  Mg  Mg59  1  0.00005345  0.58145446  0.24872466  1
  Mg  Mg60  1  0.83017693  0.66474641  0.24899960  1
  Mg  Mg61  1  0.50482380  0.83798003  0.25137304  1
  Mg  Mg62  1  0.66661358  0.41494529  0.74933691  1
  Mg  Mg63  1  0.16677828  0.66309070  0.24990305  1
  Mg  Mg64  1  0.83323807  0.16563289  0.75003050  1
  Mg  Mg65  1  0.50280069  0.16412793  0.25279764  1
  Mg  Mg66  1  -0.00317196  0.91580371  0.24785831  1
  Mg  Mg67  1  0.83421691  0.83436627  0.75022949  1
  Mg  Mg68  1  0.16412543  0.83316084  0.25029275  1
  Mg  Mg69  1  0.83348058  0.33207486  0.24841875  1
  Mg  Mg70  1  0.66574873  0.91680512  0.74848630  1
  Mg  Mg71  1  0.00286903  0.08466757  0.75476506  1
  Mg  Mg72  1  0.00333001  0.41771914  0.24689487  1
  Mg  Mg73  1  0.83198876  0.83742597  0.25078152  1
  Mg  Mg74  1  0.33252459  0.91621864  0.75233665  1
  Mg  Mg75  1  0.66563283  0.08397791  0.74827568  1
  Mg  Mg76  1  0.00318891  0.91610040  0.75479128  1
  Mg  Mg77  1  0.66784054  0.58418933  0.74769652  1
  Mg  Mg78  1  0.33447465  0.58228403  0.25154261  1
  Mg  Mg79  1  0.66428966  0.41333326  0.24951913  1
  Mg  Mg80  1  0.00064586  0.41560494  0.75123389  1
  Mg  Mg81  1  0.33361217  0.08222797  0.24636500  1
  Mg  Mg82  1  0.83327616  0.66472418  0.74670053  1
  Mg  Mg83  1  0.50034965  0.33518843  0.75192197  1
  Mg  Mg84  1  0.33555624  0.91684714  0.25024190  1
  Mg  Mg85  1  0.16724288  0.16553178  0.75428951  1
  Mg  Mg86  1  0.83024040  0.16431664  0.24521850  1
  Mg  Mg87  1  0.33584837  0.41636421  0.75441099  1
  Mg  Mg88  1  0.33613400  0.58378453  0.75224873  1
  Mg  Mg89  1  0.16661660  0.33504805  0.75515152  1
  Mg  Mg90  1  0.33702308  0.41727579  0.25286842  1
  Mg  Mg91  1  0.49936618  0.83490371  0.74955752  1
  Mg  Mg92  1  0.66666918  0.58372766  0.24944300  1
  Mg  Mg93  1  -0.00197092  0.08505155  0.24637985  1
  Mg  Mg94  1  0.16725269  0.83555694  0.75427889  1
  Mg  Mg95  1  0.49817596  0.16625306  0.74960501  1
  Fe  Fe96  1  0.47941666  0.41765087  0.89213763  1
  Fe  Fe97  1  0.30035554  0.16954444  0.39108824  1
  Fe  Fe98  1  0.80823773  0.08548217  0.38485039  1
  Fe  Fe99  1  0.19814593  0.07754233  0.10882038  1
  Fe  Fe100  1  0.85808148  0.58182112  0.60772447  1
  Fe  Fe101  1  0.46921308  0.58406280  0.39234952  1
  Fe  Fe102  1  0.80372076  0.57718367  0.38718156  1
  Fe  Fe103  1  0.46677876  0.08038345  0.38876405  1
  Fe  Fe104  1  0.97113523  0.83133650  0.38959333  1
  Fe  Fe105  1  0.02961089  0.17275466  0.10841754  1
  Fe  Fe106  1  0.14568452  0.91412378  0.89578989  1
  Fe  Fe107  1  0.14610777  0.08919173  0.89509722  1
  Fe  Fe108  1  0.14162102  0.41481491  0.89327981  1
  Fe  Fe109  1  0.68693913  0.83317531  0.10996027  1
  Fe  Fe110  1  0.64275926  0.67055569  0.39284573  1
  Fe  Fe111  1  0.86011014  0.91815551  0.10526753  1
  Fe  Fe112  1  0.14052901  0.92011261  0.38920414  1
  Si  Si113  1  0.19388518  0.91779000  0.61722818  1
  Si  Si114  1  0.52540287  0.41610767  0.61388890  1
  Si  Si115  1  0.64227227  0.33177073  0.38351667  1
  Si  Si116  1  0.69080542  0.17113254  0.11235210  1
  Si  Si117  1  0.36136153  0.66582007  0.61602962  1
  Si  Si118  1  0.47493755  0.08309798  0.88525661  1
  Si  Si119  1  0.69098001  0.33407241  0.11312830  1
  Si  Si120  1  0.14086591  0.41976890  0.38303522  1
  Si  Si121  1  0.63974790  0.16777441  0.38915606  1
  Si  Si122  1  0.97424734  0.66297689  0.38519097  1
  Si  Si123  1  0.02643687  0.16510273  0.61624660  1
  Si  Si124  1  0.35714928  0.16880203  0.61547462  1
  Si  Si125  1  0.19327355  0.90545961  0.11352600  1
  Si  Si126  1  0.98018430  0.33202871  0.38157590  1
  Si  Si127  1  0.48201139  0.58715189  0.88764779  1
  Si  Si128  1  0.64121265  0.16270203  0.88357211  1
  Si  Si129  1  0.52498033  0.41630130  0.11514107  1
  Si  Si130  1  0.31577231  0.17252526  0.88753908  1
  Si  Si131  1  0.31047268  0.33307308  0.88930366  1
  Si  Si132  1  0.85908180  0.08316323  0.61560214  1
  Si  Si133  1  0.30821535  0.82862431  0.38715134  1
  Si  Si134  1  0.30763488  0.34037766  0.38834057  1
  Si  Si135  1  0.02737835  0.82448683  0.11019798  1
  Si  Si136  1  0.85711737  0.58109367  0.11257583  1
  Si  Si137  1  0.85639093  0.09107331  0.10566500  1
  Si  Si138  1  0.80794112  0.91708140  0.38870768  1
  Si  Si139  1  0.85884578  0.91633884  0.61516595  1
  Si  Si140  1  0.47377918  0.91027353  0.38635534  1
  Si  Si141  1  0.02560610  0.65942985  0.11305487  1
  Si  Si142  1  0.97344486  0.66595405  0.88525398  1
  Si  Si143  1  0.19167255  0.41698119  0.61670863  1
  Si  Si144  1  0.19722124  0.58535490  0.11459167  1
  Si  Si145  1  0.13413491  0.58211964  0.38178911  1
  Si  Si146  1  0.52632836  0.58290264  0.61512242  1
  Si  Si147  1  0.35772994  0.33456898  0.61561130  1
  Si  Si148  1  0.52542979  0.57782114  0.11432086  1
  Si  Si149  1  0.31429608  0.82882444  0.88823977  1
  Si  Si150  1  0.19906382  0.42009772  0.11590458  1
  Si  Si151  1  0.36138007  0.33522314  0.11680187  1
  Si  Si152  1  0.81259223  0.40769744  0.38513711  1
  Si  Si153  1  0.68759012  0.32996040  0.61431085  1
  Si  Si154  1  0.97186861  0.17064590  0.38326458  1
  Si  Si155  1  0.29777624  0.66335073  0.38801927  1
  Si  Si156  1  0.52018167  0.92251937  0.11509911  1
  Si  Si157  1  0.47490560  0.91743734  0.88515196  1
  Si  Si158  1  0.80120503  0.41920940  0.88358637  1
  Si  Si159  1  0.02665963  0.83505388  0.61669306  1
  Si  Si160  1  0.52197901  0.91883544  0.61412971  1
  Si  Si161  1  0.85749160  0.41702439  0.11345385  1
  Si  Si162  1  0.80581023  0.58321829  0.88464280  1
  Si  Si163  1  0.19643725  0.58313817  0.61696291  1
  Si  Si164  1  0.64376984  0.67233973  0.88399115  1
  Si  Si165  1  0.36057668  0.66669089  0.11585337  1
  Si  Si166  1  0.68999300  0.16421002  0.61349721  1
  Si  Si167  1  0.68837899  0.67138951  0.61221163  1
  Si  Si168  1  0.47873720  0.41819400  0.38812909  1
  Si  Si169  1  0.36660917  0.16793577  0.11234878  1
  Si  Si170  1  0.64025409  0.83678656  0.88298922  1
  Si  Si171  1  0.68891123  0.83727816  0.61404949  1
  Si  Si172  1  0.64400827  0.83631659  0.38701416  1
  Si  Si173  1  0.96985500  0.33514806  0.88784800  1
  Si  Si174  1  0.02856921  0.34276133  0.11084297  1
  Si  Si175  1  0.64315134  0.32711377  0.88749689  1
  Si  Si176  1  0.03217938  0.66891043  0.61356124  1
  Si  Si177  1  0.36188771  0.83150290  0.11620850  1
  Si  Si178  1  0.80381650  0.08078606  0.88270091  1
  Si  Si179  1  0.14564764  0.58910267  0.88828900  1
  Si  Si180  1  0.31475764  0.66631847  0.88546211  1
  Si  Si181  1  0.52217697  0.08427053  0.61398251  1
  Si  Si182  1  0.96606122  0.16789207  0.88734671  1
  Si  Si183  1  0.85817946  0.41180494  0.61183494  1
  Si  Si184  1  0.96799250  0.83183021  0.88837997  1
  Si  Si185  1  0.35786489  0.83227758  0.61541281  1
  Si  Si186  1  0.68877962  0.66214299  0.10883922  1
  Si  Si187  1  0.19330104  0.08321078  0.61638844  1
  Si  Si188  1  0.13382976  0.08824261  0.38792530  1
  Si  Si189  1  0.52876566  0.08794165  0.11693997  1
  Si  Si190  1  0.02619138  0.33040597  0.61522450  1
  Si  Si191  1  0.80477987  0.91742692  0.88305560  1
  O  O192  1  0.28664099  0.12283498  0.07467001  1
  O  O193  1  0.26887663  0.12611296  0.58756433  1
  O  O194  1  0.26878042  0.63001319  0.08098211  1
  O  O195  1  0.27700105  0.61823488  0.58860704  1
  O  O196  1  0.60641305  0.12364473  0.08289284  1
  O  O197  1  0.60287713  0.11896288  0.58618287  1
  O  O198  1  0.60305272  0.61235388  0.08119380  1
  O  O199  1  0.60244792  0.62333102  0.58718687  1
  O  O200  1  0.92385914  0.13547704  0.07116262  1
  O  O201  1  0.93638031  0.12419705  0.58758323  1
  O  O202  1  0.93760617  0.61552726  0.08244487  1
  O  O203  1  0.95186484  0.62412297  0.57849040  1
  O  O204  1  0.10378753  0.39040070  0.08497988  1
  O  O205  1  0.10368216  0.37364955  0.58766150  1
  O  O206  1  0.11298230  0.85235663  0.08476595  1
  O  O207  1  0.10350876  0.87838173  0.59030143  1
  O  O208  1  0.43842679  0.37246020  0.08320140  1
  O  O209  1  0.43491868  0.37503231  0.58680420  1
  O  O210  1  0.42892152  0.88045500  0.08416377  1
  O  O211  1  0.43638735  0.87131435  0.58704295  1
  O  O212  1  0.77050320  0.37190600  0.08320495  1
  O  O213  1  0.77077040  0.36308064  0.58919693  1
  O  O214  1  0.76432921  0.87115215  0.06209882  1
  O  O215  1  0.76977179  0.87365669  0.58738548  1
  O  O216  1  0.27182847  0.37699197  0.08325956  1
  O  O217  1  0.26927206  0.37779037  0.58673852  1
  O  O218  1  0.26930429  0.86302393  0.08411778  1
  O  O219  1  0.26925534  0.87439893  0.58796520  1
  O  O220  1  0.60469713  0.38029194  0.08410561  1
  O  O221  1  0.60151669  0.37635897  0.58312358  1
  O  O222  1  0.58656738  0.88384364  0.07504757  1
  O  O223  1  0.60323975  0.88459057  0.58709751  1
  O  O224  1  0.93789671  0.38596315  0.08310272  1
  O  O225  1  0.93557541  0.36730110  0.58468769  1
  O  O226  1  0.94859165  0.86952284  0.07201885  1
  O  O227  1  0.93684169  0.87573166  0.58822002  1
  O  O228  1  0.10537954  0.12688870  0.06600143  1
  O  O229  1  0.10239047  0.12184380  0.58812707  1
  O  O230  1  0.10304693  0.61932378  0.08317018  1
  O  O231  1  0.11574294  0.63353203  0.58837208  1
  O  O232  1  0.44884992  0.13832831  0.08126159  1
  O  O233  1  0.43658572  0.13080793  0.58842330  1
  O  O234  1  0.43656223  0.62261383  0.08751975  1
  O  O235  1  0.43917057  0.62761050  0.58772731  1
  O  O236  1  0.76581620  0.13492297  0.07907624  1
  O  O237  1  0.77025748  0.12590686  0.58727102  1
  O  O238  1  0.76977081  0.62284716  0.08049312  1
  O  O239  1  0.76567271  0.64312606  0.58038738  1
  O  O240  1  0.04391023  0.11110460  0.41190233  1
  O  O241  1  0.04375084  0.11915655  0.92027233  1
  O  O242  1  0.04975378  0.60301555  0.41131226  1
  O  O243  1  0.06389317  0.62708790  0.91472373  1
  O  O244  1  0.38864863  0.11706110  0.43732332  1
  O  O245  1  0.39466346  0.11582731  0.91355051  1
  O  O246  1  0.36949923  0.61058704  0.42546420  1
  O  O247  1  0.39466542  0.61342774  0.91331466  1
  O  O248  1  0.72413694  0.12636242  0.42596889  1
  O  O249  1  0.71837889  0.10685466  0.90956600  1
  O  O250  1  0.72128147  0.60374637  0.43306804  1
  O  O251  1  0.72814361  0.62447416  0.91308299  1
  O  O252  1  0.22798249  0.37925363  0.41836355  1
  O  O253  1  0.22503961  0.34456252  0.91939798  1
  O  O254  1  0.23978058  0.86767552  0.42396103  1
  O  O255  1  0.23467912  0.84616142  0.92204447  1
  O  O256  1  0.56362190  0.36764627  0.41375072  1
  O  O257  1  0.56584476  0.35077795  0.92292455  1
  O  O258  1  0.56061247  0.86568269  0.41649805  1
  O  O259  1  0.55809705  0.86742901  0.91130605  1
  O  O260  1  0.89456549  0.35361765  0.41068849  1
  O  O261  1  0.88424511  0.37062511  0.91026776  1
  O  O262  1  0.87462563  0.85637988  0.42424576  1
  O  O263  1  0.88001113  0.86142175  0.91085579  1
  O  O264  1  0.05968529  0.38545831  0.41326427  1
  O  O265  1  0.04677969  0.38253307  0.92703200  1
  O  O266  1  0.05916755  0.88639564  0.43469293  1
  O  O267  1  0.04648067  0.87816195  0.92387381  1
  O  O268  1  0.39637165  0.38409003  0.41714890  1
  O  O269  1  0.37863979  0.39391572  0.92010118  1
  O  O270  1  0.40010883  0.86480422  0.41694339  1
  O  O271  1  0.39574802  0.88254532  0.91403224  1
  O  O272  1  0.73131264  0.37439831  0.41496618  1
  O  O273  1  0.72430794  0.38029357  0.91385548  1
  O  O274  1  0.71696122  0.89692669  0.41156171  1
  O  O275  1  0.71917251  0.89025371  0.90877656  1
  O  O276  1  0.19906226  0.14985365  0.42081427  1
  O  O277  1  0.23475187  0.15651385  0.92015911  1
  O  O278  1  0.20908408  0.63835690  0.41299188  1
  O  O279  1  0.22898898  0.64240265  0.91305471  1
  O  O280  1  0.56364882  0.13486267  0.42268546  1
  O  O281  1  0.55839844  0.13269508  0.91230591  1
  O  O282  1  0.54793614  0.65000435  0.42933087  1
  O  O283  1  0.55911831  0.64601482  0.91155443  1
  O  O284  1  0.89318814  0.15393985  0.41940549  1
  O  O285  1  0.87919819  0.13623610  0.91072889  1
  O  O286  1  0.89561664  0.63720616  0.41866393  1
  O  O287  1  0.89638462  0.62312041  0.91265283  1
  O  O288  1  0.17944501  -0.01800538  0.07725678  1
  O  O289  1  0.19036508  0.00016365  0.58876849  1
  O  O290  1  0.19856640  0.50296099  0.08570276  1
  O  O291  1  0.18300650  0.50028217  0.58849238  1
  O  O292  1  0.50991264  0.00636912  0.08510141  1
  O  O293  1  0.50709210  0.00128740  0.58699864  1
  O  O294  1  0.51105867  0.49698974  0.08053253  1
  O  O295  1  0.51587584  0.49986723  0.58752098  1
  O  O296  1  0.84633137  0.01230025  0.07125991  1
  O  O297  1  0.85179208  -0.00025811  0.58823497  1
  O  O298  1  0.84266948  0.49873264  0.08285272  1
  O  O299  1  0.84342484  0.48756188  0.57342636  1
  O  O300  1  0.02148390  0.26766966  0.07258049  1
  O  O301  1  0.02454011  0.24744195  0.58650854  1
  O  O302  1  0.01576659  0.74002064  0.08122185  1
  O  O303  1  0.02591163  0.75330653  0.58752269  1
  O  O304  1  0.35360907  0.25326223  0.08648350  1
  O  O305  1  0.34763735  0.25176841  0.58747501  1
  O  O306  1  0.36377569  0.74864642  0.08536022  1
  O  O307  1  0.34974277  0.74895322  0.58816649  1
  O  O308  1  0.67647286  0.25384628  0.07965088  1
  O  O309  1  0.67767572  0.24678456  0.58527026  1
  O  O310  1  0.67276178  0.73785580  0.07123087  1
  O  O311  1  0.66784108  0.75555388  0.58777920  1
  O  O312  1  0.16353921  0.01279644  0.42439610  1
  O  O313  1  0.18520443  0.00136691  0.92877455  1
  O  O314  1  0.15739780  0.50154179  0.41289673  1
  O  O315  1  0.16496708  0.51208829  0.92316646  1
  O  O316  1  0.48232525  -0.01354562  0.42497219  1
  O  O317  1  0.49189240  0.00003110  0.91201394  1
  O  O318  1  0.49921300  0.49203099  0.42939122  1
  O  O319  1  0.51312712  0.51181814  0.92117995  1
  O  O320  1  0.83514107  -0.00524148  0.42367273  1
  O  O321  1  0.82664220  -0.00097290  0.91017018  1
  O  O322  1  0.83760376  0.48378368  0.41929751  1
  O  O323  1  0.81188301  0.50146024  0.91539180  1
  O  O324  1  0.31925887  0.26409608  0.42540025  1
  O  O325  1  0.35361458  0.25299325  0.90930222  1
  O  O326  1  0.31594029  0.74546431  0.41650454  1
  O  O327  1  0.34643165  0.74658469  0.91137214  1
  O  O328  1  0.65346498  0.25242433  0.41776640  1
  O  O329  1  0.66836675  0.24327836  0.91115718  1
  O  O330  1  0.67426680  0.76321364  0.42734559  1
  O  O331  1  0.66282879  0.75517537  0.91033905  1
  O  O332  1  1.00918808  0.25179338  0.40913929  1
  O  O333  1  0.97221403  0.25128487  0.91422668  1
  O  O334  1  1.00887422  0.73848708  0.41784601  1
  O  O335  1  0.97629540  0.74748893  0.91473809  1
  O  O336  1  0.20797690  0.08028749  0.19956431  1
  O  O337  1  0.21227943  0.08377188  0.69680315  1
  O  O338  1  0.21314994  0.58765034  0.19352019  1
  O  O339  1  0.21342769  0.58334891  0.69764446  1
  O  O340  1  0.54762117  0.08868837  0.19515639  1
  O  O341  1  0.54140020  0.08315860  0.69484426  1
  O  O342  1  0.54811435  0.57453134  0.19285499  1
  O  O343  1  0.54313044  0.58356304  0.69599850  1
  O  O344  1  0.87712968  0.08885392  0.18632949  1
  O  O345  1  0.87621265  0.08215426  0.69610565  1
  O  O346  1  0.87691877  0.58090548  0.19214732  1
  O  O347  1  0.87806571  0.58364215  0.70033415  1
  O  O348  1  0.04349934  0.33807932  0.19111994  1
  O  O349  1  0.04396517  0.33147980  0.69542469  1
  O  O350  1  0.04202349  0.82592868  0.19027362  1
  O  O351  1  0.04275653  0.83312804  0.69723085  1
  O  O352  1  0.37944181  0.34234469  0.19478112  1
  O  O353  1  0.37556813  0.33372084  0.69589073  1
  O  O354  1  0.37648459  0.83111049  0.19573822  1
  O  O355  1  0.37716447  0.83331513  0.69613096  1
  O  O356  1  0.71093920  0.33433381  0.19272392  1
  O  O357  1  0.69683049  0.33070144  0.69368331  1
  O  O358  1  0.71443122  0.83003969  0.19923908  1
  O  O359  1  0.70845587  0.83614226  0.69501313  1
  O  O360  1  0.21524188  0.41610192  0.19478485  1
  O  O361  1  0.21256708  0.41696886  0.69682769  1
  O  O362  1  0.21053960  0.90943909  0.19368376  1
  O  O363  1  0.21357019  0.91637066  0.69758440  1
  O  O364  1  0.54579048  0.41896572  0.19394957  1
  O  O365  1  0.54404969  0.41601566  0.69435729  1
  O  O366  1  0.53760680  0.91842745  0.19368176  1
  O  O367  1  0.54055531  0.91751775  0.69494335  1
  O  O368  1  0.87535937  0.41593466  0.19339298  1
  O  O369  1  0.88178404  0.42097263  0.69149608  1
  O  O370  1  0.87754978  0.91648175  0.19634083  1
  O  O371  1  0.87620608  0.91579186  0.69597192  1
  O  O372  1  0.04489559  0.16821537  0.20005423  1
  O  O373  1  0.04352693  0.16641175  0.69639418  1
  O  O374  1  0.04291011  0.66169626  0.19274965  1
  O  O375  1  0.04657406  0.66790588  0.69502678  1
  O  O376  1  0.38295811  0.16131342  0.19109888  1
  O  O377  1  0.37575577  0.16763316  0.69618367  1
  O  O378  1  0.36758487  0.66697391  0.19426145  1
  O  O379  1  0.37891578  0.66728195  0.69677317  1
  O  O380  1  0.71310148  0.17706750  0.19067622  1
  O  O381  1  0.70718959  0.16439365  0.69399350  1
  O  O382  1  0.70922288  0.66315097  0.18858049  1
  O  O383  1  0.70737193  0.66897864  0.69384859  1
  O  O384  1  0.11863330  0.08294821  0.30724186  1
  O  O385  1  0.12289220  0.08446144  0.80144359  1
  O  O386  1  0.11953741  0.58335538  0.30223847  1
  O  O387  1  0.12548333  0.58653264  0.80699288  1
  O  O388  1  0.45140393  0.08215995  0.29938140  1
  O  O389  1  0.45710305  0.08286333  0.80417708  1
  O  O390  1  0.45158228  0.57625622  0.30259328  1
  O  O391  1  0.46054853  0.58563314  0.80614227  1
  O  O392  1  0.79212771  0.08344774  0.29490434  1
  O  O393  1  0.78629145  0.08014525  0.80181898  1
  O  O394  1  0.78878787  0.57934562  0.29542385  1
  O  O395  1  0.78718396  0.58496619  0.80429328  1
  O  O396  1  0.28601443  0.34266838  0.30913732  1
  O  O397  1  0.29138195  0.33498132  0.80688683  1
  O  O398  1  0.28738822  0.83056924  0.30667464  1
  O  O399  1  0.29454652  0.83233707  0.80666562  1
  O  O400  1  0.63011224  0.33247268  0.30440031  1
  O  O401  1  0.62301042  0.33113451  0.80627082  1
  O  O402  1  0.62124457  0.82788480  0.30807141  1
  O  O403  1  0.62129812  0.83497971  0.80207902  1
  O  O404  1  0.95963488  0.33537824  0.30134851  1
  O  O405  1  0.96562072  0.33418190  0.80820044  1
  O  O406  1  0.95588023  0.83108685  0.29763508  1
  O  O407  1  0.95476020  0.83224654  0.80674298  1
  O  O408  1  0.12124952  0.41567991  0.30384609  1
  O  O409  1  0.12235037  0.41813478  0.80073635  1
  O  O410  1  0.11859841  0.91509475  0.29705765  1
  O  O411  1  0.12312853  0.91556050  0.80192704  1
  O  O412  1  0.45776845  0.42048133  0.30860191  1
  O  O413  1  0.45748169  0.41743383  0.79947393  1
  O  O414  1  0.45275484  0.91293971  0.30700171  1
  O  O415  1  0.45689367  0.91712823  0.80410720  1
  O  O416  1  0.79207435  0.41169225  0.30435503  1
  O  O417  1  0.78244143  0.42528567  0.80417940  1
  O  O418  1  0.79968843  0.91788761  0.30909613  1
  O  O419  1  0.78748276  0.91694326  0.80207402  1
  O  O420  1  0.28391795  0.15828236  0.30235760  1
  O  O421  1  0.29434090  0.16742862  0.80589831  1
  O  O422  1  0.28688952  0.66429261  0.30750351  1
  O  O423  1  0.29356984  0.66607799  0.80450308  1
  O  O424  1  0.62579091  0.16887070  0.30959471  1
  O  O425  1  0.62000656  0.16357635  0.80275420  1
  O  O426  1  0.63866543  0.66641314  0.30283823  1
  O  O427  1  0.62517332  0.66899519  0.80320052  1
  O  O428  1  0.95319630  0.17051402  0.30266691  1
  O  O429  1  0.95309956  0.16638813  0.80595874  1
  O  O430  1  0.95618815  0.66284867  0.30367173  1
  O  O431  1  0.95709690  0.66727391  0.80470371  1
  F  F432  1  0.04361057  0.00082890  0.19837702  1
  F  F433  1  0.04267066  -0.00029048  0.70212735  1
  F  F434  1  0.03699769  0.50029751  0.19600840  1
  F  F435  1  0.04790602  0.50310646  0.70201820  1
  F  F436  1  0.36128901  -0.00367935  0.19469006  1
  F  F437  1  0.37799855  0.00004453  0.70211472  1
  F  F438  1  0.37782668  0.49994405  0.19891037  1
  F  F439  1  0.37818319  0.50262210  0.70157637  1
  F  F440  1  0.71324870  -0.00430926  0.19049328  1
  F  F441  1  0.70934932  -0.00052083  0.69932094  1
  F  F442  1  0.71218685  0.49340645  0.19855553  1
  F  F443  1  0.70931116  0.50045319  0.69905834  1
  F  F444  1  0.19980880  0.25239392  0.19739988  1
  F  F445  1  0.21241642  0.25081375  0.70470933  1
  F  F446  1  0.21202960  0.74764486  0.20366076  1
  F  F447  1  0.21395914  0.75093921  0.70418623  1
  F  F448  1  0.54764743  0.24724655  0.20049007  1
  F  F449  1  0.54275648  0.24934490  0.70191573  1
  F  F450  1  0.54823262  0.76011580  0.19631383  1
  F  F451  1  0.54362714  0.75110286  0.70092589  1
  F  F452  1  0.88007717  0.25378694  0.19863731  1
  F  F453  1  0.88262339  0.23976068  0.69851297  1
  F  F454  1  0.87894764  0.74158689  0.19663223  1
  F  F455  1  0.87901683  0.75146298  0.70233660  1
  F  F456  1  0.28556969  -0.00647856  0.30050727  1
  F  F457  1  0.29151520  0.00014657  0.79871564  1
  F  F458  1  0.28980981  0.50077168  0.29820206  1
  F  F459  1  0.29012281  0.50204938  0.79905641  1
  F  F460  1  0.62632949  -0.00088420  0.30524541  1
  F  F461  1  0.61980128  -0.00040121  0.79610833  1
  F  F462  1  0.62463176  0.49724057  0.29809927  1
  F  F463  1  0.62200703  0.50153983  0.79626196  1
  F  F464  1  0.95374213  0.00342988  0.29310699  1
  F  F465  1  0.95177573  -0.00078602  0.79796128  1
  F  F466  1  0.95407720  0.49753619  0.29571512  1
  F  F467  1  0.95535075  0.49998373  0.79902937  1
  F  F468  1  0.12085087  0.25617965  0.29824890  1
  F  F469  1  0.12069906  0.24946033  0.79800882  1
  F  F470  1  0.11922441  0.74659713  0.29537750  1
  F  F471  1  0.12238628  0.74897052  0.79843231  1
  F  F472  1  0.47023929  0.24545124  0.30829258  1
  F  F473  1  0.45607485  0.24943183  0.79720833  1
  F  F474  1  0.44993947  0.75937419  0.30212636  1
  F  F475  1  0.45720067  0.75081323  0.79767871  1
  F  F476  1  0.78945686  0.25112028  0.29551948  1
  F  F477  1  0.78063384  0.23857074  0.79998523  1
  F  F478  1  0.79255463  0.74771020  0.29597251  1
  F  F479  1  0.78695942  0.75012137  0.79584372  1
