# generated using pymatgen
data_K24Na3Li5Mg64Fe17Si79(O5F)48
_symmetry_space_group_name_H-M   'P 1'
_cell_length_a   16.08156443
_cell_length_b   18.58224937
_cell_length_c   20.54140006
_cell_angle_alpha   89.99514444
_cell_angle_beta   100.02146168
_cell_angle_gamma   90.00735213
_symmetry_Int_Tables_number   1
_chemical_formula_structural   K24Na3Li5Mg64Fe17Si79(O5F)48
_chemical_formula_sum   'K24 Na3 Li5 Mg64 Fe17 Si79 O240 F48'
_cell_volume   6044.76412359
_cell_formula_units_Z   1
loop_
 _symmetry_equiv_pos_site_id
 _symmetry_equiv_pos_as_xyz
  1  'x, y, z'
loop_
 _atom_site_type_symbol
 _atom_site_label
 _atom_site_symmetry_multiplicity
 _atom_site_fract_x
 _atom_site_fract_y
 _atom_site_fract_z
 _atom_site_occupancy
  K  K0  1  0.00276183  0.00279531  -0.00060768  1
  K  K1  1  0.00638508  0.00551136  0.49729577  1
  K  K2  1  -0.00325978  0.49932012  -0.00521805  1
  K  K3  1  0.00871029  0.50421188  0.50998136  1
  K  K4  1  0.32627156  -0.00328881  -0.00203255  1
  K  K5  1  0.33562698  0.00811353  0.50159984  1
  K  K6  1  0.33432520  0.49828824  -0.00581956  1
  K  K7  1  0.33971652  0.50473911  0.51042333  1
  K  K8  1  0.66695728  -0.00196559  -0.00128165  1
  K  K9  1  0.67314720  -0.00158983  0.50958931  1
  K  K10  1  0.66143775  0.50555158  -0.00891374  1
  K  K11  1  0.66331153  0.50241323  0.50678509  1
  K  K12  1  0.16070885  0.24629694  0.00322212  1
  K  K13  1  0.16201017  0.24288538  0.50006159  1
  K  K14  1  0.16357567  0.74569343  -0.00766098  1
  K  K15  1  0.15813516  0.74811794  0.50674349  1
  K  K16  1  0.50334329  0.24534421  -0.00188755  1
  K  K17  1  0.50248877  0.25019660  0.50521120  1
  K  K18  1  0.49461826  0.74816270  -0.00615253  1
  K  K19  1  0.50551231  0.75282086  0.51498859  1
  K  K20  1  0.82794951  0.24564379  -0.00182855  1
  K  K21  1  0.84200267  0.25051961  0.50292662  1
  K  K22  1  0.82758182  0.74491077  -0.00462493  1
  K  K23  1  0.84315941  0.74724884  0.51311784  1
  Na  Na24  1  -0.00078466  0.74672931  0.75846853  1
  Na  Na25  1  0.66541424  0.08214101  0.24284992  1
  Na  Na26  1  0.16667647  0.16916961  0.25107292  1
  Li  Li27  1  0.49628946  0.49949249  0.24951709  1
  Li  Li28  1  0.66656918  0.75609710  0.75573277  1
  Li  Li29  1  0.33555958  0.58710990  0.75445798  1
  Li  Li30  1  0.00420538  0.58606409  0.75351786  1
  Li  Li31  1  0.66786363  0.90845563  0.75860609  1
  Mg  Mg32  1  0.50318603  -0.00063347  0.24708683  1
  Mg  Mg33  1  0.82922308  -0.00196160  0.75082764  1
  Mg  Mg34  1  -0.00095532  0.75101723  0.25649122  1
  Mg  Mg35  1  0.16555732  -0.00352233  0.75176944  1
  Mg  Mg36  1  0.16640630  0.49919758  0.24983703  1
  Mg  Mg37  1  0.16779886  0.00265457  0.25242358  1
  Mg  Mg38  1  0.66583071  0.74943067  0.25114955  1
  Mg  Mg39  1  0.00283612  0.25226748  0.74578298  1
  Mg  Mg40  1  0.50244712  -0.00333244  0.74927854  1
  Mg  Mg41  1  0.16949871  0.50329207  0.74684553  1
  Mg  Mg42  1  0.83168646  0.50144700  0.25361125  1
  Mg  Mg43  1  0.66587889  0.25041107  0.24800112  1
  Mg  Mg44  1  0.33366890  0.74876263  0.25185478  1
  Mg  Mg45  1  0.83348027  -0.00016609  0.24760975  1
  Mg  Mg46  1  0.83752802  0.50487476  0.75014508  1
  Mg  Mg47  1  0.33282583  0.25148070  0.24775307  1
  Mg  Mg48  1  0.33189267  0.74833423  0.75462937  1
  Mg  Mg49  1  0.66851523  0.24901438  0.74511328  1
  Mg  Mg50  1  0.49888315  0.50148776  0.74413280  1
  Mg  Mg51  1  -0.00022017  0.25005338  0.24986945  1
  Mg  Mg52  1  0.33512400  0.24905862  0.74180550  1
  Mg  Mg53  1  0.50036695  0.16610738  0.24595840  1
  Mg  Mg54  1  -0.00054147  0.58613046  0.25603834  1
  Mg  Mg55  1  0.33620196  0.41879494  0.74274338  1
  Mg  Mg56  1  0.82808055  0.83207679  0.75492946  1
  Mg  Mg57  1  0.66214704  0.58227174  0.25461423  1
  Mg  Mg58  1  0.83142327  0.66867185  0.74984031  1
  Mg  Mg59  1  0.33314433  0.58149215  0.25013508  1
  Mg  Mg60  1  0.50081291  0.33511771  0.74228008  1
  Mg  Mg61  1  0.49805312  0.66375705  0.25189401  1
  Mg  Mg62  1  0.00067339  0.08447033  0.25019029  1
  Mg  Mg63  1  0.33449649  0.91551689  0.25156921  1
  Mg  Mg64  1  0.67084203  0.07985551  0.74747874  1
  Mg  Mg65  1  0.16783818  0.66445387  0.75524948  1
  Mg  Mg66  1  0.50415694  0.83359326  0.75206560  1
  Mg  Mg67  1  0.66185029  0.41828274  0.25006169  1
  Mg  Mg68  1  0.33401620  0.08473706  0.25071916  1
  Mg  Mg69  1  0.50034463  0.16449966  0.74494018  1
  Mg  Mg70  1  0.83231606  0.16567142  0.24743462  1
  Mg  Mg71  1  0.83373237  0.66621632  0.25667846  1
  Mg  Mg72  1  -0.00111988  0.41618573  0.24811111  1
  Mg  Mg73  1  -0.00077314  0.91311598  0.75614502  1
  Mg  Mg74  1  0.33231491  0.41759681  0.24677245  1
  Mg  Mg75  1  0.49828955  0.33678758  0.24772247  1
  Mg  Mg76  1  0.33523265  0.91378558  0.75227906  1
  Mg  Mg77  1  0.16689425  0.83462320  0.25374865  1
  Mg  Mg78  1  0.66551396  0.58757784  0.74992056  1
  Mg  Mg79  1  0.16475325  0.33510609  0.24552112  1
  Mg  Mg80  1  0.33495858  0.08271883  0.74584295  1
  Mg  Mg81  1  0.00357949  0.41939142  0.74376378  1
  Mg  Mg82  1  0.66679206  0.41760007  0.74436675  1
  Mg  Mg83  1  0.16671616  0.83215927  0.75532030  1
  Mg  Mg84  1  0.16733613  0.16470246  0.74561727  1
  Mg  Mg85  1  0.16808330  0.33525042  0.74306355  1
  Mg  Mg86  1  0.50011012  0.83391947  0.24963310  1
  Mg  Mg87  1  0.82936075  0.33518453  0.24827213  1
  Mg  Mg88  1  0.83245407  0.83505684  0.25228464  1
  Mg  Mg89  1  0.16565170  0.66508713  0.25385496  1
  Mg  Mg90  1  0.00018725  0.91692490  0.25473132  1
  Mg  Mg91  1  0.66474999  0.91535758  0.24888622  1
  Mg  Mg92  1  0.00124425  0.08398573  0.75149625  1
  Mg  Mg93  1  0.83583423  0.16522741  0.75031954  1
  Mg  Mg94  1  0.83568922  0.33639493  0.74352006  1
  Mg  Mg95  1  0.49909466  0.66754790  0.74942394  1
  Fe  Fe96  1  0.14564196  0.08502962  0.39356080  1
  Fe  Fe97  1  0.30334988  0.83196516  0.89444627  1
  Fe  Fe98  1  0.18847801  0.41587005  0.10798688  1
  Fe  Fe99  1  0.97422595  0.66565012  0.39745504  1
  Fe  Fe100  1  0.02069142  0.16232168  0.10970959  1
  Fe  Fe101  1  0.02961781  0.33559962  0.60481300  1
  Fe  Fe102  1  0.52552437  0.91462677  0.10860819  1
  Fe  Fe103  1  0.69159293  0.17313050  0.10755044  1
  Fe  Fe104  1  0.52683742  0.41821367  0.60431668  1
  Fe  Fe105  1  0.85794449  0.91333003  0.11368791  1
  Fe  Fe106  1  0.35526142  0.16430996  0.60459660  1
  Fe  Fe107  1  0.47495522  0.57996827  0.88572617  1
  Fe  Fe108  1  0.13309510  0.91982121  0.89477109  1
  Fe  Fe109  1  0.80533200  0.91241984  0.89181298  1
  Fe  Fe110  1  0.47656298  0.91896157  0.89120194  1
  Fe  Fe111  1  0.97610915  0.65967942  0.89110193  1
  Fe  Fe112  1  0.81125236  0.08379699  0.89103204  1
  Si  Si113  1  0.68657521  0.66248791  0.11904155  1
  Si  Si114  1  0.86237399  0.07867043  0.61426240  1
  Si  Si115  1  0.63740887  0.66842572  0.38876258  1
  Si  Si116  1  0.85966083  0.91385497  0.61599637  1
  Si  Si117  1  0.47423560  0.58360138  0.38618293  1
  Si  Si118  1  0.85725042  0.42343943  0.11488997  1
  Si  Si119  1  0.69320469  0.83436219  0.61741754  1
  Si  Si120  1  0.97143380  0.33699889  0.38437028  1
  Si  Si121  1  0.18794411  0.07492758  0.61157137  1
  Si  Si122  1  0.18596811  0.58571602  0.11501373  1
  Si  Si123  1  0.14476853  0.57677792  0.88752427  1
  Si  Si124  1  0.02437431  0.16264973  0.61041063  1
  Si  Si125  1  0.52072284  0.58291839  0.11832199  1
  Si  Si126  1  0.69535086  0.82577217  0.11478242  1
  Si  Si127  1  0.85446229  0.58564253  0.61353120  1
  Si  Si128  1  0.02599812  0.66377403  0.61849310  1
  Si  Si129  1  0.03125830  0.83670370  0.11850152  1
  Si  Si130  1  0.35798070  0.67349991  0.61456777  1
  Si  Si131  1  0.14574756  0.57849358  0.39071083  1
  Si  Si132  1  0.85553405  0.08008224  0.11179721  1
  Si  Si133  1  0.47400472  0.91479301  0.38734181  1
  Si  Si134  1  0.14347486  0.09103929  0.88634145  1
  Si  Si135  1  0.14855974  0.41539100  0.88069768  1
  Si  Si136  1  0.19292962  0.58975544  0.61493525  1
  Si  Si137  1  0.63781396  0.16662394  0.88101629  1
  Si  Si138  1  0.31209259  0.33543408  0.38453543  1
  Si  Si139  1  0.14633705  0.91405650  0.39198921  1
  Si  Si140  1  0.69886535  0.16425421  0.61166724  1
  Si  Si141  1  0.31113710  0.33140386  0.87849499  1
  Si  Si142  1  0.63841917  0.16747143  0.38404770  1
  Si  Si143  1  0.97753100  0.17644468  0.88464493  1
  Si  Si144  1  0.02468917  0.83035053  0.61754953  1
  Si  Si145  1  0.64207978  0.83371706  0.38842657  1
  Si  Si146  1  0.52442023  0.59019369  0.60883927  1
  Si  Si147  1  0.47789207  0.08116277  0.38529768  1
  Si  Si148  1  0.36133582  0.33405424  0.11049569  1
  Si  Si149  1  0.97435005  0.83766429  0.39370495  1
  Si  Si150  1  0.02436994  0.67211078  0.11957711  1
  Si  Si151  1  0.19822742  0.42389295  0.60777694  1
  Si  Si152  1  0.30901307  0.16800919  0.88022199  1
  Si  Si153  1  0.01548978  0.33240321  0.10867415  1
  Si  Si154  1  0.64428951  0.32950929  0.87937526  1
  Si  Si155  1  0.85757837  0.58813602  0.11872399  1
  Si  Si156  1  0.80379276  0.58111242  0.88778051  1
  Si  Si157  1  0.35857008  0.83685603  0.61301456  1
  Si  Si158  1  0.31938187  0.17141991  0.38747745  1
  Si  Si159  1  0.31003200  0.82903327  0.38866694  1
  Si  Si160  1  0.19839597  0.08000579  0.11364823  1
  Si  Si161  1  0.51795103  0.08346522  0.10846796  1
  Si  Si162  1  0.47409901  0.41885101  0.38340462  1
  Si  Si163  1  0.85978437  0.42124673  0.60806811  1
  Si  Si164  1  0.31027561  0.66313588  0.38800885  1
  Si  Si165  1  0.19801728  0.91466317  0.11846471  1
  Si  Si166  1  0.80679000  0.08597179  0.38516738  1
  Si  Si167  1  0.96847437  0.83153919  0.89199796  1
  Si  Si168  1  0.35585418  0.33427812  0.60545998  1
  Si  Si169  1  0.53129296  0.08202179  0.60895873  1
  Si  Si170  1  0.47901884  0.41121635  0.88259912  1
  Si  Si171  1  0.35902641  0.82737924  0.11614772  1
  Si  Si172  1  0.35961169  0.16794752  0.11304331  1
  Si  Si173  1  0.68832514  0.34355856  0.11086958  1
  Si  Si174  1  0.63670262  0.82894196  0.88919404  1
  Si  Si175  1  0.69300599  0.67020317  0.61420649  1
  Si  Si176  1  0.80545297  0.92034931  0.38852946  1
  Si  Si177  1  0.30716633  0.66160977  0.89075747  1
  Si  Si178  1  0.80244165  0.41495930  0.38573239  1
  Si  Si179  1  0.69829365  0.33092878  0.60703376  1
  Si  Si180  1  0.97018382  0.17002426  0.38927931  1
  Si  Si181  1  0.80026719  0.58035777  0.39198190  1
  Si  Si182  1  0.47603030  0.08796043  0.88267119  1
  Si  Si183  1  0.18849967  0.91106976  0.61474340  1
  Si  Si184  1  0.64013987  0.66599770  0.88632892  1
  Si  Si185  1  0.52678156  0.91591300  0.61340110  1
  Si  Si186  1  0.97859309  0.34033660  0.88010633  1
  Si  Si187  1  0.80795239  0.41538315  0.88097352  1
  Si  Si188  1  0.14256965  0.41261907  0.38461200  1
  Si  Si189  1  0.35427791  0.66437528  0.11713125  1
  Si  Si190  1  0.52415119  0.41952361  0.11540529  1
  Si  Si191  1  0.63728533  0.33103627  0.38494400  1
  O  O192  1  0.28208949  0.11250136  0.08489382  1
  O  O193  1  0.26337131  0.10230943  0.57539048  1
  O  O194  1  0.27228330  0.61414815  0.08892191  1
  O  O195  1  0.26859376  0.63152652  0.58346274  1
  O  O196  1  0.59960523  0.11088632  0.07877454  1
  O  O197  1  0.61382235  0.11811195  0.58126535  1
  O  O198  1  0.60556188  0.60998648  0.08966439  1
  O  O199  1  0.60150906  0.63344441  0.58002169  1
  O  O200  1  0.94279315  0.08931990  0.08235124  1
  O  O201  1  0.93981694  0.11323163  0.58213129  1
  O  O202  1  0.93815598  0.62491338  0.09173919  1
  O  O203  1  0.93693089  0.62089571  0.58620957  1
  O  O204  1  0.09470625  0.35848323  0.07473571  1
  O  O205  1  0.11894991  0.37765918  0.56967119  1
  O  O206  1  0.12032610  0.85879297  0.09326263  1
  O  O207  1  0.10443199  0.86222164  0.58411027  1
  O  O208  1  0.44922665  0.36201207  0.08502032  1
  O  O209  1  0.43616869  0.35746894  0.57164745  1
  O  O210  1  0.44003162  0.84523609  0.08361490  1
  O  O211  1  0.43524905  0.87644620  0.58094810  1
  O  O212  1  0.77059762  0.38029307  0.08437494  1
  O  O213  1  0.77946714  0.36739280  0.57985930  1
  O  O214  1  0.78388173  0.83564657  0.08874853  1
  O  O215  1  0.76937730  0.87440941  0.58424369  1
  O  O216  1  0.28575362  0.38514686  0.07487543  1
  O  O217  1  0.28321990  0.39651506  0.58082100  1
  O  O218  1  0.28063927  0.88307923  0.09119261  1
  O  O219  1  0.26900854  0.87912108  0.58281212  1
  O  O220  1  0.60971805  0.40076506  0.08518034  1
  O  O221  1  0.61592116  0.37305894  0.56986364  1
  O  O222  1  0.62449520  0.88254036  0.08133327  1
  O  O223  1  0.60246406  0.87361684  0.58267931  1
  O  O224  1  0.93661587  0.39134265  0.08473865  1
  O  O225  1  0.93607682  0.39455372  0.57211890  1
  O  O226  1  0.96055781  0.89215223  0.08503460  1
  O  O227  1  0.93626157  0.87355970  0.58488020  1
  O  O228  1  0.12120689  0.13069253  0.08063326  1
  O  O229  1  0.10191345  0.12138391  0.58296289  1
  O  O230  1  0.10688999  0.64237281  0.09073199  1
  O  O231  1  0.10284160  0.63017357  0.58231356  1
  O  O232  1  0.44141391  0.14323857  0.08167643  1
  O  O233  1  0.44967215  0.12584239  0.57174724  1
  O  O234  1  0.43842157  0.63430452  0.08953052  1
  O  O235  1  0.43555174  0.63613863  0.58258188  1
  O  O236  1  0.79189824  0.14506034  0.08072775  1
  O  O237  1  0.77630818  0.12395730  0.58245278  1
  O  O238  1  0.77012945  0.63250706  0.09023695  1
  O  O239  1  0.76912771  0.63214677  0.58019247  1
  O  O240  1  0.05514235  0.13117823  0.42629144  1
  O  O241  1  0.06428916  0.13123592  0.91308764  1
  O  O242  1  0.07402039  0.61228334  0.42735313  1
  O  O243  1  0.06521784  0.59405030  0.92328999  1
  O  O244  1  0.40590988  0.12414480  0.41719487  1
  O  O245  1  0.38938511  0.11650101  0.90941428  1
  O  O246  1  0.39570521  0.61737044  0.41847825  1
  O  O247  1  0.37902321  0.60278357  0.92134741  1
  O  O248  1  0.72915752  0.12840876  0.41230375  1
  O  O249  1  0.70819531  0.11249080  0.91780296  1
  O  O250  1  0.71962483  0.61946849  0.41857891  1
  O  O251  1  0.71902505  0.60967766  0.91485701  1
  O  O252  1  0.22757557  0.36453176  0.41242966  1
  O  O253  1  0.22801131  0.36027444  0.90820868  1
  O  O254  1  0.22902349  0.85993700  0.41824807  1
  O  O255  1  0.21435060  0.85727562  0.93575372  1
  O  O256  1  0.56084618  0.37330026  0.41344550  1
  O  O257  1  0.56048904  0.35634816  0.90828801  1
  O  O258  1  0.56304552  0.87237215  0.41738203  1
  O  O259  1  0.55221576  0.84459041  0.92142050  1
  O  O260  1  0.89563364  0.37985419  0.41384842  1
  O  O261  1  0.89709221  0.37269078  0.91018511  1
  O  O262  1  0.89764033  0.88469217  0.41926421  1
  O  O263  1  0.88168205  0.83884147  0.92254431  1
  O  O264  1  0.06173165  0.37765833  0.41345151  1
  O  O265  1  0.06267711  0.38929423  0.90863289  1
  O  O266  1  0.06421650  0.88012547  0.42035268  1
  O  O267  1  0.03344809  0.89534507  0.92403166  1
  O  O268  1  0.39290555  0.38812443  0.41436069  1
  O  O269  1  0.39511951  0.37815941  0.91008882  1
  O  O270  1  0.39712139  0.87465153  0.41816255  1
  O  O271  1  0.38290515  0.89998864  0.92822575  1
  O  O272  1  0.72936168  0.36834588  0.41450968  1
  O  O273  1  0.72887061  0.37737235  0.90981343  1
  O  O274  1  0.72939802  0.87771542  0.41912037  1
  O  O275  1  0.70770451  0.88593739  0.92407192  1
  O  O276  1  0.24371173  0.14152039  0.42189995  1
  O  O277  1  0.22609379  0.14432879  0.91117597  1
  O  O278  1  0.23400048  0.62401550  0.41794033  1
  O  O279  1  0.22132271  0.63208789  0.91821708  1
  O  O280  1  0.56857446  0.11978133  0.41579089  1
  O  O281  1  0.54579374  0.15317786  0.90458642  1
  O  O282  1  0.55708881  0.63294336  0.41721515  1
  O  O283  1  0.56427608  0.64075049  0.92432536  1
  O  O284  1  0.89152687  0.13082848  0.41955363  1
  O  O285  1  0.89897266  0.15287369  0.91826250  1
  O  O286  1  0.88515371  0.61825027  0.42942911  1
  O  O287  1  0.88300208  0.62423022  0.92876407  1
  O  O288  1  0.18214509  -0.00455541  0.08644641  1
  O  O289  1  0.16542273  -0.00807660  0.58488134  1
  O  O290  1  0.15855242  0.51044938  0.07928358  1
  O  O291  1  0.18615985  0.50856908  0.58180817  1
  O  O292  1  0.48582413  0.00555496  0.07793677  1
  O  O293  1  0.52462830  -0.00228154  0.58082344  1
  O  O294  1  0.49639672  0.50166498  0.08904708  1
  O  O295  1  0.51299234  0.51354341  0.57027686  1
  O  O296  1  0.81184977  0.00295968  0.08765307  1
  O  O297  1  0.85005405  -0.00371720  0.58429091  1
  O  O298  1  0.84468781  0.50692261  0.08746149  1
  O  O299  1  0.83622441  0.50430279  0.58098323  1
  O  O300  1  -0.01688432  0.25521794  0.07783533  1
  O  O301  1  0.00920658  0.23980977  0.57383384  1
  O  O302  1  0.00727291  0.75371487  0.09163862  1
  O  O303  1  0.01093590  0.74719473  0.58898958  1
  O  O304  1  0.33957136  0.25053442  0.08443423  1
  O  O305  1  0.32041496  0.25712050  0.57465960  1
  O  O306  1  0.32805522  0.74539409  0.09090755  1
  O  O307  1  0.34860744  0.75505561  0.58043105  1
  O  O308  1  0.66509930  0.26856790  0.07334183  1
  O  O309  1  0.69277870  0.24602333  0.57997060  1
  O  O310  1  0.66135298  0.74258363  0.09116605  1
  O  O311  1  0.68641073  0.75283476  0.58389732  1
  O  O312  1  0.16819552  -0.00979712  0.42838626  1
  O  O313  1  0.16276644  0.01592117  0.92399640  1
  O  O314  1  0.16218069  0.49399469  0.41558999  1
  O  O315  1  0.17677141  0.49356975  0.91302655  1
  O  O316  1  0.48220539  -0.00206273  0.41539050  1
  O  O317  1  0.50969403  0.01474052  0.91903424  1
  O  O318  1  0.49174621  0.50102976  0.41347409  1
  O  O319  1  0.50401247  0.48582741  0.92045287  1
  O  O320  1  0.80804340  0.00357998  0.41735891  1
  O  O321  1  0.84664231  -0.00130091  0.93066686  1
  O  O322  1  0.79856041  0.49575373  0.41684982  1
  O  O323  1  0.81605431  0.49549446  0.91365652  1
  O  O324  1  0.33902620  0.25543787  0.41436142  1
  O  O325  1  0.33203056  0.24997605  0.90813819  1
  O  O326  1  0.32521045  0.74586521  0.41671925  1
  O  O327  1  0.33307716  0.73830260  0.92681857  1
  O  O328  1  0.64104898  0.24937332  0.41659512  1
  O  O329  1  0.66592061  0.24879320  0.90834303  1
  O  O330  1  0.65062635  0.75088346  0.41872781  1
  O  O331  1  0.67106884  0.74637032  0.91377463  1
  O  O332  1  0.97268034  0.25558761  0.41507729  1
  O  O333  1  1.00143660  0.26008912  0.91010168  1
  O  O334  1  0.98030181  0.76072017  0.43135266  1
  O  O335  1  1.01061582  0.75349279  0.91691361  1
  O  O336  1  0.21888115  0.07590079  0.19373596  1
  O  O337  1  0.20796044  0.08034744  0.69233585  1
  O  O338  1  0.20687328  0.58494231  0.19664964  1
  O  O339  1  0.20985015  0.58633872  0.69402069  1
  O  O340  1  0.52997889  0.08341976  0.18953548  1
  O  O341  1  0.54543691  0.08378284  0.68934639  1
  O  O342  1  0.54249281  0.58551097  0.19820804  1
  O  O343  1  0.54488673  0.58510252  0.68878804  1
  O  O344  1  0.87528405  0.08298979  0.19459079  1
  O  O345  1  0.88112344  0.08416939  0.69383115  1
  O  O346  1  0.87428121  0.58457575  0.19929249  1
  O  O347  1  0.86806802  0.58367500  0.69229276  1
  O  O348  1  0.03783597  0.33651788  0.19062160  1
  O  O349  1  0.04656657  0.33354600  0.69620382  1
  O  O350  1  0.04625475  0.83283915  0.20035088  1
  O  O351  1  0.04551615  0.83812813  0.69597831  1
  O  O352  1  0.37752986  0.33572226  0.19159558  1
  O  O353  1  0.37693921  0.33272365  0.68722308  1
  O  O354  1  0.37636741  0.82968270  0.19793186  1
  O  O355  1  0.37590735  0.83443546  0.69232121  1
  O  O356  1  0.70728465  0.34040152  0.19231801  1
  O  O357  1  0.71248861  0.33297531  0.68802673  1
  O  O358  1  0.70913714  0.82798409  0.19718209  1
  O  O359  1  0.71006156  0.83508192  0.69543041  1
  O  O360  1  0.21026423  0.41933379  0.20013625  1
  O  O361  1  0.21157602  0.41765054  0.68829159  1
  O  O362  1  0.21331372  0.91543143  0.19970936  1
  O  O363  1  0.20989382  0.91436756  0.69433903  1
  O  O364  1  0.54369256  0.41641990  0.19528618  1
  O  O365  1  0.54744641  0.41680069  0.69565319  1
  O  O366  1  0.54381489  0.91385172  0.20145100  1
  O  O367  1  0.53986950  0.91625356  0.69204088  1
  O  O368  1  0.87396881  0.42111311  0.19581689  1
  O  O369  1  0.87731464  0.41839690  0.68883154  1
  O  O370  1  0.88116589  0.91367452  0.20635294  1
  O  O371  1  0.87876451  0.91646568  0.69534288  1
  O  O372  1  0.03285193  0.16853579  0.19989060  1
  O  O373  1  0.04283485  0.16591472  0.69143149  1
  O  O374  1  0.04343869  0.66781721  0.20036105  1
  O  O375  1  0.05057766  0.65980478  0.69627310  1
  O  O376  1  0.37651284  0.16816645  0.19391276  1
  O  O377  1  0.37887820  0.16499098  0.69610912  1
  O  O378  1  0.37476893  0.66497256  0.19804529  1
  O  O379  1  0.37616569  0.67372678  0.69342522  1
  O  O380  1  0.71579701  0.17848356  0.19817761  1
  O  O381  1  0.71372978  0.16864961  0.69145938  1
  O  O382  1  0.70817852  0.66248012  0.20006524  1
  O  O383  1  0.71034282  0.66268079  0.69288675  1
  O  O384  1  0.11877537  0.07590515  0.30433434  1
  O  O385  1  0.12483041  0.08668048  0.80495835  1
  O  O386  1  0.12503057  0.58251436  0.30956654  1
  O  O387  1  0.12956535  0.57843422  0.80742102  1
  O  O388  1  0.45963873  0.08179244  0.30507171  1
  O  O389  1  0.45730814  0.08372977  0.80159344  1
  O  O390  1  0.45320859  0.58702114  0.30684845  1
  O  O391  1  0.45811319  0.58106565  0.79504765  1
  O  O392  1  0.79851694  0.08245361  0.30650229  1
  O  O393  1  0.79077369  0.08562962  0.79824797  1
  O  O394  1  0.78722539  0.58305556  0.31086725  1
  O  O395  1  0.78762218  0.58118458  0.80698307  1
  O  O396  1  0.29314882  0.33527858  0.30431921  1
  O  O397  1  0.29245903  0.33230812  0.79795652  1
  O  O398  1  0.29254571  0.83100226  0.30819269  1
  O  O399  1  0.28965380  0.83366985  0.80153157  1
  O  O400  1  0.62141674  0.33394171  0.30467920  1
  O  O401  1  0.62734867  0.33203653  0.79900066  1
  O  O402  1  0.62387512  0.83031226  0.30847966  1
  O  O403  1  0.61844376  0.83212291  0.80918543  1
  O  O404  1  0.95308351  0.33801128  0.30403485  1
  O  O405  1  0.95707769  0.33665756  0.79988385  1
  O  O406  1  0.95774712  0.83231444  0.31302966  1
  O  O407  1  0.94905853  0.84010656  0.81109303  1
  O  O408  1  0.12092927  0.41769633  0.30437768  1
  O  O409  1  0.12882279  0.41569067  0.80063785  1
  O  O410  1  0.12751980  0.91378329  0.31098629  1
  O  O411  1  0.12165361  0.91767740  0.80210438  1
  O  O412  1  0.45406140  0.41555785  0.30385832  1
  O  O413  1  0.45834956  0.41325139  0.80187194  1
  O  O414  1  0.45464705  0.91255330  0.30753287  1
  O  O415  1  0.45537368  0.91769938  0.79877198  1
  O  O416  1  0.78618973  0.41734736  0.30518673  1
  O  O417  1  0.79073284  0.41549446  0.80048354  1
  O  O418  1  0.78641072  0.91513716  0.30891435  1
  O  O419  1  0.78816307  0.91900257  0.80093211  1
  O  O420  1  0.30494781  0.16913924  0.30745098  1
  O  O421  1  0.28925208  0.16709808  0.79971110  1
  O  O422  1  0.29081596  0.66469946  0.30751898  1
  O  O423  1  0.29019823  0.66668710  0.81005373  1
  O  O424  1  0.61624227  0.17354054  0.30515563  1
  O  O425  1  0.62413071  0.16711541  0.79967253  1
  O  O426  1  0.62115462  0.66737741  0.30840312  1
  O  O427  1  0.61900175  0.66164664  0.80616188  1
  O  O428  1  0.95300652  0.16958719  0.30888209  1
  O  O429  1  0.95986516  0.17158165  0.80321309  1
  O  O430  1  0.95500736  0.66620494  0.30556282  1
  O  O431  1  0.94566345  0.65311402  0.80386143  1
  F  F432  1  0.04749511  -0.00527026  0.20485377  1
  F  F433  1  0.04475579  0.00287159  0.70178010  1
  F  F434  1  0.04243134  0.50400249  0.20499586  1
  F  F435  1  0.05127691  0.49559549  0.69559687  1
  F  F436  1  0.37934536  -0.00224844  0.20577099  1
  F  F437  1  0.37751312  -0.00003335  0.69776230  1
  F  F438  1  0.37391132  0.50194201  0.20110162  1
  F  F439  1  0.38356082  0.49169756  0.69043270  1
  F  F440  1  0.71622223  -0.01196836  0.20095732  1
  F  F441  1  0.71749729  0.01043499  0.68900213  1
  F  F442  1  0.71136866  0.50277674  0.20439200  1
  F  F443  1  0.71391520  0.50096297  0.70020251  1
  F  F444  1  0.21715896  0.26017005  0.19780971  1
  F  F445  1  0.21128666  0.24866954  0.69641946  1
  F  F446  1  0.21174304  0.74888885  0.20740003  1
  F  F447  1  0.21121613  0.74824105  0.70175781  1
  F  F448  1  0.54389626  0.25318198  0.19991062  1
  F  F449  1  0.54773423  0.24925069  0.69600807  1
  F  F450  1  0.54396309  0.74698258  0.20548731  1
  F  F451  1  0.53848170  0.75032553  0.69882951  1
  F  F452  1  0.87706429  0.25475682  0.20480871  1
  F  F453  1  0.88016897  0.25003791  0.69826454  1
  F  F454  1  0.87798719  0.74884208  0.20795087  1
  F  F455  1  0.86502677  0.75245200  0.69711941  1
  F  F456  1  0.29210138  -0.00104195  0.30202907  1
  F  F457  1  0.28806650  0.00209118  0.79483986  1
  F  F458  1  0.28828757  0.50206462  0.30100890  1
  F  F459  1  0.28919727  0.49339710  0.79349673  1
  F  F460  1  0.61763011  -0.00821542  0.30431824  1
  F  F461  1  0.62083047  0.00407463  0.79355188  1
  F  F462  1  0.62474126  0.49944346  0.30260763  1
  F  F463  1  0.62318995  0.49959995  0.79481649  1
  F  F464  1  0.95541128  0.00154557  0.30194010  1
  F  F465  1  0.95478920  0.00340114  0.79708199  1
  F  F466  1  0.95330489  0.49967302  0.30072144  1
  F  F467  1  0.95400110  0.49134761  0.79657520  1
  F  F468  1  0.11583676  0.26563232  0.30143135  1
  F  F469  1  0.12526900  0.24932937  0.79401724  1
  F  F470  1  0.12358746  0.74911861  0.30355116  1
  F  F471  1  0.13474322  0.74851361  0.80442268  1
  F  F472  1  0.45547710  0.25229394  0.29492883  1
  F  F473  1  0.45700872  0.25257276  0.79158265  1
  F  F474  1  0.45491604  0.74889049  0.30119516  1
  F  F475  1  0.45341684  0.74999183  0.79787199  1
  F  F476  1  0.78616397  0.25770984  0.30177842  1
  F  F477  1  0.79019530  0.25365059  0.79289153  1
  F  F478  1  0.78584901  0.74919293  0.30270491  1
  F  F479  1  0.78780167  0.74699775  0.79982534  1
