# generated using pymatgen
data_K24Na3Li5Mg64Fe17Si79(O5F)48
_symmetry_space_group_name_H-M   'P 1'
_cell_length_a   16.07851759
_cell_length_b   18.56448117
_cell_length_c   20.53743116
_cell_angle_alpha   89.99540503
_cell_angle_beta   100.00784382
_cell_angle_gamma   90.00602022
_symmetry_Int_Tables_number   1
_chemical_formula_structural   K24Na3Li5Mg64Fe17Si79(O5F)48
_chemical_formula_sum   'K24 Na3 Li5 Mg64 Fe17 Si79 O240 F48'
_cell_volume   6036.92680230
_cell_formula_units_Z   1
loop_
 _symmetry_equiv_pos_site_id
 _symmetry_equiv_pos_as_xyz
  1  'x, y, z'
loop_
 _atom_site_type_symbol
 _atom_site_label
 _atom_site_symmetry_multiplicity
 _atom_site_fract_x
 _atom_site_fract_y
 _atom_site_fract_z
 _atom_site_occupancy
  K  K0  1  0.00784135  -0.00414233  0.00286356  1
  K  K1  1  0.00399433  -0.00432535  0.49547366  1
  K  K2  1  -0.00453451  0.49552738  -0.00282426  1
  K  K3  1  0.00236290  0.50656104  0.49977233  1
  K  K4  1  0.32815621  -0.00311871  0.00266655  1
  K  K5  1  0.32359340  -0.00437841  0.49585921  1
  K  K6  1  0.33713718  0.50198500  0.00449482  1
  K  K7  1  0.32175146  0.50753758  0.49396264  1
  K  K8  1  0.67195501  -0.00840786  0.00680883  1
  K  K9  1  0.66312864  -0.00311827  0.49557237  1
  K  K10  1  0.66710121  0.49666812  0.00301533  1
  K  K11  1  0.67230093  0.49691034  0.49662933  1
  K  K12  1  0.15737573  0.25225678  -0.00454438  1
  K  K13  1  0.16501155  0.24610402  0.49856696  1
  K  K14  1  0.17274962  0.75039148  0.01112702  1
  K  K15  1  0.17803438  0.74538681  0.49588588  1
  K  K16  1  0.50356030  0.25560123  0.00361237  1
  K  K17  1  0.50642079  0.25685773  0.49910837  1
  K  K18  1  0.50813422  0.74943744  0.00293003  1
  K  K19  1  0.49961477  0.74866165  0.49474257  1
  K  K20  1  0.83357972  0.25992871  -0.00519931  1
  K  K21  1  0.82854665  0.24836156  0.50463398  1
  K  K22  1  0.82853645  0.75116126  0.01190972  1
  K  K23  1  0.82987289  0.75265949  0.49623112  1
  Na  Na24  1  0.49979218  0.50046021  0.25240127  1
  Na  Na25  1  0.83324754  0.33266594  0.75070000  1
  Na  Na26  1  0.49790713  0.67198705  0.74337069  1
  Li  Li27  1  0.33939111  0.74955644  0.74968565  1
  Li  Li28  1  0.32891762  0.74956155  0.25508127  1
  Li  Li29  1  0.83147535  0.67291936  0.24378072  1
  Li  Li30  1  0.83096615  0.82352055  0.24440600  1
  Li  Li31  1  0.17066207  0.82584640  0.25101601  1
  Mg  Mg32  1  0.16589467  0.50232448  0.25268983  1
  Mg  Mg33  1  0.83361397  -0.00224373  0.75094359  1
  Mg  Mg34  1  0.66719783  0.25145671  0.74844801  1
  Mg  Mg35  1  0.17215164  0.50161163  0.75204825  1
  Mg  Mg36  1  0.33277542  0.25234869  0.25497157  1
  Mg  Mg37  1  0.00365608  0.74816917  0.75276933  1
  Mg  Mg38  1  0.83048894  0.50250339  0.24261017  1
  Mg  Mg39  1  -0.00042453  0.25057984  0.75627663  1
  Mg  Mg40  1  0.49815236  0.00088299  0.75155836  1
  Mg  Mg41  1  0.67102133  0.75067886  0.24606562  1
  Mg  Mg42  1  0.83500633  0.49937382  0.75070657  1
  Mg  Mg43  1  0.49845024  -0.00286568  0.24965412  1
  Mg  Mg44  1  0.33332554  0.24960710  0.75307196  1
  Mg  Mg45  1  0.16532501  -0.00422926  0.25372161  1
  Mg  Mg46  1  0.66474922  0.24886413  0.24605198  1
  Mg  Mg47  1  0.83317674  -0.00570212  0.24579833  1
  Mg  Mg48  1  0.16685630  0.00091927  0.75553838  1
  Mg  Mg49  1  0.66734751  0.74982789  0.74400280  1
  Mg  Mg50  1  -0.00440274  0.75004971  0.24692739  1
  Mg  Mg51  1  -0.00146827  0.24886266  0.24973323  1
  Mg  Mg52  1  0.50213382  0.50227639  0.74631306  1
  Mg  Mg53  1  0.83176766  0.16354992  0.24602952  1
  Mg  Mg54  1  0.16748347  0.33504959  0.75526366  1
  Mg  Mg55  1  0.49926173  0.66821669  0.25048193  1
  Mg  Mg56  1  0.66359998  0.91449271  0.74634311  1
  Mg  Mg57  1  0.50014716  0.33446185  0.24997910  1
  Mg  Mg58  1  0.16769214  0.33415795  0.25327959  1
  Mg  Mg59  1  0.00201134  0.91475429  0.75481499  1
  Mg  Mg60  1  0.82908132  0.33333081  0.24251834  1
  Mg  Mg61  1  0.33088750  0.91095454  0.25236720  1
  Mg  Mg62  1  0.32980633  0.08404576  0.75492530  1
  Mg  Mg63  1  0.66600907  0.08228794  0.24691073  1
  Mg  Mg64  1  0.17088048  0.83206876  0.75484016  1
  Mg  Mg65  1  0.83118888  0.66578357  0.74712169  1
  Mg  Mg66  1  0.66458535  0.41486146  0.24342691  1
  Mg  Mg67  1  0.33374703  0.41722969  0.25373555  1
  Mg  Mg68  1  0.33650958  0.58845014  0.74732405  1
  Mg  Mg69  1  0.83183602  0.83275931  0.74785654  1
  Mg  Mg70  1  0.66729234  0.58538822  0.24416291  1
  Mg  Mg71  1  0.33500404  0.41699356  0.74953097  1
  Mg  Mg72  1  0.33559290  0.58629603  0.25256573  1
  Mg  Mg73  1  0.66532328  0.41759555  0.74687373  1
  Mg  Mg74  1  -0.00197631  0.41660779  0.24774622  1
  Mg  Mg75  1  0.16780739  0.16440618  0.25414058  1
  Mg  Mg76  1  0.49788501  0.16646261  0.75215335  1
  Mg  Mg77  1  0.16561373  0.16408365  0.75569541  1
  Mg  Mg78  1  0.33335908  0.08319119  0.25376219  1
  Mg  Mg79  1  0.00014029  0.91184567  0.24899325  1
  Mg  Mg80  1  0.66490533  0.58614437  0.74603035  1
  Mg  Mg81  1  0.49960162  0.83181665  0.24875202  1
  Mg  Mg82  1  0.83308168  0.16538261  0.75455965  1
  Mg  Mg83  1  0.00149233  0.08452952  0.75663088  1
  Mg  Mg84  1  0.50109830  0.16492156  0.25000383  1
  Mg  Mg85  1  0.49689703  0.83412049  0.74981314  1
  Mg  Mg86  1  0.66992207  0.91220239  0.24678393  1
  Mg  Mg87  1  0.17455484  0.66673269  0.75016278  1
  Mg  Mg88  1  -0.00316470  0.58597544  0.24801036  1
  Mg  Mg89  1  0.00121156  0.41649802  0.75443419  1
  Mg  Mg90  1  0.00302249  0.58440209  0.75026333  1
  Mg  Mg91  1  0.00161926  0.08157553  0.24995845  1
  Mg  Mg92  1  0.50073534  0.33536803  0.74739689  1
  Mg  Mg93  1  0.33228465  0.91454594  0.75276590  1
  Mg  Mg94  1  0.16830939  0.67138247  0.24969404  1
  Mg  Mg95  1  0.66527119  0.08384873  0.75036437  1
  Fe  Fe96  1  0.30772408  0.33634514  0.39413800  1
  Fe  Fe97  1  0.47985019  0.41828958  0.39175852  1
  Fe  Fe98  1  0.51737445  0.41627832  0.60651190  1
  Fe  Fe99  1  0.14356705  0.08020806  0.89780192  1
  Fe  Fe100  1  0.69166715  0.66370711  0.60355531  1
  Fe  Fe101  1  0.51915292  0.58346782  0.60492722  1
  Fe  Fe102  1  0.68774672  0.83900961  0.60662309  1
  Fe  Fe103  1  0.68732436  0.33146151  0.10269485  1
  Fe  Fe104  1  0.69092229  0.83287158  0.10391894  1
  Fe  Fe105  1  0.31164308  0.66547371  0.39049797  1
  Fe  Fe106  1  0.64616809  0.83640037  0.38730691  1
  Fe  Fe107  1  0.13792531  0.08246549  0.39118092  1
  Fe  Fe108  1  0.69510194  0.33468737  0.60715953  1
  Fe  Fe109  1  0.18662458  0.08180295  0.61414759  1
  Fe  Fe110  1  0.19823893  0.58445294  0.60996832  1
  Fe  Fe111  1  0.64372847  0.16386283  0.38683706  1
  Fe  Fe112  1  0.97657037  0.33708912  0.89560436  1
  Si  Si113  1  0.80226905  0.07996205  0.88746930  1
  Si  Si114  1  0.35847709  0.66636250  0.11403603  1
  Si  Si115  1  0.96467571  0.33469540  0.38084442  1
  Si  Si116  1  0.80770143  0.91442839  0.88671582  1
  Si  Si117  1  0.86584491  0.91809351  0.10850599  1
  Si  Si118  1  0.35622558  0.83266649  0.11467270  1
  Si  Si119  1  0.35916863  0.67635656  0.61129513  1
  Si  Si120  1  0.47446092  0.91899243  0.88814838  1
  Si  Si121  1  0.18739482  0.91360501  0.61818950  1
  Si  Si122  1  0.19325864  0.08216716  0.11600872  1
  Si  Si123  1  0.86179282  0.58243303  0.10987759  1
  Si  Si124  1  0.80407112  0.41902177  0.37801892  1
  Si  Si125  1  0.69038473  0.15829161  0.10718550  1
  Si  Si126  1  0.35671110  0.16789840  0.11499403  1
  Si  Si127  1  0.02881472  0.83265475  0.11418964  1
  Si  Si128  1  0.51960080  0.08170877  0.11198268  1
  Si  Si129  1  0.14777443  0.58826880  0.88882607  1
  Si  Si130  1  0.31357021  0.33774133  0.88899479  1
  Si  Si131  1  0.51694966  0.91734872  0.10840918  1
  Si  Si132  1  0.13351241  0.58339276  0.38555757  1
  Si  Si133  1  0.97358712  0.82991200  0.88825786  1
  Si  Si134  1  0.63949138  0.16616494  0.88669481  1
  Si  Si135  1  0.19348038  0.41257643  0.61532764  1
  Si  Si136  1  0.80636532  0.58703299  0.88702435  1
  Si  Si137  1  0.64679578  0.33091374  0.38376570  1
  Si  Si138  1  0.86273815  0.41726728  0.10748769  1
  Si  Si139  1  0.86107468  0.08258368  0.61935936  1
  Si  Si140  1  0.31192172  0.17161640  0.89372564  1
  Si  Si141  1  0.31121744  0.16594236  0.38969238  1
  Si  Si142  1  0.47764978  0.41826975  0.88630759  1
  Si  Si143  1  0.96984921  0.16268256  0.89585058  1
  Si  Si144  1  0.19145088  0.58385418  0.11419942  1
  Si  Si145  1  0.81476849  0.92083684  0.38339187  1
  Si  Si146  1  0.64312653  0.67060672  0.88417799  1
  Si  Si147  1  0.14541863  0.90777253  0.89324095  1
  Si  Si148  1  0.30749692  0.83549461  0.38607520  1
  Si  Si149  1  0.51729620  0.92490846  0.61363966  1
  Si  Si150  1  0.68946683  0.66019879  0.10604688  1
  Si  Si151  1  0.03005570  0.33592130  0.61934656  1
  Si  Si152  1  0.80925897  0.08046364  0.38208479  1
  Si  Si153  1  0.03072890  0.66871673  0.61650830  1
  Si  Si154  1  0.13863966  0.91216891  0.38799500  1
  Si  Si155  1  0.14871210  0.42173111  0.89229891  1
  Si  Si156  1  0.80538385  0.58097259  0.37732233  1
  Si  Si157  1  0.02079207  0.17348351  0.61836385  1
  Si  Si158  1  0.64770096  0.66761857  0.38155320  1
  Si  Si159  1  0.52218926  0.58435797  0.11130038  1
  Si  Si160  1  0.96671878  0.16945544  0.38461848  1
  Si  Si161  1  0.02906072  0.83010910  0.62058411  1
  Si  Si162  1  0.13046435  0.41576036  0.38650372  1
  Si  Si163  1  0.63885140  0.83521848  0.88535116  1
  Si  Si164  1  0.47178160  0.91663253  0.38601964  1
  Si  Si165  1  0.52083678  0.08713854  0.61788605  1
  Si  Si166  1  0.02751247  0.16758375  0.11439284  1
  Si  Si167  1  0.31557487  0.66607625  0.88786287  1
  Si  Si168  1  0.35545382  0.32539952  0.61634794  1
  Si  Si169  1  0.48390864  0.58821401  0.38782041  1
  Si  Si170  1  0.02937652  0.33315079  0.11451745  1
  Si  Si171  1  0.19310565  0.91678839  0.11647762  1
  Si  Si172  1  0.80102423  0.42346762  0.88935160  1
  Si  Si173  1  0.35426099  0.33282256  0.11356900  1
  Si  Si174  1  0.51891745  0.41597225  0.10848090  1
  Si  Si175  1  0.96760025  0.66551164  0.38068691  1
  Si  Si176  1  0.35569157  0.84006514  0.61630397  1
  Si  Si177  1  0.63973317  0.33213761  0.88595202  1
  Si  Si178  1  0.97312599  0.82933368  0.38248024  1
  Si  Si179  1  0.47867358  0.58197161  0.88515587  1
  Si  Si180  1  0.86758712  0.58512147  0.61319551  1
  Si  Si181  1  0.87008166  0.42136402  0.61436382  1
  Si  Si182  1  0.47424883  0.08492310  0.88969739  1
  Si  Si183  1  0.19191174  0.41884000  0.11552938  1
  Si  Si184  1  0.35668761  0.16335187  0.61800316  1
  Si  Si185  1  0.69018821  0.16042865  0.61419646  1
  Si  Si186  1  0.86839312  0.91711152  0.61524744  1
  Si  Si187  1  0.97589962  0.66386676  0.88746349  1
  Si  Si188  1  0.86286399  0.08265056  0.11111641  1
  Si  Si189  1  0.02617749  0.66722562  0.11202522  1
  Si  Si190  1  0.47199365  0.08202082  0.38640038  1
  Si  Si191  1  0.31254285  0.83037947  0.88823430  1
  O  O192  1  0.27029405  0.12168805  0.08535678  1
  O  O193  1  0.28917356  0.10375889  0.58507284  1
  O  O194  1  0.26838836  0.62368309  0.08338633  1
  O  O195  1  0.28639568  0.62222863  0.57235882  1
  O  O196  1  0.60209780  0.11105373  0.08187553  1
  O  O197  1  0.60702911  0.10749533  0.58965685  1
  O  O198  1  0.60085206  0.61408110  0.07585801  1
  O  O199  1  0.61604396  0.59382611  0.56868991  1
  O  O200  1  0.93549858  0.13175025  0.08309474  1
  O  O201  1  0.93463724  0.12657554  0.59007699  1
  O  O202  1  0.93489669  0.62940583  0.07965714  1
  O  O203  1  0.95723583  0.60929471  0.58979114  1
  O  O204  1  0.10425462  0.37556094  0.08491816  1
  O  O205  1  0.11660508  0.35365108  0.59021939  1
  O  O206  1  0.10547294  0.87418693  0.08425043  1
  O  O207  1  0.11603247  0.85013147  0.59321188  1
  O  O208  1  0.42752164  0.37351010  0.08061294  1
  O  O209  1  0.43770004  0.33965577  0.58458067  1
  O  O210  1  0.42872443  0.87231270  0.07935932  1
  O  O211  1  0.43507191  0.87383571  0.58468649  1
  O  O212  1  0.77702131  0.37915548  0.07103952  1
  O  O213  1  0.79873527  0.36521053  0.58126804  1
  O  O214  1  0.77857492  0.88307881  0.07036477  1
  O  O215  1  0.78999791  0.87046723  0.57922659  1
  O  O216  1  0.26609495  0.37654160  0.08440208  1
  O  O217  1  0.27655431  0.38003327  0.58867432  1
  O  O218  1  0.26724527  0.87559111  0.08385767  1
  O  O219  1  0.27333075  0.89213845  0.58922972  1
  O  O220  1  0.58695322  0.38205473  0.06692869  1
  O  O221  1  0.61034209  0.39457654  0.56746984  1
  O  O222  1  0.58941622  0.88548532  0.07096351  1
  O  O223  1  0.59857385  0.90675076  0.58088446  1
  O  O224  1  0.94185473  0.37384018  0.08220444  1
  O  O225  1  0.95989906  0.39667147  0.58965471  1
  O  O226  1  0.94273092  0.87528659  0.07904688  1
  O  O227  1  0.95616980  0.88882324  0.59130464  1
  O  O228  1  0.10365291  0.12411676  0.08628453  1
  O  O229  1  0.09824237  0.14723776  0.58351998  1
  O  O230  1  0.10202889  0.62485420  0.08131727  1
  O  O231  1  0.10996946  0.65100376  0.58112226  1
  O  O232  1  0.43639320  0.13311379  0.08409311  1
  O  O233  1  0.44791557  0.14762599  0.59287911  1
  O  O234  1  0.43456881  0.62974027  0.07930785  1
  O  O235  1  0.44815013  0.66427305  0.58593650  1
  O  O236  1  0.76822515  0.11403649  0.08030171  1
  O  O237  1  0.76993955  0.11874987  0.58901269  1
  O  O238  1  0.76813206  0.61549818  0.07917742  1
  O  O239  1  0.79719217  0.64013568  0.57778695  1
  O  O240  1  0.04254116  0.12024277  0.42188069  1
  O  O241  1  0.04824058  0.11239645  0.93035520  1
  O  O242  1  0.04877637  0.61475915  0.41251946  1
  O  O243  1  0.06780478  0.62585220  0.91824939  1
  O  O244  1  0.38297353  0.10204244  0.41151039  1
  O  O245  1  0.40028060  0.12601434  0.92125720  1
  O  O246  1  0.40645448  0.60964484  0.42588129  1
  O  O247  1  0.40173875  0.61959665  0.91853353  1
  O  O248  1  0.72733022  0.09393197  0.41611831  1
  O  O249  1  0.72232042  0.11659708  0.91602722  1
  O  O250  1  0.72235321  0.60661721  0.40740919  1
  O  O251  1  0.73620395  0.63609892  0.91749623  1
  O  O252  1  0.20331355  0.36242294  0.42163423  1
  O  O253  1  0.23819488  0.37762449  0.92005610  1
  O  O254  1  0.22362592  0.86446729  0.41555116  1
  O  O255  1  0.23059677  0.85813681  0.92064749  1
  O  O256  1  0.56602124  0.34889811  0.41741675  1
  O  O257  1  0.56039320  0.36820532  0.91583248  1
  O  O258  1  0.54799663  0.86512967  0.42008314  1
  O  O259  1  0.56485214  0.87856044  0.91682310  1
  O  O260  1  0.88120568  0.36338069  0.40871288  1
  O  O261  1  0.88756691  0.38645838  0.92655697  1
  O  O262  1  0.89519299  0.86697082  0.41246050  1
  O  O263  1  0.89730594  0.87283772  0.91709924  1
  O  O264  1  0.04146987  0.38941274  0.41040551  1
  O  O265  1  0.07842746  0.38765033  0.93042363  1
  O  O266  1  0.06021706  0.87123441  0.41647519  1
  O  O267  1  0.06463471  0.86706064  0.91970527  1
  O  O268  1  0.38616791  0.40227635  0.43127201  1
  O  O269  1  0.39942096  0.38360301  0.91847378  1
  O  O270  1  0.38368226  0.89535255  0.41237841  1
  O  O271  1  0.39727672  0.87951121  0.91845217  1
  O  O272  1  0.72060085  0.39379600  0.40660947  1
  O  O273  1  0.72302208  0.37959908  0.91672847  1
  O  O274  1  0.73619613  0.90069482  0.41973138  1
  O  O275  1  0.73060022  0.87373017  0.91563691  1
  O  O276  1  0.22892204  0.14374213  0.42150565  1
  O  O277  1  0.23877300  0.13946694  0.93002682  1
  O  O278  1  0.21400028  0.62847595  0.42086395  1
  O  O279  1  0.23445592  0.63351074  0.91983742  1
  O  O280  1  0.54541423  0.13673722  0.41992183  1
  O  O281  1  0.56169302  0.12943317  0.91812164  1
  O  O282  1  0.56214042  0.64702990  0.41062795  1
  O  O283  1  0.56718402  0.62651406  0.91279441  1
  O  O284  1  0.87864390  0.14454570  0.40875059  1
  O  O285  1  0.88486459  0.12604829  0.91969535  1
  O  O286  1  0.88617171  0.63199206  0.40935997  1
  O  O287  1  0.90170763  0.62023763  0.91738816  1
  O  O288  1  0.18476252  -0.00006029  0.08510773  1
  O  O289  1  0.15066106  -0.01137853  0.58539319  1
  O  O290  1  0.18442974  0.50074734  0.08362460  1
  O  O291  1  0.16740616  0.48909164  0.58031786  1
  O  O292  1  0.49584142  0.00151447  0.08066012  1
  O  O293  1  0.48617669  0.00819051  0.58999022  1
  O  O294  1  0.50134257  0.50103796  0.08424258  1
  O  O295  1  0.46299290  0.49974105  0.57556021  1
  O  O296  1  0.86977572  0.00241350  0.07937236  1
  O  O297  1  0.85958772  0.00119358  0.58903114  1
  O  O298  1  0.86637406  0.50044223  0.07861177  1
  O  O299  1  0.85019021  0.50296294  0.58306543  1
  O  O300  1  0.02712014  0.25032973  0.08530177  1
  O  O301  1  -0.00413231  0.25635268  0.59192480  1
  O  O302  1  0.02362706  0.75005814  0.08206040  1
  O  O303  1  -0.00440874  0.75061512  0.59302534  1
  O  O304  1  0.34291172  0.24975332  0.08330834  1
  O  O305  1  0.32075563  0.24339417  0.59334559  1
  O  O306  1  0.34506562  0.74960195  0.08442965  1
  O  O307  1  0.33008485  0.76050532  0.58648358  1
  O  O308  1  0.67845319  0.23511421  0.06964519  1
  O  O309  1  0.67563557  0.23642040  0.57716153  1
  O  O310  1  0.68156185  0.73732233  0.06796490  1
  O  O311  1  0.65641640  0.75296790  0.56745849  1
  O  O312  1  0.15321613  -0.01076424  0.42630561  1
  O  O313  1  0.16122689  -0.01569109  0.93059124  1
  O  O314  1  0.14308960  0.49922002  0.41329653  1
  O  O315  1  0.16407750  0.50640076  0.91908911  1
  O  O316  1  0.49568477  -0.00037069  0.41302923  1
  O  O317  1  0.48304071  0.00187273  0.91898515  1
  O  O318  1  0.52445649  0.51041930  0.41142531  1
  O  O319  1  0.49352098  0.49990444  0.91798678  1
  O  O320  1  0.85135078  0.00245378  0.40835192  1
  O  O321  1  0.81279299  -0.00311629  0.91725732  1
  O  O322  1  0.83087085  0.49940804  0.40784687  1
  O  O323  1  0.80076630  0.50694495  0.91987418  1
  O  O324  1  0.34755035  0.24234840  0.41999151  1
  O  O325  1  0.32993976  0.25601338  0.91974290  1
  O  O326  1  0.33317554  0.76001279  0.42362506  1
  O  O327  1  0.33243087  0.74841391  0.91798954  1
  O  O328  1  0.68850164  0.25476842  0.41289571  1
  O  O329  1  0.65264608  0.24884150  0.91602736  1
  O  O330  1  0.68303481  0.74342449  0.41395829  1
  O  O331  1  0.64219144  0.75304995  0.91524657  1
  O  O332  1  0.98502834  0.25357494  0.41057639  1
  O  O333  1  0.98037263  0.24207232  0.92956499  1
  O  O334  1  0.98186921  0.74672596  0.41281354  1
  O  O335  1  0.97743390  0.74678608  0.91709842  1
  O  O336  1  0.21157754  0.08360170  0.19580261  1
  O  O337  1  0.21130972  0.08350246  0.70616165  1
  O  O338  1  0.20494476  0.58279734  0.19359342  1
  O  O339  1  0.21311506  0.58233922  0.70218714  1
  O  O340  1  0.53864381  0.08122154  0.19196527  1
  O  O341  1  0.54139434  0.08465540  0.69905472  1
  O  O342  1  0.54497365  0.59067426  0.18999875  1
  O  O343  1  0.54941315  0.57735339  0.69584459  1
  O  O344  1  0.87875223  0.08331915  0.19149727  1
  O  O345  1  0.87808292  0.08125589  0.70037571  1
  O  O346  1  0.88058030  0.57914588  0.18900146  1
  O  O347  1  0.88136772  0.58495522  0.69499338  1
  O  O348  1  0.04386457  0.33282623  0.19478326  1
  O  O349  1  0.04850814  0.33490402  0.69998123  1
  O  O350  1  0.04117785  0.83269204  0.19300700  1
  O  O351  1  0.04580562  0.83262091  0.70160879  1
  O  O352  1  0.37314110  0.33069885  0.19295832  1
  O  O353  1  0.37444298  0.33033638  0.69809894  1
  O  O354  1  0.37763828  0.83732362  0.19348707  1
  O  O355  1  0.37788840  0.84181792  0.69620750  1
  O  O356  1  0.70977842  0.33053525  0.19403525  1
  O  O357  1  0.70088284  0.33274032  0.69787978  1
  O  O358  1  0.70973075  0.83380118  0.19319744  1
  O  O359  1  0.71361184  0.83614154  0.69990799  1
  O  O360  1  0.20566987  0.41793401  0.19528683  1
  O  O361  1  0.21088438  0.41483553  0.69707331  1
  O  O362  1  0.21137542  0.91985667  0.19545651  1
  O  O363  1  0.20774319  0.91646258  0.69965258  1
  O  O364  1  0.54505158  0.40754061  0.18736799  1
  O  O365  1  0.54266806  0.41608950  0.70043178  1
  O  O366  1  0.53767663  0.91808793  0.18874596  1
  O  O367  1  0.53871939  0.92201334  0.69517355  1
  O  O368  1  0.87730687  0.41589561  0.18828689  1
  O  O369  1  0.88595086  0.42619089  0.69451112  1
  O  O370  1  0.88167289  0.92059836  0.18812298  1
  O  O371  1  0.88098870  0.91613699  0.69693430  1
  O  O372  1  0.04268006  0.16737382  0.19440034  1
  O  O373  1  0.04181944  0.16842639  0.69951702  1
  O  O374  1  0.04267872  0.66438902  0.19155871  1
  O  O375  1  0.04815805  0.66734815  0.69811361  1
  O  O376  1  0.37448687  0.16638794  0.19507042  1
  O  O377  1  0.37526547  0.16416052  0.69982546  1
  O  O378  1  0.37932115  0.66191740  0.19250571  1
  O  O379  1  0.36435927  0.66932934  0.69050976  1
  O  O380  1  0.71045431  0.16261464  0.18769815  1
  O  O381  1  0.70872977  0.16325425  0.69568438  1
  O  O382  1  0.70464270  0.66448604  0.18547475  1
  O  O383  1  0.71388828  0.66736902  0.69761555  1
  O  O384  1  0.12058992  0.08257020  0.29907541  1
  O  O385  1  0.12095341  0.08235438  0.80639341  1
  O  O386  1  0.11809654  0.58288462  0.30440074  1
  O  O387  1  0.12650437  0.58663357  0.80896503  1
  O  O388  1  0.45689888  0.08276988  0.30464465  1
  O  O389  1  0.45599470  0.08433371  0.80936367  1
  O  O390  1  0.45386814  0.59312040  0.30767506  1
  O  O391  1  0.45373789  0.57749860  0.80659701  1
  O  O392  1  0.79038055  0.08208502  0.30049494  1
  O  O393  1  0.78708354  0.07923519  0.80707044  1
  O  O394  1  0.78924017  0.58003997  0.29768465  1
  O  O395  1  0.79373935  0.58571074  0.80715491  1
  O  O396  1  0.28509856  0.33391176  0.30070933  1
  O  O397  1  0.29268005  0.33497239  0.80873195  1
  O  O398  1  0.28963895  0.83425415  0.30641557  1
  O  O399  1  0.28992710  0.83686600  0.80930543  1
  O  O400  1  0.62482797  0.33155300  0.30197167  1
  O  O401  1  0.62103591  0.33032847  0.80650248  1
  O  O402  1  0.62076630  0.83487855  0.29603608  1
  O  O403  1  0.62188179  0.83828510  0.80582224  1
  O  O404  1  0.95158362  0.33324341  0.29991606  1
  O  O405  1  0.96750209  0.33448589  0.80592232  1
  O  O406  1  0.95878155  0.83166326  0.30293436  1
  O  O407  1  0.95722116  0.83187424  0.80803908  1
  O  O408  1  0.11782837  0.41590086  0.30501303  1
  O  O409  1  0.12950737  0.41942007  0.81150541  1
  O  O410  1  0.11820562  0.91927877  0.30802346  1
  O  O411  1  0.12502643  0.91294529  0.81244868  1
  O  O412  1  0.45003162  0.40687980  0.30112375  1
  O  O413  1  0.45644500  0.41599912  0.80660400  1
  O  O414  1  0.45594783  0.91668257  0.30457360  1
  O  O415  1  0.45662982  0.92095171  0.80825715  1
  O  O416  1  0.79170842  0.41688156  0.29755915  1
  O  O417  1  0.78598073  0.42572902  0.80987191  1
  O  O418  1  0.79053115  0.92080744  0.30340028  1
  O  O419  1  0.79210721  0.91632304  0.80674032  1
  O  O420  1  0.29029600  0.16637569  0.30721542  1
  O  O421  1  0.29309084  0.16881759  0.81304825  1
  O  O422  1  0.28508648  0.66398790  0.29992933  1
  O  O423  1  0.29294629  0.66397351  0.80898518  1
  O  O424  1  0.62266657  0.16453227  0.29442666  1
  O  O425  1  0.62050259  0.16444613  0.80661303  1
  O  O426  1  0.62657115  0.66673127  0.30051882  1
  O  O427  1  0.63326891  0.67092923  0.80559465  1
  O  O428  1  0.95452516  0.16679421  0.30319984  1
  O  O429  1  0.95596618  0.16334555  0.81423066  1
  O  O430  1  0.95653515  0.66601596  0.30127227  1
  O  O431  1  0.95967849  0.66540388  0.80727590  1
  F  F432  1  0.04558762  -0.00160879  0.19867512  1
  F  F433  1  0.04408654  -0.00200275  0.70824099  1
  F  F434  1  0.04529706  0.49907957  0.20013178  1
  F  F435  1  0.05060367  0.50017931  0.70842896  1
  F  F436  1  0.37604314  0.00073432  0.20268457  1
  F  F437  1  0.37646934  0.00185658  0.70806120  1
  F  F438  1  0.36108761  0.50040065  0.19806331  1
  F  F439  1  0.37675408  0.49920293  0.70358113  1
  F  F440  1  0.71165360  0.00022607  0.19662960  1
  F  F441  1  0.71231406  0.00027903  0.70365160  1
  F  F442  1  0.71226558  0.49812027  0.19055228  1
  F  F443  1  0.71671302  0.50121585  0.70350154  1
  F  F444  1  0.20884314  0.24751395  0.20202788  1
  F  F445  1  0.21190407  0.24944453  0.70963623  1
  F  F446  1  0.20397111  0.74730552  0.19287706  1
  F  F447  1  0.20782674  0.75257947  0.70570823  1
  F  F448  1  0.54094126  0.24859566  0.19671878  1
  F  F449  1  0.54339048  0.24653648  0.70502054  1
  F  F450  1  0.54268807  0.74983916  0.19660866  1
  F  F451  1  0.55119744  0.76599120  0.69817851  1
  F  F452  1  0.87966486  0.24792471  0.19661480  1
  F  F453  1  0.88405978  0.23685160  0.70406440  1
  F  F454  1  0.88371092  0.74813814  0.19020893  1
  F  F455  1  0.88417014  0.75000611  0.70503242  1
  F  F456  1  0.28735198  -0.00026230  0.29886201  1
  F  F457  1  0.28989578  -0.00199721  0.80579892  1
  F  F458  1  0.28360302  0.50066255  0.29968233  1
  F  F459  1  0.29108062  0.49644113  0.80258037  1
  F  F460  1  0.62043297  -0.00146766  0.29188357  1
  F  F461  1  0.62134713  -0.00011287  0.79931968  1
  F  F462  1  0.63660643  0.49911779  0.29198513  1
  F  F463  1  0.62406506  0.50135714  0.80080637  1
  F  F464  1  0.95403561  -0.00091732  0.29409220  1
  F  F465  1  0.95361971  -0.00278012  0.80314443  1
  F  F466  1  0.95191067  0.49876524  0.29343357  1
  F  F467  1  0.95792617  0.50374773  0.80223851  1
  F  F468  1  0.11793871  0.24975062  0.29781967  1
  F  F469  1  0.12417928  0.24991193  0.80419958  1
  F  F470  1  0.11427760  0.74581077  0.29699782  1
  F  F471  1  0.12309859  0.74862718  0.80447019  1
  F  F472  1  0.45526997  0.24730268  0.29501987  1
  F  F473  1  0.45506614  0.24988949  0.80139291  1
  F  F474  1  0.45812024  0.75174515  0.29623219  1
  F  F475  1  0.45547072  0.76304683  0.80602467  1
  F  F476  1  0.78971650  0.24741914  0.29147834  1
  F  F477  1  0.78057839  0.23708480  0.80561666  1
  F  F478  1  0.78761168  0.74617906  0.29395366  1
  F  F479  1  0.79403239  0.75102442  0.80070023  1
