# generated using pymatgen
data_K24Na3Li5Mg64Fe17Si79(O5F)48
_symmetry_space_group_name_H-M   'P 1'
_cell_length_a   16.09298399
_cell_length_b   18.57672387
_cell_length_c   20.54903320
_cell_angle_alpha   90.00345719
_cell_angle_beta   99.97802685
_cell_angle_gamma   90.00196682
_symmetry_Int_Tables_number   1
_chemical_formula_structural   K24Na3Li5Mg64Fe17Si79(O5F)48
_chemical_formula_sum   'K24 Na3 Li5 Mg64 Fe17 Si79 O240 F48'
_cell_volume   6050.31368359
_cell_formula_units_Z   1
loop_
 _symmetry_equiv_pos_site_id
 _symmetry_equiv_pos_as_xyz
  1  'x, y, z'
loop_
 _atom_site_type_symbol
 _atom_site_label
 _atom_site_symmetry_multiplicity
 _atom_site_fract_x
 _atom_site_fract_y
 _atom_site_fract_z
 _atom_site_occupancy
  K  K0  1  0.00242187  0.00769266  0.00039431  1
  K  K1  1  -0.00119925  0.00062269  0.49871537  1
  K  K2  1  0.00371698  0.49528308  -0.00737507  1
  K  K3  1  -0.00431856  0.50036276  0.50602170  1
  K  K4  1  0.33725409  -0.00057604  -0.00266401  1
  K  K5  1  0.33956086  0.01117065  0.50079374  1
  K  K6  1  0.34411096  0.49352956  -0.00055827  1
  K  K7  1  0.33960147  0.49587532  0.50310560  1
  K  K8  1  0.66193581  -0.00460201  -0.00495343  1
  K  K9  1  0.66466612  -0.00254455  0.50363971  1
  K  K10  1  0.65158293  0.50170400  -0.00937302  1
  K  K11  1  0.66685350  0.50310599  0.51317696  1
  K  K12  1  0.16298367  0.24859763  -0.00022742  1
  K  K13  1  0.17035818  0.25028478  0.49910267  1
  K  K14  1  0.17670631  0.74939404  0.00027327  1
  K  K15  1  0.18667238  0.74931270  0.50107753  1
  K  K16  1  0.50032009  0.25528926  -0.00345403  1
  K  K17  1  0.50620582  0.24902427  0.50292081  1
  K  K18  1  0.51004983  0.75852641  -0.00500858  1
  K  K19  1  0.49914926  0.74190798  0.50377677  1
  K  K20  1  0.83328117  0.24138631  -0.00681149  1
  K  K21  1  0.82826500  0.25399931  0.51102791  1
  K  K22  1  0.82165536  0.75367938  -0.00555263  1
  K  K23  1  0.81968229  0.75243126  0.50880251  1
  Na  Na24  1  0.00140050  0.24977768  0.24636441  1
  Na  Na25  1  0.82966669  0.16798074  0.74838086  1
  Na  Na26  1  0.66466265  0.58575439  0.74279792  1
  Li  Li27  1  0.65247103  0.74921475  0.74331271  1
  Li  Li28  1  0.49894288  0.50071572  0.25524892  1
  Li  Li29  1  0.66151155  0.91150846  0.74928595  1
  Li  Li30  1  0.34113483  0.08280140  0.75468819  1
  Li  Li31  1  0.51113104  0.66927280  0.74734717  1
  Mg  Mg32  1  0.50112425  0.50226213  0.75268779  1
  Mg  Mg33  1  0.33462109  0.25017674  0.24749024  1
  Mg  Mg34  1  0.83207532  0.00026211  0.24780724  1
  Mg  Mg35  1  0.33928399  0.75164324  0.75363133  1
  Mg  Mg36  1  0.66822157  0.24980140  0.74993673  1
  Mg  Mg37  1  0.83363946  0.50114627  0.74355234  1
  Mg  Mg38  1  0.83155032  0.49891170  0.24798398  1
  Mg  Mg39  1  0.16991257  0.00150173  0.75125281  1
  Mg  Mg40  1  0.49734719  0.00006532  0.24952539  1
  Mg  Mg41  1  0.33461074  0.24707590  0.75351766  1
  Mg  Mg42  1  -0.00375552  0.75063750  0.25031259  1
  Mg  Mg43  1  0.82954972  -0.00102136  0.74953838  1
  Mg  Mg44  1  0.16794722  -0.00047154  0.24935453  1
  Mg  Mg45  1  0.16755277  0.49858760  0.75354793  1
  Mg  Mg46  1  0.00174742  0.75149176  0.75074206  1
  Mg  Mg47  1  0.16636864  0.50119383  0.25151921  1
  Mg  Mg48  1  0.50031085  -0.00062669  0.75337053  1
  Mg  Mg49  1  -0.00217228  0.25077448  0.74865149  1
  Mg  Mg50  1  0.66702739  0.24889026  0.24763026  1
  Mg  Mg51  1  0.66291511  0.75101569  0.24933628  1
  Mg  Mg52  1  0.33165626  0.74792982  0.25611014  1
  Mg  Mg53  1  0.83082984  0.33558715  0.74622429  1
  Mg  Mg54  1  0.49779520  0.16372410  0.24700097  1
  Mg  Mg55  1  -0.00134794  0.08391837  0.74948705  1
  Mg  Mg56  1  0.66388276  0.08324688  0.24771969  1
  Mg  Mg57  1  0.49970455  0.66154493  0.25426389  1
  Mg  Mg58  1  0.33500857  0.91324027  0.25404786  1
  Mg  Mg59  1  -0.00140354  0.91609605  0.24957677  1
  Mg  Mg60  1  0.33729356  0.58294052  0.25677352  1
  Mg  Mg61  1  0.66665360  0.08155470  0.75025436  1
  Mg  Mg62  1  0.00155584  0.08509311  0.24713391  1
  Mg  Mg63  1  0.66386479  0.41623926  0.24730689  1
  Mg  Mg64  1  0.83445525  0.33270793  0.24763024  1
  Mg  Mg65  1  0.16832053  0.66632511  0.25652703  1
  Mg  Mg66  1  -0.00108476  0.91697597  0.74972180  1
  Mg  Mg67  1  0.16761452  0.33361477  0.75256217  1
  Mg  Mg68  1  0.82774133  0.66604129  0.24568848  1
  Mg  Mg69  1  0.82767805  0.83511976  0.24682434  1
  Mg  Mg70  1  0.16871188  0.16596290  0.24884070  1
  Mg  Mg71  1  0.33359707  0.08315358  0.24902846  1
  Mg  Mg72  1  0.83230957  0.66941545  0.74834899  1
  Mg  Mg73  1  0.17009927  0.83600439  0.75226997  1
  Mg  Mg74  1  0.49869775  0.33473340  0.24834919  1
  Mg  Mg75  1  0.83368604  0.16672486  0.24650241  1
  Mg  Mg76  1  0.33996456  0.58503268  0.75449673  1
  Mg  Mg77  1  0.66186606  0.58206556  0.24910667  1
  Mg  Mg78  1  0.16820903  0.83347020  0.25374359  1
  Mg  Mg79  1  -0.00004147  0.41545183  0.74881115  1
  Mg  Mg80  1  0.33791655  0.41745685  0.25100393  1
  Mg  Mg81  1  0.82450809  0.83147478  0.74711642  1
  Mg  Mg82  1  0.50584617  0.83245794  0.75400228  1
  Mg  Mg83  1  0.16784001  0.33441305  0.24932440  1
  Mg  Mg84  1  0.50227259  0.16521909  0.75339955  1
  Mg  Mg85  1  0.49900157  0.83336272  0.25143048  1
  Mg  Mg86  1  0.16882434  0.16497781  0.74985902  1
  Mg  Mg87  1  0.00074372  0.58467326  0.74826986  1
  Mg  Mg88  1  0.50256342  0.33567411  0.75305040  1
  Mg  Mg89  1  0.33831221  0.91989536  0.75376523  1
  Mg  Mg90  1  0.00049315  0.41608400  0.24965965  1
  Mg  Mg91  1  -0.00224300  0.58493884  0.25151367  1
  Mg  Mg92  1  0.66677772  0.41642658  0.74636039  1
  Mg  Mg93  1  0.17064203  0.66651099  0.75321173  1
  Mg  Mg94  1  0.66119414  0.91352744  0.24671431  1
  Mg  Mg95  1  0.33590177  0.41521642  0.75503195  1
  Fe  Fe96  1  0.48040044  0.09186979  0.39145953  1
  Fe  Fe97  1  0.52237880  0.08667064  0.10743222  1
  Fe  Fe98  1  0.30806759  0.66222602  0.39736057  1
  Fe  Fe99  1  0.64722420  0.16942722  0.89089147  1
  Fe  Fe100  1  0.68628545  0.67243161  0.60873635  1
  Fe  Fe101  1  0.64166551  0.82950876  0.39082942  1
  Fe  Fe102  1  0.30488007  0.83801755  0.39564083  1
  Fe  Fe103  1  0.48261627  0.91654201  0.89294499  1
  Fe  Fe104  1  0.69082040  0.83505519  0.10582097  1
  Fe  Fe105  1  0.48104169  0.57450353  0.39449034  1
  Fe  Fe106  1  0.68764555  0.32965118  0.60543949  1
  Fe  Fe107  1  0.47409910  0.41998039  0.89181755  1
  Fe  Fe108  1  0.35355914  0.33617326  0.10882221  1
  Fe  Fe109  1  0.86348983  0.41716983  0.60674886  1
  Fe  Fe110  1  0.13718317  0.41238036  0.89066706  1
  Fe  Fe111  1  0.19463817  0.07653383  0.10907222  1
  Fe  Fe112  1  0.47635693  0.91892588  0.39380231  1
  Si  Si113  1  0.12982373  0.91761833  0.38789095  1
  Si  Si114  1  0.86463834  0.92066063  0.11081374  1
  Si  Si115  1  0.64718849  0.33819618  0.88895013  1
  Si  Si116  1  0.85699276  0.58035442  0.11284150  1
  Si  Si117  1  0.97145958  0.16713949  0.38347887  1
  Si  Si118  1  0.31049369  0.67112789  0.88818215  1
  Si  Si119  1  0.64766094  0.66360335  0.38702689  1
  Si  Si120  1  0.03225706  0.67096080  0.61563358  1
  Si  Si121  1  0.02958008  0.83591674  0.61502993  1
  Si  Si122  1  0.64876676  0.33198989  0.38250692  1
  Si  Si123  1  0.14017650  0.08514054  0.88529238  1
  Si  Si124  1  0.96557916  0.33070002  0.88716825  1
  Si  Si125  1  0.02534897  0.83145166  0.11640093  1
  Si  Si126  1  0.35508653  0.66702266  0.61814343  1
  Si  Si127  1  0.97919181  0.66817086  0.88499682  1
  Si  Si128  1  0.35557969  0.16919577  0.10898747  1
  Si  Si129  1  0.18812875  0.42447987  0.11297317  1
  Si  Si130  1  0.19028383  0.90710224  0.11299963  1
  Si  Si131  1  0.51403609  0.58106465  0.61423517  1
  Si  Si132  1  0.13880681  0.91904382  0.88583653  1
  Si  Si133  1  0.80477683  0.92049354  0.38515245  1
  Si  Si134  1  0.80665930  0.42174987  0.88298420  1
  Si  Si135  1  0.30216215  0.16938538  0.38800495  1
  Si  Si136  1  0.47704942  0.08744025  0.88910232  1
  Si  Si137  1  0.51531573  0.91654837  0.10927964  1
  Si  Si138  1  0.35745777  0.16763561  0.61735503  1
  Si  Si139  1  0.80547875  0.58051448  0.38182374  1
  Si  Si140  1  0.96470884  0.83398961  0.38353594  1
  Si  Si141  1  0.13578227  0.08413201  0.38540146  1
  Si  Si142  1  0.81065822  0.08393325  0.38354037  1
  Si  Si143  1  0.48142686  0.40515764  0.38901531  1
  Si  Si144  1  0.86065210  0.91631895  0.61309028  1
  Si  Si145  1  0.19215136  0.08233697  0.61536008  1
  Si  Si146  1  0.47919591  0.59019375  0.89062225  1
  Si  Si147  1  0.03309836  0.32931929  0.61114346  1
  Si  Si148  1  0.86454446  0.08740889  0.11289812  1
  Si  Si149  1  0.81071737  0.07519723  0.88835591  1
  Si  Si150  1  0.65110206  0.17141523  0.38581688  1
  Si  Si151  1  0.68857402  0.84152817  0.61161438  1
  Si  Si152  1  0.03109864  0.16818371  0.11077137  1
  Si  Si153  1  0.30553500  0.33524697  0.38610485  1
  Si  Si154  1  0.86043570  0.07973051  0.61358892  1
  Si  Si155  1  0.02637697  0.16347002  0.61305850  1
  Si  Si156  1  0.30565632  0.32597934  0.88971604  1
  Si  Si157  1  0.68799522  0.66196116  0.10982754  1
  Si  Si158  1  0.12912631  0.58365431  0.38980787  1
  Si  Si159  1  0.52056819  0.91748929  0.61657461  1
  Si  Si160  1  0.64673012  0.66729913  0.88213643  1
  Si  Si161  1  0.97719547  0.83295226  0.88508242  1
  Si  Si162  1  0.86347638  0.59051269  0.60829740  1
  Si  Si163  1  0.69618343  0.33373631  0.11299552  1
  Si  Si164  1  0.69665352  0.16668973  0.11105524  1
  Si  Si165  1  0.81533730  0.58459057  0.88257988  1
  Si  Si166  1  0.81395582  0.91260155  0.88466567  1
  Si  Si167  1  0.30551808  0.83692287  0.88926552  1
  Si  Si168  1  0.19706065  0.41587113  0.61701219  1
  Si  Si169  1  0.97271856  0.33366566  0.38425775  1
  Si  Si170  1  0.13863196  0.41769141  0.38650842  1
  Si  Si171  1  0.35772469  0.82525175  0.11568554  1
  Si  Si172  1  0.51936896  0.08081026  0.61485749  1
  Si  Si173  1  0.18489363  0.58756261  0.11735580  1
  Si  Si174  1  0.35622972  0.66088123  0.11643997  1
  Si  Si175  1  0.52336906  0.58013987  0.11537849  1
  Si  Si176  1  0.51928960  0.41684491  0.61164383  1
  Si  Si177  1  0.02897837  0.33661480  0.11386818  1
  Si  Si178  1  0.80994813  0.41742920  0.38284003  1
  Si  Si179  1  0.64875176  0.82902521  0.88602589  1
  Si  Si180  1  0.97429065  0.16475094  0.88409961  1
  Si  Si181  1  0.01960899  0.66828799  0.11618195  1
  Si  Si182  1  0.30802998  0.16204263  0.88437119  1
  Si  Si183  1  0.19497459  0.91812299  0.61522514  1
  Si  Si184  1  0.68624094  0.15774145  0.60995775  1
  Si  Si185  1  0.19295426  0.58186919  0.61771379  1
  Si  Si186  1  0.14607667  0.58472816  0.88932255  1
  Si  Si187  1  0.35813097  0.33134765  0.61655751  1
  Si  Si188  1  0.52990766  0.41364608  0.11237513  1
  Si  Si189  1  0.35818822  0.83246553  0.61697719  1
  Si  Si190  1  0.86187759  0.41520707  0.11260023  1
  Si  Si191  1  0.96447830  0.66847006  0.38399029  1
  O  O192  1  0.29221002  0.10361778  0.07844696  1
  O  O193  1  0.26789367  0.12526659  0.58678304  1
  O  O194  1  0.26641251  0.61835785  0.08721344  1
  O  O195  1  0.26745503  0.62208396  0.58678460  1
  O  O196  1  0.62169297  0.11585813  0.07608473  1
  O  O197  1  0.59961389  0.10945638  0.58212821  1
  O  O198  1  0.60053837  0.61636755  0.08250703  1
  O  O199  1  0.59086734  0.61225020  0.58128808  1
  O  O200  1  0.94190390  0.12457926  0.08253600  1
  O  O201  1  0.93395844  0.12670711  0.58339252  1
  O  O202  1  0.93661789  0.61905321  0.08521770  1
  O  O203  1  0.94151773  0.63807860  0.58338282  1
  O  O204  1  0.10537766  0.37353468  0.08211197  1
  O  O205  1  0.11676660  0.36519434  0.58569209  1
  O  O206  1  0.11107342  0.84984919  0.08743410  1
  O  O207  1  0.10195424  0.88208902  0.58515316  1
  O  O208  1  0.45135440  0.36614762  0.07632541  1
  O  O209  1  0.43483884  0.36578535  0.58491488  1
  O  O210  1  0.43606755  0.85864117  0.08499540  1
  O  O211  1  0.43637728  0.86792161  0.58647145  1
  O  O212  1  0.77741266  0.36836692  0.08403959  1
  O  O213  1  0.76953263  0.36991746  0.56339165  1
  O  O214  1  0.78592303  0.87448917  0.07406330  1
  O  O215  1  0.76919881  0.88235072  0.58196194  1
  O  O216  1  0.26664007  0.40385511  0.07806776  1
  O  O217  1  0.27530489  0.38113131  0.58577304  1
  O  O218  1  0.27038384  0.86905130  0.08525164  1
  O  O219  1  0.26927305  0.87567707  0.58568200  1
  O  O220  1  0.61547606  0.38466727  0.08392884  1
  O  O221  1  0.59096139  0.38594001  0.57341655  1
  O  O222  1  0.59360217  0.88826625  0.07518721  1
  O  O223  1  0.60342981  0.89189495  0.58590581  1
  O  O224  1  0.94143014  0.38070967  0.08318692  1
  O  O225  1  0.95297322  0.37110906  0.57182732  1
  O  O226  1  0.95159977  0.88932415  0.08658558  1
  O  O227  1  0.93683504  0.87091110  0.58483518  1
  O  O228  1  0.10233192  0.13700564  0.07199999  1
  O  O229  1  0.09980596  0.11835433  0.58243344  1
  O  O230  1  0.10295448  0.63973210  0.08724800  1
  O  O231  1  0.10499138  0.62443620  0.58681454  1
  O  O232  1  0.44425334  0.16038146  0.08137898  1
  O  O233  1  0.43431727  0.13012477  0.58566351  1
  O  O234  1  0.43245090  0.62065791  0.08583924  1
  O  O235  1  0.42857110  0.62960447  0.58465081  1
  O  O236  1  0.78307143  0.13779225  0.08537089  1
  O  O237  1  0.76759226  0.11435022  0.58509197  1
  O  O238  1  0.76745158  0.61906159  0.08305809  1
  O  O239  1  0.77793323  0.63062483  0.57457920  1
  O  O240  1  0.05775515  0.12284138  0.41559833  1
  O  O241  1  0.06321200  0.12300180  0.91597156  1
  O  O242  1  0.04162792  0.61398698  0.41372762  1
  O  O243  1  0.06696432  0.62588471  0.91682931  1
  O  O244  1  0.38589434  0.13079042  0.42611276  1
  O  O245  1  0.38517914  0.10796516  0.91262795  1
  O  O246  1  0.38684372  0.59440436  0.43151006  1
  O  O247  1  0.40257754  0.63669693  0.91842914  1
  O  O248  1  0.73036724  0.11528829  0.41387719  1
  O  O249  1  0.73925559  0.10773860  0.92638228  1
  O  O250  1  0.72082011  0.59960546  0.41033695  1
  O  O251  1  0.73338890  0.61751497  0.91081716  1
  O  O252  1  0.23051481  0.38060495  0.41590084  1
  O  O253  1  0.22061101  0.34425083  0.91908891  1
  O  O254  1  0.20221067  0.86655761  0.42525864  1
  O  O255  1  0.22242316  0.87232417  0.91626914  1
  O  O256  1  0.56228500  0.34823553  0.41180392  1
  O  O257  1  0.56968608  0.36487171  0.92468980  1
  O  O258  1  0.54726568  0.84383402  0.42813785  1
  O  O259  1  0.57758163  0.86012946  0.92599193  1
  O  O260  1  0.89291280  0.36811194  0.41460309  1
  O  O261  1  0.88135591  0.36382045  0.91292112  1
  O  O262  1  0.88355226  0.86410255  0.41328419  1
  O  O263  1  0.89867585  0.86465809  0.91685717  1
  O  O264  1  0.06284718  0.37384577  0.41528804  1
  O  O265  1  0.04380335  0.37738819  0.92548041  1
  O  O266  1  0.04118160  0.88977315  0.41191644  1
  O  O267  1  0.06038508  0.88234560  0.91593007  1
  O  O268  1  0.39808756  0.36930519  0.41743598  1
  O  O269  1  0.38100757  0.37914229  0.92245949  1
  O  O270  1  0.37597462  0.91249174  0.42613758  1
  O  O271  1  0.38742759  0.87887167  0.92578619  1
  O  O272  1  0.72531429  0.38998732  0.40990788  1
  O  O273  1  0.72279677  0.39956625  0.91278461  1
  O  O274  1  0.72653338  0.90073124  0.42012526  1
  O  O275  1  0.73683196  0.87531142  0.91450194  1
  O  O276  1  0.22054372  0.13028068  0.41516234  1
  O  O277  1  0.22552182  0.13043770  0.91428571  1
  O  O278  1  0.20520350  0.63141613  0.42644224  1
  O  O279  1  0.23308075  0.63108703  0.91729987  1
  O  O280  1  0.57177476  0.15629265  0.42125112  1
  O  O281  1  0.54519705  0.14863495  0.91994087  1
  O  O282  1  0.56850035  0.64222061  0.42164072  1
  O  O283  1  0.56900592  0.63361268  0.91738224  1
  O  O284  1  0.89283497  0.13396072  0.41549933  1
  O  O285  1  0.90026410  0.12107738  0.91322411  1
  O  O286  1  0.88131773  0.63782623  0.41141358  1
  O  O287  1  0.90073099  0.63222452  0.91572574  1
  O  O288  1  0.16532451  -0.01777384  0.07537727  1
  O  O289  1  0.18989026  0.00021560  0.58466440  1
  O  O290  1  0.15783458  0.50739642  0.08803823  1
  O  O291  1  0.18176329  0.49881274  0.58831694  1
  O  O292  1  0.48359278  -0.00561813  0.07886468  1
  O  O293  1  0.49672038  -0.00075044  0.58639291  1
  O  O294  1  0.51527229  0.49787257  0.08596641  1
  O  O295  1  0.49110695  0.49833902  0.58474173  1
  O  O296  1  0.85523628  0.00490195  0.08383364  1
  O  O297  1  0.86447433  -0.00191933  0.58142068  1
  O  O298  1  0.85099709  0.49785365  0.08362569  1
  O  O299  1  0.86915864  0.51200053  0.57499715  1
  O  O300  1  0.01353294  0.25357464  0.08761005  1
  O  O301  1  0.02945184  0.24487051  0.58292320  1
  O  O302  1  -0.00343448  0.75012756  0.08815834  1
  O  O303  1  0.03489400  0.75374232  0.58677607  1
  O  O304  1  0.31171566  0.24539625  0.08101038  1
  O  O305  1  0.34108971  0.24953717  0.58541035  1
  O  O306  1  0.34337357  0.74256928  0.08492913  1
  O  O307  1  0.34175667  0.74983657  0.58894566  1
  O  O308  1  0.68354432  0.25134789  0.08456063  1
  O  O309  1  0.67560632  0.23356422  0.57081223  1
  O  O310  1  0.67980118  0.73905048  0.07367084  1
  O  O311  1  0.67357410  0.76646835  0.57148022  1
  O  O312  1  0.14153333  0.00205953  0.41563349  1
  O  O313  1  0.14959262  0.00196912  0.91418778  1
  O  O314  1  0.13751919  0.49905603  0.41689709  1
  O  O315  1  0.15827828  0.50705941  0.92440501  1
  O  O316  1  0.51970869  0.00614832  0.42922355  1
  O  O317  1  0.50445937  0.01052797  0.92423995  1
  O  O318  1  0.50930058  0.47931435  0.42663366  1
  O  O319  1  0.48675643  0.51372390  0.92968922  1
  O  O320  1  0.83740586  0.00262656  0.41116116  1
  O  O321  1  0.83342361  -0.00725165  0.91813394  1
  O  O322  1  0.83565543  0.49944283  0.40918819  1
  O  O323  1  0.83428322  0.50266525  0.91415826  1
  O  O324  1  0.29944773  0.25362034  0.41571631  1
  O  O325  1  0.33168116  0.24242585  0.91450869  1
  O  O326  1  0.33497208  0.75073747  0.43688130  1
  O  O327  1  0.30870041  0.75318763  0.91721868  1
  O  O328  1  0.68744185  0.25325092  0.40875355  1
  O  O329  1  0.68345434  0.26213542  0.92125131  1
  O  O330  1  0.69179240  0.73875569  0.41383018  1
  O  O331  1  0.67061003  0.74665244  0.91688633  1
  O  O332  1  0.98542488  0.25030105  0.41107134  1
  O  O333  1  0.97589559  0.24648170  0.91532235  1
  O  O334  1  0.98457402  0.75113644  0.41183128  1
  O  O335  1  0.99449708  0.75072502  0.91451330  1
  O  O336  1  0.21076031  0.08189943  0.20108564  1
  O  O337  1  0.20353722  0.08269784  0.69442954  1
  O  O338  1  0.20217854  0.58553794  0.19737556  1
  O  O339  1  0.20963348  0.58297052  0.69805923  1
  O  O340  1  0.54600308  0.08348620  0.19936940  1
  O  O341  1  0.53862239  0.08311126  0.69459089  1
  O  O342  1  0.54468111  0.58486114  0.19456127  1
  O  O343  1  0.52751576  0.57983995  0.69311687  1
  O  O344  1  0.87966510  0.08439343  0.19347414  1
  O  O345  1  0.88299037  0.07546185  0.69267709  1
  O  O346  1  0.87575812  0.58209070  0.19342367  1
  O  O347  1  0.88177517  0.58820593  0.69009798  1
  O  O348  1  0.04830889  0.34303993  0.19327444  1
  O  O349  1  0.04627613  0.33065909  0.69177907  1
  O  O350  1  0.04117109  0.83216429  0.19700707  1
  O  O351  1  0.04695844  0.83582222  0.69547153  1
  O  O352  1  0.37685258  0.33493985  0.20073343  1
  O  O353  1  0.37327421  0.33129945  0.69643839  1
  O  O354  1  0.37388555  0.82702291  0.19561449  1
  O  O355  1  0.37103074  0.83474897  0.69665740  1
  O  O356  1  0.71308751  0.33406382  0.19361378  1
  O  O357  1  0.70961994  0.33200606  0.69767267  1
  O  O358  1  0.71131186  0.83278696  0.19737499  1
  O  O359  1  0.71260541  0.83889308  0.69065357  1
  O  O360  1  0.20626904  0.41994844  0.19398745  1
  O  O361  1  0.21370984  0.41597424  0.69706922  1
  O  O362  1  0.20563145  0.91325484  0.19369187  1
  O  O363  1  0.20947175  0.91730246  0.69543705  1
  O  O364  1  0.54720271  0.41086323  0.19239293  1
  O  O365  1  0.54137137  0.41474756  0.69219883  1
  O  O366  1  0.53890303  0.91611749  0.19039149  1
  O  O367  1  0.53709529  0.91739404  0.69569833  1
  O  O368  1  0.87835378  0.41690665  0.19312588  1
  O  O369  1  0.88254585  0.41713139  0.69912879  1
  O  O370  1  0.87760514  0.91811026  0.19201559  1
  O  O371  1  0.87993654  0.91576298  0.69331019  1
  O  O372  1  0.05023269  0.15974405  0.19048575  1
  O  O373  1  0.04399853  0.16409564  0.69321300  1
  O  O374  1  0.03808595  0.66643591  0.19658903  1
  O  O375  1  0.04924086  0.66978945  0.69627156  1
  O  O376  1  0.37241248  0.16779982  0.19146428  1
  O  O377  1  0.37740670  0.16947860  0.69651463  1
  O  O378  1  0.37390959  0.66390292  0.19605190  1
  O  O379  1  0.36747288  0.66731230  0.69744748  1
  O  O380  1  0.71177295  0.16651001  0.19237038  1
  O  O381  1  0.69951432  0.16413653  0.68920904  1
  O  O382  1  0.70819569  0.66362572  0.19087443  1
  O  O383  1  0.71969042  0.67984088  0.69615592  1
  O  O384  1  0.11927634  0.08349658  0.30534132  1
  O  O385  1  0.12233048  0.08322909  0.80486267  1
  O  O386  1  0.11687432  0.58331755  0.30852040  1
  O  O387  1  0.12655304  0.58506131  0.80810432  1
  O  O388  1  0.45267949  0.08495798  0.29930439  1
  O  O389  1  0.46177827  0.08466447  0.80840062  1
  O  O390  1  0.45575481  0.58190277  0.30338564  1
  O  O391  1  0.45499386  0.58131185  0.81138782  1
  O  O392  1  0.79179968  0.08460361  0.30289611  1
  O  O393  1  0.78827766  0.07439658  0.80877649  1
  O  O394  1  0.79062636  0.58210916  0.30105303  1
  O  O395  1  0.80613544  0.58348591  0.80364328  1
  O  O396  1  0.28756343  0.33639969  0.30595836  1
  O  O397  1  0.28935474  0.33026414  0.80770998  1
  O  O398  1  0.28563197  0.83212652  0.30198771  1
  O  O399  1  0.28829843  0.83591833  0.80836362  1
  O  O400  1  0.62782008  0.33307256  0.30204213  1
  O  O401  1  0.62377481  0.33504672  0.80776202  1
  O  O402  1  0.61999504  0.83282449  0.29806199  1
  O  O403  1  0.62462616  0.83293952  0.80727168  1
  O  O404  1  0.95313876  0.34053329  0.30502342  1
  O  O405  1  0.95749255  0.33174247  0.80677378  1
  O  O406  1  0.95050370  0.83325856  0.30277790  1
  O  O407  1  0.96358154  0.83451742  0.80509799  1
  O  O408  1  0.12157367  0.41778023  0.30610571  1
  O  O409  1  0.12034194  0.41593671  0.79852594  1
  O  O410  1  0.11814013  0.91718084  0.30670808  1
  O  O411  1  0.12212899  0.91772306  0.80529374  1
  O  O412  1  0.45794094  0.41027686  0.30901970  1
  O  O413  1  0.45484319  0.41728658  0.80007728  1
  O  O414  1  0.45582918  0.91621844  0.29980996  1
  O  O415  1  0.45602596  0.91640726  0.80207887  1
  O  O416  1  0.79231056  0.41569215  0.30220872  1
  O  O417  1  0.79167342  0.42178080  0.80318844  1
  O  O418  1  0.79119814  0.91889332  0.30418871  1
  O  O419  1  0.80167485  0.91459622  0.80543350  1
  O  O420  1  0.28943786  0.16880282  0.30733812  1
  O  O421  1  0.28606570  0.16632314  0.80453562  1
  O  O422  1  0.28634203  0.66457542  0.30369148  1
  O  O423  1  0.29094141  0.66840406  0.80776988  1
  O  O424  1  0.63064924  0.16765256  0.30500456  1
  O  O425  1  0.62510711  0.16674615  0.79928015  1
  O  O426  1  0.62632023  0.66377953  0.30498944  1
  O  O427  1  0.62191757  0.67131816  0.80486531  1
  O  O428  1  0.95250448  0.16053478  0.30431758  1
  O  O429  1  0.96589835  0.16636859  0.80490454  1
  O  O430  1  0.95053956  0.66742549  0.30324457  1
  O  O431  1  0.96417894  0.66740626  0.80472652  1
  F  F432  1  0.04462650  -0.00184412  0.20171437  1
  F  F433  1  0.04742556  -0.00087748  0.70175248  1
  F  F434  1  0.04306458  0.50259374  0.20321004  1
  F  F435  1  0.04888930  0.50411500  0.69986732  1
  F  F436  1  0.37220854  -0.00325076  0.20100375  1
  F  F437  1  0.37581752  0.00100755  0.70238428  1
  F  F438  1  0.36907286  0.50088305  0.20194666  1
  F  F439  1  0.37212836  0.50051231  0.70339712  1
  F  F440  1  0.71384408  0.00036233  0.20026622  1
  F  F441  1  0.71588287  0.00548293  0.69794807  1
  F  F442  1  0.71366058  0.49909326  0.19823737  1
  F  F443  1  0.71747168  0.49155599  0.69369762  1
  F  F444  1  0.21143380  0.25185215  0.20167818  1
  F  F445  1  0.21205065  0.24968254  0.70168569  1
  F  F446  1  0.20457719  0.74784869  0.20239577  1
  F  F447  1  0.21253948  0.75155943  0.70509811  1
  F  F448  1  0.54739043  0.24981992  0.20258470  1
  F  F449  1  0.54178877  0.25225045  0.70272738  1
  F  F450  1  0.54164130  0.74491849  0.20132818  1
  F  F451  1  0.53376189  0.75483257  0.69722379  1
  F  F452  1  0.86841233  0.25078837  0.19596615  1
  F  F453  1  0.88473963  0.25810784  0.69565037  1
  F  F454  1  0.87724839  0.74933428  0.19861159  1
  F  F455  1  0.88617245  0.75331438  0.70002260  1
  F  F456  1  0.28532814  -0.00211855  0.29925963  1
  F  F457  1  0.28305082  -0.00451996  0.80228505  1
  F  F458  1  0.28346983  0.49789678  0.30016962  1
  F  F459  1  0.28750903  0.50097198  0.80133611  1
  F  F460  1  0.62416892  -0.00165840  0.29575763  1
  F  F461  1  0.62061795  0.00220730  0.79793316  1
  F  F462  1  0.62920883  0.49755272  0.29693760  1
  F  F463  1  0.61938302  0.49161374  0.79848087  1
  F  F464  1  0.95382180  0.00032137  0.29594779  1
  F  F465  1  0.95735330  -0.00038046  0.79835974  1
  F  F466  1  0.95260754  0.50044670  0.29721208  1
  F  F467  1  0.95975950  0.50303126  0.79660547  1
  F  F468  1  0.13191415  0.25092728  0.30068188  1
  F  F469  1  0.12005552  0.24806884  0.79568784  1
  F  F470  1  0.11481252  0.74958174  0.29970840  1
  F  F471  1  0.12336671  0.75190236  0.79991831  1
  F  F472  1  0.45581724  0.24776574  0.29670260  1
  F  F473  1  0.45466506  0.25103473  0.79944872  1
  F  F474  1  0.45404055  0.74745269  0.29774515  1
  F  F475  1  0.45086264  0.75746852  0.80514882  1
  F  F476  1  0.79029628  0.24987631  0.29643737  1
  F  F477  1  0.78775370  0.25912668  0.80082853  1
  F  F478  1  0.78954540  0.74769877  0.29476768  1
  F  F479  1  0.81402254  0.75124552  0.80680832  1
