# generated using pymatgen
data_K24Na3Li5Mg64Fe17Si79(O5F)48
_symmetry_space_group_name_H-M   'P 1'
_cell_length_a   16.07739577
_cell_length_b   18.57472457
_cell_length_c   20.54098668
_cell_angle_alpha   89.99836370
_cell_angle_beta   100.01211368
_cell_angle_gamma   89.98841884
_symmetry_Int_Tables_number   1
_chemical_formula_structural   K24Na3Li5Mg64Fe17Si79(O5F)48
_chemical_formula_sum   'K24 Na3 Li5 Mg64 Fe17 Si79 O240 F48'
_cell_volume   6040.80247504
_cell_formula_units_Z   1
loop_
 _symmetry_equiv_pos_site_id
 _symmetry_equiv_pos_as_xyz
  1  'x, y, z'
loop_
 _atom_site_type_symbol
 _atom_site_label
 _atom_site_symmetry_multiplicity
 _atom_site_fract_x
 _atom_site_fract_y
 _atom_site_fract_z
 _atom_site_occupancy
  K  K0  1  -0.00541189  0.01095750  -0.00169264  1
  K  K1  1  -0.00574086  -0.01014852  0.49709895  1
  K  K2  1  0.00447321  0.50023098  0.00155684  1
  K  K3  1  -0.00115311  0.49293714  0.50768856  1
  K  K4  1  0.33784829  0.00283041  0.00508220  1
  K  K5  1  0.32833926  -0.00021324  0.49202493  1
  K  K6  1  0.33882959  0.49199835  0.00682466  1
  K  K7  1  0.33573849  0.49756573  0.49674598  1
  K  K8  1  0.67404651  -0.00489915  0.00901010  1
  K  K9  1  0.67461379  0.00492711  0.49485494  1
  K  K10  1  0.66608849  0.50416531  0.00785957  1
  K  K11  1  0.66025448  0.49194905  0.49454998  1
  K  K12  1  0.16826834  0.24681539  -0.00287944  1
  K  K13  1  0.14833084  0.25265032  0.50477987  1
  K  K14  1  0.16322549  0.74850547  0.00508369  1
  K  K15  1  0.16947638  0.75455230  0.49696823  1
  K  K16  1  0.50063084  0.24613053  0.00706048  1
  K  K17  1  0.50673886  0.24604305  0.49347060  1
  K  K18  1  0.50117875  0.75193506  0.00999164  1
  K  K19  1  0.49399022  0.75449156  0.48679088  1
  K  K20  1  0.83941632  0.24689225  -0.00555409  1
  K  K21  1  0.83612696  0.25212198  0.50455897  1
  K  K22  1  0.83690974  0.75769438  0.00679872  1
  K  K23  1  0.82536006  0.75445211  0.49734009  1
  Na  Na24  1  0.33426680  0.24835016  0.24593028  1
  Na  Na25  1  0.66495969  0.58178948  0.24972597  1
  Na  Na26  1  0.83158454  0.83241720  0.74804087  1
  Li  Li27  1  -0.00016143  0.24373323  0.74267808  1
  Li  Li28  1  0.83612129  -0.00118458  0.74725017  1
  Li  Li29  1  0.33189259  0.57974042  0.75097243  1
  Li  Li30  1  0.15673466  0.32632721  0.75226274  1
  Li  Li31  1  0.66871963  0.91846141  0.25019495  1
  Mg  Mg32  1  0.00172045  0.75062535  0.24777897  1
  Mg  Mg33  1  0.16883195  0.49638546  0.74791123  1
  Mg  Mg34  1  0.33065898  0.25137592  0.74986201  1
  Mg  Mg35  1  0.66593336  0.74992888  0.75126936  1
  Mg  Mg36  1  0.33285824  0.75041986  0.25092131  1
  Mg  Mg37  1  0.49865452  0.49788072  0.25166509  1
  Mg  Mg38  1  0.66489340  0.24890846  0.24962264  1
  Mg  Mg39  1  0.16766696  0.00142967  0.25032017  1
  Mg  Mg40  1  0.50151519  0.00130636  0.74942665  1
  Mg  Mg41  1  0.67136049  0.24870162  0.75012419  1
  Mg  Mg42  1  0.50415081  -0.00065253  0.24802026  1
  Mg  Mg43  1  -0.00016597  0.74914919  0.74700173  1
  Mg  Mg44  1  0.16639758  0.00204440  0.74994216  1
  Mg  Mg45  1  -0.00108088  0.25114786  0.24980836  1
  Mg  Mg46  1  0.66727700  0.75295584  0.25060507  1
  Mg  Mg47  1  0.33380362  0.74703531  0.75138178  1
  Mg  Mg48  1  0.83506627  0.50021332  0.74807178  1
  Mg  Mg49  1  0.49752230  0.50046706  0.75228751  1
  Mg  Mg50  1  0.83150848  0.50176029  0.25037846  1
  Mg  Mg51  1  0.83060405  -0.00144410  0.24673957  1
  Mg  Mg52  1  0.16728851  0.49906050  0.24751403  1
  Mg  Mg53  1  0.16668149  0.83509620  0.24825032  1
  Mg  Mg54  1  -0.00203987  0.91651046  0.24931198  1
  Mg  Mg55  1  0.83669824  0.16240818  0.74898674  1
  Mg  Mg56  1  0.33294526  0.08418488  0.24587271  1
  Mg  Mg57  1  0.66710371  0.08168055  0.24854176  1
  Mg  Mg58  1  0.66775319  0.41642302  0.75212067  1
  Mg  Mg59  1  0.49704530  0.66429488  0.75269972  1
  Mg  Mg60  1  -0.00476947  0.91733373  0.74774946  1
  Mg  Mg61  1  0.49974688  0.33323131  0.25125239  1
  Mg  Mg62  1  -0.00183932  0.08517005  0.24769186  1
  Mg  Mg63  1  0.67351806  0.08329849  0.74987061  1
  Mg  Mg64  1  0.00174504  0.41191635  0.74952907  1
  Mg  Mg65  1  0.33363458  0.08538662  0.74920117  1
  Mg  Mg66  1  0.83267477  0.66610423  0.74766668  1
  Mg  Mg67  1  0.33326495  0.91589320  0.75076349  1
  Mg  Mg68  1  0.16745311  0.33283416  0.25067883  1
  Mg  Mg69  1  0.49917164  0.66630030  0.25148889  1
  Mg  Mg70  1  0.66399829  0.41595697  0.25032526  1
  Mg  Mg71  1  0.16956773  0.66297376  0.74817182  1
  Mg  Mg72  1  0.50051008  0.16488501  0.24540251  1
  Mg  Mg73  1  0.50185680  0.83519862  0.25099586  1
  Mg  Mg74  1  0.16296687  0.17022713  0.75050836  1
  Mg  Mg75  1  0.66936808  0.91804053  0.75039429  1
  Mg  Mg76  1  0.50062021  0.83396627  0.75152761  1
  Mg  Mg77  1  0.33412758  0.58462499  0.25209508  1
  Mg  Mg78  1  -0.00121202  0.58306333  0.74670352  1
  Mg  Mg79  1  0.66612327  0.58492894  0.75009845  1
  Mg  Mg80  1  0.82928577  0.33553250  0.25070807  1
  Mg  Mg81  1  0.00042742  0.58503644  0.24831700  1
  Mg  Mg82  1  0.16574725  0.83326841  0.74959171  1
  Mg  Mg83  1  0.32998163  0.41720213  0.74927409  1
  Mg  Mg84  1  0.50037713  0.33401624  0.75257864  1
  Mg  Mg85  1  0.33295747  0.91514075  0.24977448  1
  Mg  Mg86  1  0.83060097  0.83658131  0.24684238  1
  Mg  Mg87  1  -0.00151228  0.41721102  0.25030798  1
  Mg  Mg88  1  0.83770136  0.33221788  0.75066325  1
  Mg  Mg89  1  -0.00367444  0.08468787  0.74961448  1
  Mg  Mg90  1  0.50329861  0.16645080  0.75034338  1
  Mg  Mg91  1  0.16766656  0.16603034  0.24857662  1
  Mg  Mg92  1  0.16622499  0.66588416  0.24914223  1
  Mg  Mg93  1  0.33541974  0.41352035  0.25242198  1
  Mg  Mg94  1  0.83007413  0.16634333  0.24737991  1
  Mg  Mg95  1  0.83386727  0.66769448  0.24906549  1
  Fe  Fe96  1  0.97613460  0.16951223  0.89115307  1
  Fe  Fe97  1  0.85270779  0.58844045  0.60834901  1
  Fe  Fe98  1  0.02929511  0.15975389  0.60671673  1
  Fe  Fe99  1  0.64282065  0.33110005  0.39092731  1
  Fe  Fe100  1  0.81056872  0.91421616  0.38821676  1
  Fe  Fe101  1  0.85836528  0.92189876  0.10707975  1
  Fe  Fe102  1  0.85918128  0.07294027  0.60652450  1
  Fe  Fe103  1  0.02429713  0.66639914  0.10924497  1
  Fe  Fe104  1  0.30353591  0.83641590  0.39005824  1
  Fe  Fe105  1  0.46968403  0.41439871  0.39556049  1
  Fe  Fe106  1  0.35872013  0.33503500  0.10742575  1
  Fe  Fe107  1  0.18949228  0.08260446  0.10850514  1
  Fe  Fe108  1  0.52997094  0.07828890  0.10629457  1
  Fe  Fe109  1  0.02390859  0.33366093  0.61067850  1
  Fe  Fe110  1  0.69444984  0.16698849  0.60939543  1
  Fe  Fe111  1  0.69371398  0.17155956  0.10801861  1
  Fe  Fe112  1  0.35662941  0.66366962  0.11178409  1
  Si  Si113  1  0.64524276  0.16204876  0.38605106  1
  Si  Si114  1  0.47492350  0.91904589  0.38746636  1
  Si  Si115  1  0.02060028  0.33508398  0.11630738  1
  Si  Si116  1  0.02746427  0.17220523  0.11463149  1
  Si  Si117  1  0.69071395  0.33866152  0.11241608  1
  Si  Si118  1  0.86302303  0.09217633  0.11121147  1
  Si  Si119  1  0.36675293  0.16732941  0.61592159  1
  Si  Si120  1  0.52047540  0.90883873  0.11195994  1
  Si  Si121  1  0.52648587  0.41879261  0.61861849  1
  Si  Si122  1  0.13708946  0.41323289  0.38544115  1
  Si  Si123  1  0.30830345  0.16750411  0.88460959  1
  Si  Si124  1  0.81344196  0.58918015  0.38544512  1
  Si  Si125  1  0.80702518  0.42151230  0.88774758  1
  Si  Si126  1  0.13567686  0.08700299  0.38606864  1
  Si  Si127  1  0.14643506  0.08023428  0.88758643  1
  Si  Si128  1  0.81274941  0.08284866  0.38504435  1
  Si  Si129  1  0.68254779  0.67059631  0.61200358  1
  Si  Si130  1  0.64103252  0.16666480  0.88691850  1
  Si  Si131  1  0.29842803  0.32975356  0.39001513  1
  Si  Si132  1  0.19166590  0.57873706  0.11223653  1
  Si  Si133  1  0.97741721  0.83398739  0.88472926  1
  Si  Si134  1  0.64201753  0.66999765  0.38592263  1
  Si  Si135  1  0.14426168  0.91401696  0.88589659  1
  Si  Si136  1  0.30970021  0.66658568  0.88533788  1
  Si  Si137  1  0.30714163  0.33401324  0.88402536  1
  Si  Si138  1  0.02562347  0.83217550  0.61293405  1
  Si  Si139  1  0.47550464  0.91853810  0.88642588  1
  Si  Si140  1  0.36166838  0.66759473  0.61709262  1
  Si  Si141  1  0.14340278  0.57707037  0.38595078  1
  Si  Si142  1  0.36367775  0.33272096  0.61565936  1
  Si  Si143  1  0.52887051  0.42154596  0.11091433  1
  Si  Si144  1  0.47509844  0.08460136  0.38407787  1
  Si  Si145  1  0.68071872  0.83219558  0.61563958  1
  Si  Si146  1  0.97147289  0.17263908  0.38397056  1
  Si  Si147  1  0.35332208  0.83244451  0.11326125  1
  Si  Si148  1  0.98067252  0.66439249  0.38549348  1
  Si  Si149  1  0.47424578  0.08537288  0.88515640  1
  Si  Si150  1  0.31076219  0.83188015  0.88638300  1
  Si  Si151  1  0.80666705  0.91615803  0.88525683  1
  Si  Si152  1  0.63944033  0.83403934  0.38807901  1
  Si  Si153  1  0.19899987  0.41850395  0.61094916  1
  Si  Si154  1  0.68773555  0.33558588  0.61665644  1
  Si  Si155  1  0.85309607  0.90648700  0.61110509  1
  Si  Si156  1  0.80836438  0.42387091  0.38848189  1
  Si  Si157  1  0.52090428  0.91798913  0.61551140  1
  Si  Si158  1  0.19277532  0.91648503  0.61500385  1
  Si  Si159  1  0.47732769  0.58550741  0.39081710  1
  Si  Si160  1  0.69456143  0.66618043  0.11517829  1
  Si  Si161  1  0.68988770  0.82837631  0.11063856  1
  Si  Si162  1  0.14281668  0.42095500  0.88506427  1
  Si  Si163  1  0.85644756  0.58062892  0.11152306  1
  Si  Si164  1  0.13411119  0.92123644  0.38780937  1
  Si  Si165  1  0.80496749  0.08107806  0.89027722  1
  Si  Si166  1  0.03235289  0.66562974  0.61069383  1
  Si  Si167  1  0.20359580  0.08238670  0.61244854  1
  Si  Si168  1  0.18563610  0.41575515  0.11337703  1
  Si  Si169  1  0.80641354  0.58701818  0.88592936  1
  Si  Si170  1  0.47464675  0.41517618  0.88797463  1
  Si  Si171  1  0.30611054  0.66538888  0.38979800  1
  Si  Si172  1  0.97499394  0.34252060  0.89035868  1
  Si  Si173  1  0.85070985  0.41832007  0.61221109  1
  Si  Si174  1  0.30544134  0.16211470  0.38586415  1
  Si  Si175  1  0.02753590  0.83627504  0.11094540  1
  Si  Si176  1  0.19012369  0.91558592  0.11279432  1
  Si  Si177  1  0.52510841  0.58594765  0.11340995  1
  Si  Si178  1  0.63918566  0.66745345  0.88756599  1
  Si  Si179  1  0.97664599  0.82695968  0.38607866  1
  Si  Si180  1  0.47531616  0.58152893  0.88741006  1
  Si  Si181  1  0.35836509  0.83148264  0.61617044  1
  Si  Si182  1  0.52329717  0.58280725  0.61647848  1
  Si  Si183  1  0.14299274  0.58543834  0.88508791  1
  Si  Si184  1  0.19807861  0.58290661  0.61451096  1
  Si  Si185  1  0.96965657  0.33784328  0.38468580  1
  Si  Si186  1  0.64262041  0.33370352  0.88762129  1
  Si  Si187  1  0.36075840  0.16189852  0.10627259  1
  Si  Si188  1  0.64118449  0.83365098  0.88746763  1
  Si  Si189  1  0.52725254  0.08127498  0.61379017  1
  Si  Si190  1  0.85652291  0.41682219  0.11575398  1
  Si  Si191  1  0.97567971  0.66773309  0.88518661  1
  O  O192  1  0.28714437  0.10368471  0.07563446  1
  O  O193  1  0.29168646  0.11031194  0.58779569  1
  O  O194  1  0.27730381  0.59087442  0.08169446  1
  O  O195  1  0.27732144  0.62185179  0.58644656  1
  O  O196  1  0.61872310  0.10518139  0.06491802  1
  O  O197  1  0.60509474  0.10045373  0.57828298  1
  O  O198  1  0.61482194  0.61188731  0.09013653  1
  O  O199  1  0.60335141  0.61412711  0.58598689  1
  O  O200  1  0.95405237  0.11313602  0.08745114  1
  O  O201  1  0.95659763  0.08751349  0.57228263  1
  O  O202  1  0.93300912  0.60448324  0.07491936  1
  O  O203  1  0.94990759  0.62182497  0.57606326  1
  O  O204  1  0.10240377  0.36344276  0.08626535  1
  O  O205  1  0.11684532  0.37628913  0.57483985  1
  O  O206  1  0.12069296  0.85126771  0.08842598  1
  O  O207  1  0.10212970  0.87737375  0.58538452  1
  O  O208  1  0.45409865  0.37095003  0.07247794  1
  O  O209  1  0.44800187  0.36446938  0.58931201  1
  O  O210  1  0.43845788  0.85560577  0.08369880  1
  O  O211  1  0.43760158  0.86740080  0.58708078  1
  O  O212  1  0.77801097  0.36447654  0.08498361  1
  O  O213  1  0.77208997  0.36058415  0.58817234  1
  O  O214  1  0.76322040  0.86234103  0.07445014  1
  O  O215  1  0.76962826  0.85063187  0.59069851  1
  O  O216  1  0.26131863  0.39329774  0.07563962  1
  O  O217  1  0.28366896  0.38355992  0.58451770  1
  O  O218  1  0.27875497  0.89268902  0.08711850  1
  O  O219  1  0.26922305  0.87272108  0.58708016  1
  O  O220  1  0.61966519  0.40144864  0.08669057  1
  O  O221  1  0.61291031  0.39734752  0.59241816  1
  O  O222  1  0.59962304  0.86973631  0.08303847  1
  O  O223  1  0.60246421  0.88811187  0.58482749  1
  O  O224  1  0.94108749  0.38939001  0.08737732  1
  O  O225  1  0.93060642  0.39559663  0.57877498  1
  O  O226  1  0.95995276  0.89668834  0.07804012  1
  O  O227  1  0.93344529  0.86580719  0.58158639  1
  O  O228  1  0.10835121  0.15515143  0.08091550  1
  O  O229  1  0.13010536  0.13170924  0.57416519  1
  O  O230  1  0.12048947  0.63546642  0.07701601  1
  O  O231  1  0.11450356  0.63048080  0.58298759  1
  O  O232  1  0.44294228  0.14238663  0.07234079  1
  O  O233  1  0.44924089  0.13826761  0.58685194  1
  O  O234  1  0.45280609  0.63902368  0.07464204  1
  O  O235  1  0.44093081  0.63268601  0.58697442  1
  O  O236  1  0.79982918  0.15716614  0.08294220  1
  O  O237  1  0.78147761  0.14194513  0.56721433  1
  O  O238  1  0.77289612  0.63067886  0.08307425  1
  O  O239  1  0.76156299  0.65180551  0.57677347  1
  O  O240  1  0.06066565  0.13128092  0.41445333  1
  O  O241  1  0.07521060  0.11485159  0.92380953  1
  O  O242  1  0.06213194  0.61181377  0.41445268  1
  O  O243  1  0.06394649  0.62400454  0.91449368  1
  O  O244  1  0.39518677  0.11975043  0.41579460  1
  O  O245  1  0.39759858  0.12529984  0.91384891  1
  O  O246  1  0.39848046  0.62798964  0.41761234  1
  O  O247  1  0.39639102  0.62099482  0.91490958  1
  O  O248  1  0.72491962  0.10625733  0.41069516  1
  O  O249  1  0.72281242  0.11867186  0.91846429  1
  O  O250  1  0.73151114  0.62533686  0.41200679  1
  O  O251  1  0.73123475  0.63001880  0.91633885  1
  O  O252  1  0.21143393  0.35740017  0.41729403  1
  O  O253  1  0.23050308  0.37530732  0.91332908  1
  O  O254  1  0.21945039  0.88444708  0.42698908  1
  O  O255  1  0.23068915  0.86656824  0.91517421  1
  O  O256  1  0.55957589  0.36054192  0.43693073  1
  O  O257  1  0.56415726  0.37293623  0.91706016  1
  O  O258  1  0.55702930  0.86812069  0.41610612  1
  O  O259  1  0.56459178  0.87671560  0.91606955  1
  O  O260  1  0.89405189  0.37535846  0.41587517  1
  O  O261  1  0.89815849  0.38701999  0.92088450  1
  O  O262  1  0.89822715  0.84761149  0.42125048  1
  O  O263  1  0.89754115  0.87321269  0.91153505  1
  O  O264  1  0.05317507  0.38623792  0.41385239  1
  O  O265  1  0.06386719  0.38863757  0.91745858  1
  O  O266  1  0.05568186  0.88118997  0.41534889  1
  O  O267  1  0.06640871  0.87602580  0.91665543  1
  O  O268  1  0.37438242  0.37768669  0.42933934  1
  O  O269  1  0.39661520  0.37624126  0.91648701  1
  O  O270  1  0.40079083  0.88905102  0.42477417  1
  O  O271  1  0.39758447  0.87800534  0.91492175  1
  O  O272  1  0.73381803  0.39468456  0.42358320  1
  O  O273  1  0.73002312  0.37867217  0.91649704  1
  O  O274  1  0.71908864  0.87967278  0.42527239  1
  O  O275  1  0.73281613  0.86990497  0.91697969  1
  O  O276  1  0.22873123  0.12196462  0.41767210  1
  O  O277  1  0.23629764  0.12360939  0.91518160  1
  O  O278  1  0.23098903  0.61867523  0.41791655  1
  O  O279  1  0.22933404  0.63189823  0.91459607  1
  O  O280  1  0.56083410  0.12983558  0.41399408  1
  O  O281  1  0.55936819  0.13124767  0.91390428  1
  O  O282  1  0.56537853  0.63183341  0.41759976  1
  O  O283  1  0.56486589  0.62383588  0.91825080  1
  O  O284  1  0.88977324  0.14166190  0.41215749  1
  O  O285  1  0.88810396  0.12274667  0.92697007  1
  O  O286  1  0.89828144  0.63708336  0.41668401  1
  O  O287  1  0.89735362  0.62712810  0.91367602  1
  O  O288  1  0.15478616  -0.01047296  0.07696145  1
  O  O289  1  0.19282633  -0.00246782  0.58489557  1
  O  O290  1  0.15264332  0.49757420  0.09025303  1
  O  O291  1  0.19237031  0.50267645  0.58109782  1
  O  O292  1  0.49982693  -0.01586821  0.07326755  1
  O  O293  1  0.49363458  -0.00095608  0.58883356  1
  O  O294  1  0.50928424  0.50432195  0.08162246  1
  O  O295  1  0.50074791  0.50041395  0.59024310  1
  O  O296  1  0.83239306  0.01588516  0.07646419  1
  O  O297  1  0.82626053  -0.02090675  0.57064349  1
  O  O298  1  0.83083180  0.49738756  0.08605398  1
  O  O299  1  0.81519351  0.49607597  0.58172248  1
  O  O300  1  -0.00698709  0.25417399  0.08967530  1
  O  O301  1  0.00170680  0.24792311  0.56495721  1
  O  O302  1  -0.00501923  0.75914578  0.07791869  1
  O  O303  1  0.02992041  0.75011418  0.58388294  1
  O  O304  1  0.32732456  0.24167419  0.07871307  1
  O  O305  1  0.34710270  0.24977517  0.58730879  1
  O  O306  1  0.32082601  0.75619824  0.07936619  1
  O  O307  1  0.34762142  0.74959384  0.58653215  1
  O  O308  1  0.65861393  0.26506956  0.07541899  1
  O  O309  1  0.65159194  0.26057973  0.58484214  1
  O  O310  1  0.67329277  0.74485412  0.07941907  1
  O  O311  1  0.64755257  0.75194974  0.58723667  1
  O  O312  1  0.13422713  0.00511524  0.41547351  1
  O  O313  1  0.16279594  -0.00457079  0.91462118  1
  O  O314  1  0.15725698  0.49477703  0.41565603  1
  O  O315  1  0.15709734  0.50401491  0.91625297  1
  O  O316  1  0.49226444  0.00281124  0.41451133  1
  O  O317  1  0.48252788  0.00179770  0.91356321  1
  O  O318  1  0.48695066  0.50998702  0.42971547  1
  O  O319  1  0.48425767  0.49861390  0.91706183  1
  O  O320  1  0.84345747  0.00717413  0.41927225  1
  O  O321  1  0.81025412  -0.00362568  0.91908540  1
  O  O322  1  0.83081148  0.50746841  0.41549700  1
  O  O323  1  0.80791904  0.50507878  0.91692859  1
  O  O324  1  0.31215519  0.24463561  0.41508036  1
  O  O325  1  0.31550293  0.25075522  0.91330979  1
  O  O326  1  0.30868936  0.74262282  0.42643928  1
  O  O327  1  0.32572068  0.74934960  0.91523653  1
  O  O328  1  0.67127487  0.23726405  0.42298738  1
  O  O329  1  0.65267905  0.25053122  0.91541357  1
  O  O330  1  0.65220534  0.75062505  0.41957225  1
  O  O331  1  0.64124181  0.75036143  0.91615035  1
  O  O332  1  0.98585829  0.25557638  0.41207121  1
  O  O333  1  0.98492713  0.26524280  0.92653703  1
  O  O334  1  1.00883099  0.74500098  0.41329850  1
  O  O335  1  0.98373873  0.75038752  0.91519923  1
  O  O336  1  0.20976032  0.08257322  0.20052432  1
  O  O337  1  0.21596055  0.08060511  0.69348828  1
  O  O338  1  0.20872177  0.58294009  0.19419947  1
  O  O339  1  0.20989013  0.58249568  0.69430286  1
  O  O340  1  0.54641383  0.08129129  0.19849875  1
  O  O341  1  0.54313134  0.08315115  0.69519474  1
  O  O342  1  0.53062186  0.58415672  0.19282695  1
  O  O343  1  0.54220735  0.58420768  0.69722446  1
  O  O344  1  0.87885239  0.08661577  0.19290899  1
  O  O345  1  0.87671001  0.08019489  0.69777372  1
  O  O346  1  0.87689781  0.58331179  0.19249183  1
  O  O347  1  0.87673362  0.58437983  0.70059285  1
  O  O348  1  0.04014505  0.33616586  0.19691737  1
  O  O349  1  0.04281606  0.33235584  0.70062545  1
  O  O350  1  0.04372429  0.83457036  0.19307279  1
  O  O351  1  0.04539956  0.83229261  0.69357394  1
  O  O352  1  0.38218083  0.34153674  0.19701700  1
  O  O353  1  0.37971017  0.33318318  0.69626565  1
  O  O354  1  0.37550183  0.83239135  0.19423260  1
  O  O355  1  0.37666814  0.83267998  0.69691113  1
  O  O356  1  0.71156820  0.33489176  0.19322689  1
  O  O357  1  0.70815804  0.33613354  0.69819445  1
  O  O358  1  0.71107382  0.82719929  0.19042991  1
  O  O359  1  0.69264602  0.83211129  0.69516837  1
  O  O360  1  0.20708238  0.41450130  0.19469231  1
  O  O361  1  0.21561074  0.42150035  0.69084520  1
  O  O362  1  0.20795876  0.91845053  0.19407369  1
  O  O363  1  0.21169182  0.91499513  0.69571482  1
  O  O364  1  0.54324043  0.42001640  0.19135772  1
  O  O365  1  0.54269768  0.41808164  0.69941696  1
  O  O366  1  0.53679631  0.91351433  0.19210981  1
  O  O367  1  0.53913512  0.91570026  0.69622524  1
  O  O368  1  0.87639916  0.41749891  0.19623526  1
  O  O369  1  0.87285090  0.41787075  0.69425713  1
  O  O370  1  0.88055337  0.91655442  0.19831743  1
  O  O371  1  0.88231126  0.91584002  0.68929393  1
  O  O372  1  0.04309337  0.16982194  0.19587583  1
  O  O373  1  0.04942129  0.15972165  0.69802647  1
  O  O374  1  0.04534490  0.66589232  0.20127377  1
  O  O375  1  0.04740455  0.66550973  0.69207516  1
  O  O376  1  0.38118803  0.15668292  0.18736874  1
  O  O377  1  0.38176267  0.16745226  0.69662238  1
  O  O378  1  0.37641654  0.66699545  0.20383796  1
  O  O379  1  0.37978631  0.66952365  0.69686553  1
  O  O380  1  0.71091138  0.16821650  0.20039739  1
  O  O381  1  0.71209324  0.16676286  0.70222391  1
  O  O382  1  0.71637713  0.67309504  0.19412546  1
  O  O383  1  0.70390368  0.66698098  0.69344158  1
  O  O384  1  0.11972721  0.08624332  0.30594445  1
  O  O385  1  0.12964288  0.08051109  0.80696073  1
  O  O386  1  0.12503145  0.57953279  0.30576455  1
  O  O387  1  0.12431171  0.58516488  0.80472587  1
  O  O388  1  0.45407525  0.08333332  0.30418024  1
  O  O389  1  0.45710461  0.08314358  0.80447023  1
  O  O390  1  0.45827174  0.58313941  0.31014130  1
  O  O391  1  0.46136636  0.58266731  0.80785392  1
  O  O392  1  0.79531048  0.08311937  0.30422884  1
  O  O393  1  0.78699399  0.08433731  0.81055356  1
  O  O394  1  0.80187005  0.58634181  0.30605467  1
  O  O395  1  0.78679610  0.58467951  0.80586569  1
  O  O396  1  0.28228506  0.33856385  0.31037613  1
  O  O397  1  0.29680429  0.33452434  0.80480680  1
  O  O398  1  0.28650197  0.83366140  0.29873908  1
  O  O399  1  0.29240520  0.83270934  0.80565385  1
  O  O400  1  0.62346186  0.33273908  0.29852211  1
  O  O401  1  0.62314678  0.33520169  0.80728287  1
  O  O402  1  0.62199174  0.83112358  0.30791838  1
  O  O403  1  0.62072261  0.83299704  0.80720613  1
  O  O404  1  0.95375499  0.33699626  0.30431468  1
  O  O405  1  0.95138647  0.34447938  0.81093494  1
  O  O406  1  0.95963901  0.82972300  0.30536482  1
  O  O407  1  0.96861444  0.83104488  0.80563979  1
  O  O408  1  0.12067054  0.41643317  0.30500514  1
  O  O409  1  0.12297053  0.42274644  0.80581978  1
  O  O410  1  0.12223787  0.91823809  0.30699049  1
  O  O411  1  0.12780670  0.91329457  0.80544091  1
  O  O412  1  0.45533836  0.41681918  0.30372896  1
  O  O413  1  0.45821093  0.41624523  0.80766473  1
  O  O414  1  0.45602524  0.91671150  0.30663639  1
  O  O415  1  0.45681911  0.91631000  0.80584458  1
  O  O416  1  0.79164464  0.42009854  0.30748452  1
  O  O417  1  0.78851708  0.42094961  0.80747488  1
  O  O418  1  0.79016214  0.91589687  0.29818519  1
  O  O419  1  0.78242487  0.91855876  0.80689448  1
  O  O420  1  0.28572402  0.15907010  0.30676834  1
  O  O421  1  0.29370012  0.16573241  0.80430506  1
  O  O422  1  0.28632317  0.66586392  0.30907601  1
  O  O423  1  0.28997415  0.66868180  0.80563249  1
  O  O424  1  0.62467998  0.16528132  0.30570851  1
  O  O425  1  0.62218870  0.16745104  0.80654563  1
  O  O426  1  0.61991814  0.67378777  0.30669294  1
  O  O427  1  0.62047206  0.66600413  0.80713378  1
  O  O428  1  0.95614423  0.16963296  0.30354820  1
  O  O429  1  0.95451418  0.16601845  0.80162106  1
  O  O430  1  0.95902038  0.66489417  0.30526951  1
  O  O431  1  0.95911156  0.66735891  0.80514765  1
  F  F432  1  0.04631424  0.00087842  0.20397291  1
  F  F433  1  0.05071742  -0.00458779  0.70195803  1
  F  F434  1  0.04404882  0.49948023  0.20199983  1
  F  F435  1  0.04657919  0.50111499  0.70155755  1
  F  F436  1  0.37902833  -0.00295636  0.20362461  1
  F  F437  1  0.37941838  -0.00153069  0.70286277  1
  F  F438  1  0.37570632  0.50190339  0.20512852  1
  F  F439  1  0.38218287  0.49715777  0.70266404  1
  F  F440  1  0.71364808  0.00486761  0.19709342  1
  F  F441  1  0.70121162  -0.00127584  0.69948611  1
  F  F442  1  0.71751086  0.49172031  0.19979246  1
  F  F443  1  0.70925930  0.50150588  0.70457953  1
  F  F444  1  0.19749078  0.25125258  0.20000177  1
  F  F445  1  0.21778364  0.24394432  0.69883384  1
  F  F446  1  0.21020903  0.74801738  0.20196923  1
  F  F447  1  0.21432103  0.75063498  0.70118374  1
  F  F448  1  0.54501037  0.24925337  0.19848342  1
  F  F449  1  0.54589975  0.25198733  0.70513704  1
  F  F450  1  0.54461100  0.75029816  0.20273174  1
  F  F451  1  0.54159641  0.74839822  0.70557447  1
  F  F452  1  0.87882999  0.25406051  0.20325315  1
  F  F453  1  0.87038484  0.25114196  0.70197184  1
  F  F454  1  0.88066560  0.74940051  0.20183649  1
  F  F455  1  0.88390411  0.74028737  0.69784259  1
  F  F456  1  0.28874103  -0.00249019  0.30016338  1
  F  F457  1  0.29086199  -0.00115481  0.79850245  1
  F  F458  1  0.28508575  0.50068023  0.29863873  1
  F  F459  1  0.28760626  0.49732945  0.80061197  1
  F  F460  1  0.62163669  0.00024897  0.29899618  1
  F  F461  1  0.61799248  -0.00052984  0.79982049  1
  F  F462  1  0.61680369  0.49232457  0.30170994  1
  F  F463  1  0.62076826  0.50156720  0.80072157  1
  F  F464  1  0.95663570  0.00282719  0.29775817  1
  F  F465  1  0.96602470  -0.00324984  0.80155230  1
  F  F466  1  0.95556894  0.50141707  0.29742621  1
  F  F467  1  0.95604301  0.50153219  0.79867171  1
  F  F468  1  0.11842433  0.25134052  0.30047128  1
  F  F469  1  0.13861293  0.24668929  0.80892560  1
  F  F470  1  0.12295185  0.75190051  0.29900308  1
  F  F471  1  0.12380103  0.74772420  0.79589191  1
  F  F472  1  0.46725449  0.24583004  0.30033317  1
  F  F473  1  0.45565726  0.24983027  0.79990053  1
  F  F474  1  0.45475231  0.75283967  0.30102720  1
  F  F475  1  0.45464545  0.75083168  0.80204109  1
  F  F476  1  0.79061963  0.25280647  0.29931070  1
  F  F477  1  0.78690348  0.25631518  0.80381848  1
  F  F478  1  0.79019289  0.75034160  0.29847665  1
  F  F479  1  0.78186265  0.73887041  0.80144145  1
