# generated using pymatgen
data_K24Na3Li5Mg64Fe17Si79(O5F)48
_symmetry_space_group_name_H-M   'P 1'
_cell_length_a   16.10100063
_cell_length_b   18.59063218
_cell_length_c   20.55350128
_cell_angle_alpha   89.99979486
_cell_angle_beta   100.01713630
_cell_angle_gamma   89.99980587
_symmetry_Int_Tables_number   1
_chemical_formula_structural   K24Na3Li5Mg64Fe17Si79(O5F)48
_chemical_formula_sum   'K24 Na3 Li5 Mg64 Fe17 Si79 O240 F48'
_cell_volume   6058.44786918
_cell_formula_units_Z   1
loop_
 _symmetry_equiv_pos_site_id
 _symmetry_equiv_pos_as_xyz
  1  'x, y, z'
loop_
 _atom_site_type_symbol
 _atom_site_label
 _atom_site_symmetry_multiplicity
 _atom_site_fract_x
 _atom_site_fract_y
 _atom_site_fract_z
 _atom_site_occupancy
  K  K0  1  -0.01244638  0.00298890  -0.00313834  1
  K  K1  1  -0.00462500  -0.00069930  0.49877069  1
  K  K2  1  -0.00669769  0.49545539  0.00388897  1
  K  K3  1  0.00198505  0.48786644  0.49031534  1
  K  K4  1  0.33594622  -0.00102312  -0.00107176  1
  K  K5  1  0.34150812  0.00551844  0.50526803  1
  K  K6  1  0.33162578  0.49760015  0.00329644  1
  K  K7  1  0.33519345  0.50031964  0.49178851  1
  K  K8  1  0.66784065  0.00347193  -0.00218449  1
  K  K9  1  0.66897042  0.00943448  0.49831613  1
  K  K10  1  0.66032688  0.49959290  -0.00175280  1
  K  K11  1  0.66239455  0.49179341  0.50053944  1
  K  K12  1  0.17475610  0.24629643  0.00124799  1
  K  K13  1  0.16582862  0.24722085  0.50156482  1
  K  K14  1  0.17898424  0.74994890  0.00537088  1
  K  K15  1  0.16840395  0.74967475  0.49324349  1
  K  K16  1  0.47964336  0.23874041  -0.00083747  1
  K  K17  1  0.50670894  0.24324837  0.50610296  1
  K  K18  1  0.48853665  0.75949336  0.00239412  1
  K  K19  1  0.49483796  0.75463358  0.49253683  1
  K  K20  1  0.82460746  0.24637985  -0.00093266  1
  K  K21  1  0.82700987  0.24478588  0.49973667  1
  K  K22  1  0.82648462  0.75165318  0.00320558  1
  K  K23  1  0.83973118  0.75479362  0.48951952  1
  Na  Na24  1  0.83169312  0.00330640  0.75469854  1
  Na  Na25  1  0.83181778  0.16682010  0.75150837  1
  Na  Na26  1  0.83630870  0.82957016  0.25986203  1
  Li  Li27  1  0.33572503  0.75317083  0.75515444  1
  Li  Li28  1  0.16686091  0.50387863  0.24288724  1
  Li  Li29  1  0.49565678  0.16348130  0.74948397  1
  Li  Li30  1  0.83469313  0.16574203  0.25721338  1
  Li  Li31  1  0.49636062  0.83389515  0.24297680  1
  Mg  Mg32  1  0.49943293  0.50184303  0.74718428  1
  Mg  Mg33  1  0.66588554  0.75016551  0.25133245  1
  Mg  Mg34  1  0.49610979  0.00181910  0.74848864  1
  Mg  Mg35  1  0.00254014  0.74861302  0.25514039  1
  Mg  Mg36  1  0.16665081  0.50185671  0.74833003  1
  Mg  Mg37  1  0.83743943  0.49891277  0.25465591  1
  Mg  Mg38  1  0.33411989  0.25034977  0.24437004  1
  Mg  Mg39  1  -0.00169570  0.75134495  0.74874929  1
  Mg  Mg40  1  -0.00303237  0.24855912  0.25519198  1
  Mg  Mg41  1  0.50165556  -0.00179441  0.24641201  1
  Mg  Mg42  1  0.33826300  0.75015649  0.24668081  1
  Mg  Mg43  1  0.83273745  0.49982497  0.74684078  1
  Mg  Mg44  1  0.49913435  0.50192730  0.24651872  1
  Mg  Mg45  1  0.33450294  0.24712584  0.74825815  1
  Mg  Mg46  1  0.66970841  0.24904282  0.25475848  1
  Mg  Mg47  1  0.66520502  0.24888020  0.74729526  1
  Mg  Mg48  1  0.66445952  0.75012447  0.75162768  1
  Mg  Mg49  1  -0.00049089  0.24872543  0.75091802  1
  Mg  Mg50  1  0.16635857  -0.00099435  0.75134888  1
  Mg  Mg51  1  0.83374747  -0.00063721  0.25834736  1
  Mg  Mg52  1  0.16706630  -0.00000748  0.25020508  1
  Mg  Mg53  1  0.33403949  0.91408223  0.75181592  1
  Mg  Mg54  1  0.66604438  0.91799150  0.75180023  1
  Mg  Mg55  1  0.33030144  0.58465369  0.24639386  1
  Mg  Mg56  1  0.66617016  0.41554616  0.74392890  1
  Mg  Mg57  1  0.83697342  0.33107973  0.25649521  1
  Mg  Mg58  1  0.33429921  0.08451316  0.24705823  1
  Mg  Mg59  1  0.66930370  0.41638486  0.25319106  1
  Mg  Mg60  1  0.49923188  0.33501340  0.24788602  1
  Mg  Mg61  1  0.65953146  0.08543212  0.74924497  1
  Mg  Mg62  1  0.83223038  0.66587540  0.74965618  1
  Mg  Mg63  1  -0.00022391  0.58519976  0.74817537  1
  Mg  Mg64  1  0.00034340  0.91488371  0.25637971  1
  Mg  Mg65  1  0.33379417  0.58719007  0.74967417  1
  Mg  Mg66  1  0.33418970  0.08642619  0.74645894  1
  Mg  Mg67  1  0.33414696  0.41631604  0.74734571  1
  Mg  Mg68  1  0.49769574  0.83326390  0.75290785  1
  Mg  Mg69  1  0.66560315  0.58574861  0.74928652  1
  Mg  Mg70  1  0.83187184  0.33266742  0.74721110  1
  Mg  Mg71  1  0.16947983  0.66314437  0.24924496  1
  Mg  Mg72  1  0.49710293  0.66904841  0.24559210  1
  Mg  Mg73  1  0.66725613  0.58450744  0.24970557  1
  Mg  Mg74  1  0.83775244  0.66582621  0.25620832  1
  Mg  Mg75  1  0.16682514  0.16421420  0.74975541  1
  Mg  Mg76  1  -0.00232503  0.08351362  0.25576710  1
  Mg  Mg77  1  0.16940161  0.83211421  0.74960946  1
  Mg  Mg78  1  0.16853178  0.33404847  0.74954459  1
  Mg  Mg79  1  0.67048255  0.08571113  0.25401924  1
  Mg  Mg80  1  -0.00036291  0.41572608  0.74820916  1
  Mg  Mg81  1  0.66640104  0.91464661  0.25171740  1
  Mg  Mg82  1  0.00710835  0.58179561  0.25339229  1
  Mg  Mg83  1  0.00559348  0.41410158  0.25648282  1
  Mg  Mg84  1  0.32782172  0.41920000  0.24556276  1
  Mg  Mg85  1  -0.00077454  0.08353270  0.75520304  1
  Mg  Mg86  1  0.16877101  0.66929960  0.74854724  1
  Mg  Mg87  1  0.16781257  0.83387059  0.25096467  1
  Mg  Mg88  1  0.16589893  0.33598602  0.25061315  1
  Mg  Mg89  1  0.16556246  0.16646323  0.24895535  1
  Mg  Mg90  1  0.50179370  0.16594560  0.24889889  1
  Mg  Mg91  1  0.83138592  0.83541573  0.75045618  1
  Mg  Mg92  1  -0.00104208  0.91687655  0.75077638  1
  Mg  Mg93  1  0.49909036  0.33325104  0.74345243  1
  Mg  Mg94  1  0.49887526  0.66830645  0.75076451  1
  Mg  Mg95  1  0.33574621  0.91491709  0.24619486  1
  Fe  Fe96  1  0.47535823  0.08529074  0.88775194  1
  Fe  Fe97  1  0.63815942  0.66368748  0.89004523  1
  Fe  Fe98  1  0.35914457  0.16732541  0.60488334  1
  Fe  Fe99  1  0.14867793  0.57682802  0.39071651  1
  Fe  Fe100  1  0.30064381  0.16469331  0.88906096  1
  Fe  Fe101  1  0.30993848  0.83140173  0.88861126  1
  Fe  Fe102  1  0.35921103  0.66451284  0.10393385  1
  Fe  Fe103  1  0.35567136  0.84253109  0.10690673  1
  Fe  Fe104  1  0.18281425  0.41304245  0.10881417  1
  Fe  Fe105  1  0.98391033  0.83434371  0.39711582  1
  Fe  Fe106  1  0.35706800  0.16130258  0.10833286  1
  Fe  Fe107  1  0.97519662  0.32806850  0.39658610  1
  Fe  Fe108  1  0.79883773  0.08626272  0.89502045  1
  Fe  Fe109  1  0.68891484  0.32973334  0.60518414  1
  Fe  Fe110  1  0.18393078  0.58365283  0.10477134  1
  Fe  Fe111  1  0.64261912  0.17106767  0.39257821  1
  Fe  Fe112  1  0.97483369  0.16846355  0.89383842  1
  Si  Si113  1  0.02798732  0.33293477  0.61515264  1
  Si  Si114  1  0.86058431  0.91557503  0.61401386  1
  Si  Si115  1  0.86529207  0.58313743  0.11954853  1
  Si  Si116  1  0.18077543  0.08300765  0.11351479  1
  Si  Si117  1  0.64240352  0.83200996  0.88738935  1
  Si  Si118  1  0.31221355  0.83579199  0.38498970  1
  Si  Si119  1  0.69044493  0.15837734  0.61136379  1
  Si  Si120  1  0.01761600  0.16396026  0.11917349  1
  Si  Si121  1  0.53618511  0.91936303  0.11192945  1
  Si  Si122  1  0.86216405  0.41782839  0.61040061  1
  Si  Si123  1  0.53449646  0.58207418  0.11110807  1
  Si  Si124  1  0.47608614  0.41703568  0.88128932  1
  Si  Si125  1  0.52333625  0.58985195  0.61147310  1
  Si  Si126  1  0.52149954  0.42417179  0.60790857  1
  Si  Si127  1  0.97979893  0.33758450  0.88621406  1
  Si  Si128  1  0.81044175  0.58083060  0.88568675  1
  Si  Si129  1  0.36096414  0.33716133  0.10935634  1
  Si  Si130  1  0.18977848  0.91544117  0.61360944  1
  Si  Si131  1  0.69403146  0.83270182  0.61397209  1
  Si  Si132  1  0.63803699  0.34199429  0.38709338  1
  Si  Si133  1  0.52485066  0.90986689  0.61397638  1
  Si  Si134  1  0.48069299  0.91800644  0.88752929  1
  Si  Si135  1  0.01967203  0.83636933  0.11762814  1
  Si  Si136  1  0.31213492  0.67101234  0.38732312  1
  Si  Si137  1  0.96936249  0.83193665  0.88483679  1
  Si  Si138  1  0.70029704  0.66471683  0.11740493  1
  Si  Si139  1  0.63884812  0.66565452  0.38474267  1
  Si  Si140  1  0.47423945  0.58467968  0.38291594  1
  Si  Si141  1  0.52790294  0.07485836  0.60973872  1
  Si  Si142  1  0.18069649  0.92037788  0.11308235  1
  Si  Si143  1  0.63772361  0.83137632  0.38520968  1
  Si  Si144  1  0.81164146  0.41729460  0.88186423  1
  Si  Si145  1  0.63374081  0.17598973  0.88619231  1
  Si  Si146  1  0.97374567  0.66708944  0.88391541  1
  Si  Si147  1  0.80657617  0.58643094  0.38723356  1
  Si  Si148  1  0.35580546  0.34060777  0.60793052  1
  Si  Si149  1  0.01897627  0.32559714  0.11536595  1
  Si  Si150  1  0.69381136  0.66738040  0.61253039  1
  Si  Si151  1  0.31286152  0.32748676  0.38311543  1
  Si  Si152  1  0.86377969  0.08112215  0.61507843  1
  Si  Si153  1  0.15147975  0.92116883  0.39059055  1
  Si  Si154  1  0.97956632  0.15691512  0.39272718  1
  Si  Si155  1  0.80190126  0.91543965  0.39258007  1
  Si  Si156  1  0.14146463  0.42329334  0.88271185  1
  Si  Si157  1  0.14949515  0.40666969  0.39302742  1
  Si  Si158  1  0.30709555  0.66217125  0.88339010  1
  Si  Si159  1  0.18671225  0.08068877  0.60966606  1
  Si  Si160  1  0.70013152  0.17016257  0.12003414  1
  Si  Si161  1  0.64328103  0.33902312  0.88133173  1
  Si  Si162  1  0.02426253  0.66822274  0.61315937  1
  Si  Si163  1  0.19007132  0.41979704  0.61307448  1
  Si  Si164  1  0.35715528  0.83343686  0.61484395  1
  Si  Si165  1  0.30785417  0.33794623  0.88422462  1
  Si  Si166  1  0.13668028  0.91076324  0.88567061  1
  Si  Si167  1  0.85943701  0.58407679  0.61222859  1
  Si  Si168  1  0.47545912  0.91786126  0.38285886  1
  Si  Si169  1  0.35683759  0.66809788  0.61427183  1
  Si  Si170  1  0.97860146  0.66083683  0.39354371  1
  Si  Si171  1  0.80959281  0.07909128  0.39284830  1
  Si  Si172  1  0.80536660  0.91332591  0.88796909  1
  Si  Si173  1  0.69546120  0.82993816  0.11786058  1
  Si  Si174  1  0.46806909  0.58077988  0.88535892  1
  Si  Si175  1  0.31025082  0.16530184  0.38267390  1
  Si  Si176  1  0.02246735  0.67386461  0.11476094  1
  Si  Si177  1  0.53691869  0.08367560  0.11296666  1
  Si  Si178  1  0.69823636  0.33458052  0.11845484  1
  Si  Si179  1  0.86164602  0.41800906  0.11908939  1
  Si  Si180  1  0.80518374  0.42136246  0.39010985  1
  Si  Si181  1  0.13428607  0.07603027  0.88797023  1
  Si  Si182  1  0.47304299  0.08093580  0.38636064  1
  Si  Si183  1  0.02388665  0.16617021  0.61359149  1
  Si  Si184  1  0.46918320  0.41984559  0.38189724  1
  Si  Si185  1  0.02460141  0.83281202  0.61388507  1
  Si  Si186  1  0.85803133  0.07967403  0.12196021  1
  Si  Si187  1  0.13966797  0.58753697  0.88247130  1
  Si  Si188  1  0.14857997  0.08465881  0.38662591  1
  Si  Si189  1  0.85791555  0.91905549  0.12087998  1
  Si  Si190  1  0.53169708  0.41551385  0.11474759  1
  Si  Si191  1  0.19002312  0.58545986  0.61316012  1
  O  O192  1  0.25834743  0.10654560  0.07829207  1
  O  O193  1  0.25747724  0.11549625  0.57246222  1
  O  O194  1  0.27417512  0.60470928  0.06310782  1
  O  O195  1  0.26961409  0.62249314  0.58466826  1
  O  O196  1  0.61341038  0.12910213  0.08675028  1
  O  O197  1  0.61096177  0.10490658  0.58063472  1
  O  O198  1  0.62129993  0.61262374  0.08686398  1
  O  O199  1  0.60162740  0.63054053  0.58302879  1
  O  O200  1  0.94137794  0.10699148  0.09232829  1
  O  O201  1  0.93482206  0.12619720  0.58092075  1
  O  O202  1  0.94138576  0.61942808  0.08767998  1
  O  O203  1  0.93459761  0.62750865  0.58350028  1
  O  O204  1  0.09579439  0.34432416  0.07790069  1
  O  O205  1  0.10570391  0.37186312  0.58558464  1
  O  O206  1  0.10022514  0.86544831  0.08600330  1
  O  O207  1  0.10385041  0.86838033  0.58456877  1
  O  O208  1  0.44719120  0.37077935  0.08430733  1
  O  O209  1  0.42768747  0.39032227  0.58047276  1
  O  O210  1  0.44773609  0.88667065  0.07586330  1
  O  O211  1  0.43607037  0.86718938  0.58207971  1
  O  O212  1  0.77272515  0.37686112  0.08794835  1
  O  O213  1  0.77824787  0.37847241  0.57348487  1
  O  O214  1  0.77822219  0.86546737  0.09205920  1
  O  O215  1  0.76877606  0.87616562  0.58441448  1
  O  O216  1  0.28388401  0.38858256  0.07725923  1
  O  O217  1  0.26754381  0.38662513  0.58148092  1
  O  O218  1  0.25816720  0.90101895  0.07688411  1
  O  O219  1  0.26957013  0.87802221  0.58452602  1
  O  O220  1  0.61075176  0.37663988  0.08712503  1
  O  O221  1  0.59096407  0.38527153  0.57227132  1
  O  O222  1  0.61195395  0.87420119  0.08310707  1
  O  O223  1  0.60106199  0.86713910  0.58401063  1
  O  O224  1  0.93668429  0.37888813  0.08782866  1
  O  O225  1  0.94458244  0.38079969  0.58528461  1
  O  O226  1  0.93914776  0.88934461  0.08948082  1
  O  O227  1  0.93599637  0.87409557  0.58227822  1
  O  O228  1  0.10080153  0.13878214  0.08892403  1
  O  O229  1  0.09704346  0.12406310  0.58161262  1
  O  O230  1  0.09800759  0.65474449  0.07635089  1
  O  O231  1  0.10291681  0.63030394  0.58450253  1
  O  O232  1  0.44911082  0.11920992  0.07803141  1
  O  O233  1  0.44617802  0.11803690  0.57133117  1
  O  O234  1  0.45716617  0.62767563  0.07332310  1
  O  O235  1  0.43576011  0.63382289  0.58156885  1
  O  O236  1  0.77899409  0.13247650  0.09143249  1
  O  O237  1  0.77270344  0.11894971  0.58698003  1
  O  O238  1  0.78089677  0.63007624  0.08892659  1
  O  O239  1  0.76790062  0.62267728  0.58297946  1
  O  O240  1  0.06778622  0.11000803  0.41928943  1
  O  O241  1  0.05008376  0.09175688  0.91897077  1
  O  O242  1  0.04998389  0.60298855  0.42479733  1
  O  O243  1  0.05669483  0.61739074  0.91095662  1
  O  O244  1  0.38446106  0.10733887  0.41072860  1
  O  O245  1  0.38431398  0.10438451  0.92882309  1
  O  O246  1  0.40232159  0.62772120  0.41499680  1
  O  O247  1  0.37611308  0.59690355  0.90710985  1
  O  O248  1  0.74445616  0.12480500  0.42862170  1
  O  O249  1  0.70310446  0.12137621  0.92716985  1
  O  O250  1  0.72642836  0.62294221  0.41573666  1
  O  O251  1  0.73275726  0.60365054  0.92104403  1
  O  O252  1  0.23156859  0.35047593  0.41571833  1
  O  O253  1  0.22741629  0.37822694  0.91095998  1
  O  O254  1  0.23572573  0.87099181  0.41808002  1
  O  O255  1  0.20825033  0.85488587  0.91875990  1
  O  O256  1  0.55643496  0.37862170  0.41365946  1
  O  O257  1  0.56234558  0.37212420  0.91175902  1
  O  O258  1  0.55804692  0.86809022  0.41384400  1
  O  O259  1  0.55607512  0.85719084  0.91280087  1
  O  O260  1  0.88232449  0.37321859  0.42710546  1
  O  O261  1  0.89357846  0.36787577  0.91245387  1
  O  O262  1  0.88576944  0.87137238  0.42527983  1
  O  O263  1  0.88491268  0.85549991  0.91423354  1
  O  O264  1  0.07540734  0.37707766  0.43168309  1
  O  O265  1  0.05687646  0.39718317  0.91030142  1
  O  O266  1  0.07765981  0.89554559  0.42940864  1
  O  O267  1  0.04774913  0.88597658  0.91209252  1
  O  O268  1  0.39233382  0.38134076  0.41228653  1
  O  O269  1  0.39379058  0.38711938  0.91004136  1
  O  O270  1  0.39742951  0.88226049  0.41462164  1
  O  O271  1  0.39906665  0.89481066  0.91950022  1
  O  O272  1  0.71536174  0.39899467  0.41279715  1
  O  O273  1  0.72663073  0.39064037  0.91001406  1
  O  O274  1  0.72238388  0.87487121  0.42083504  1
  O  O275  1  0.72097681  0.88641449  0.91721907  1
  O  O276  1  0.22633085  0.14102304  0.41317767  1
  O  O277  1  0.20495109  0.13323919  0.92131948  1
  O  O278  1  0.24095880  0.63918576  0.42578927  1
  O  O279  1  0.21922918  0.63906730  0.91058586  1
  O  O280  1  0.54887377  0.13058114  0.42363293  1
  O  O281  1  0.54626444  0.16461353  0.91418187  1
  O  O282  1  0.56422738  0.62387425  0.41562708  1
  O  O283  1  0.54079577  0.63366181  0.92222738  1
  O  O284  1  0.90655063  0.10843241  0.41938012  1
  O  O285  1  0.88451314  0.14687612  0.93473918  1
  O  O286  1  0.88824247  0.63505026  0.41749627  1
  O  O287  1  0.89354565  0.63262435  0.91271799  1
  O  O288  1  0.14472009  0.00200923  0.09085250  1
  O  O289  1  0.17229660  -0.00387635  0.58209338  1
  O  O290  1  0.13996676  0.49743211  0.06924555  1
  O  O291  1  0.17468795  0.50292760  0.58475696  1
  O  O292  1  0.54647356  0.00204013  0.08482374  1
  O  O293  1  0.51726162  -0.01001272  0.58109891  1
  O  O294  1  0.52712548  0.49727286  0.08435261  1
  O  O295  1  0.51467669  0.50898761  0.57985437  1
  O  O296  1  0.83466782  -0.00050098  0.08893471  1
  O  O297  1  0.85702947  -0.00232517  0.58384760  1
  O  O298  1  0.85188555  0.50074252  0.08919817  1
  O  O299  1  0.85845122  0.50260588  0.58295174  1
  O  O300  1  -0.01472358  0.24347621  0.09161809  1
  O  O301  1  0.01813162  0.25050919  0.58608673  1
  O  O302  1  -0.01021519  0.75607869  0.08960402  1
  O  O303  1  0.01388739  0.75029561  0.58420801  1
  O  O304  1  0.34738327  0.25685880  0.07802026  1
  O  O305  1  0.34814331  0.26382160  0.57123848  1
  O  O306  1  0.33701494  0.75436995  0.06608355  1
  O  O307  1  0.34256037  0.75051127  0.58482573  1
  O  O308  1  0.69438317  0.25267811  0.08928309  1
  O  O309  1  0.67738057  0.23503953  0.57261584  1
  O  O310  1  0.68812907  0.74686550  0.08777224  1
  O  O311  1  0.69307822  0.74986899  0.58353071  1
  O  O312  1  0.17972543  0.00454663  0.41477773  1
  O  O313  1  0.16241284  -0.00764021  0.91213443  1
  O  O314  1  0.18157380  0.48449577  0.42392381  1
  O  O315  1  0.16001628  0.50583522  0.90994459  1
  O  O316  1  0.49023142  -0.00175713  0.41623108  1
  O  O317  1  0.51931279  -0.00597995  0.91700774  1
  O  O318  1  0.47793348  0.50210205  0.41290637  1
  O  O319  1  0.49450773  0.49831207  0.91153320  1
  O  O320  1  0.80889914  -0.00300435  0.42479289  1
  O  O321  1  0.83223484  -0.01060618  0.92227141  1
  O  O322  1  0.82052631  0.50518563  0.41807128  1
  O  O323  1  0.83737126  0.49833924  0.91115192  1
  O  O324  1  0.33985214  0.24573116  0.41098132  1
  O  O325  1  0.32178547  0.26142104  0.91969539  1
  O  O326  1  0.33107796  0.75466791  0.41569959  1
  O  O327  1  0.34185793  0.73647888  0.91687679  1
  O  O328  1  0.65821451  0.26634419  0.42394752  1
  O  O329  1  0.66630827  0.25972899  0.91186653  1
  O  O330  1  0.64526999  0.74791411  0.41531794  1
  O  O331  1  0.67185922  0.75511372  0.92116612  1
  O  O332  1  0.98779982  0.23333006  0.43101897  1
  O  O333  1  1.01045892  0.26377286  0.92261211  1
  O  O334  1  1.00064756  0.73868465  0.42898765  1
  O  O335  1  0.99140657  0.74899509  0.91262350  1
  O  O336  1  0.20625535  0.08410637  0.19473527  1
  O  O337  1  0.20515947  0.08107010  0.69031374  1
  O  O338  1  0.21359778  0.58689799  0.19597784  1
  O  O339  1  0.20818314  0.58480191  0.69341239  1
  O  O340  1  0.54774678  0.08345572  0.19390919  1
  O  O341  1  0.54154422  0.07626219  0.68933110  1
  O  O342  1  0.54748747  0.58218475  0.19227428  1
  O  O343  1  0.54153634  0.58618510  0.69154538  1
  O  O344  1  0.87762388  0.07889282  0.20158344  1
  O  O345  1  0.88991597  0.08037590  0.69261743  1
  O  O346  1  0.87980483  0.58172301  0.19981256  1
  O  O347  1  0.87610269  0.58515972  0.69290011  1
  O  O348  1  0.04080762  0.33008877  0.19602607  1
  O  O349  1  0.04611302  0.33539845  0.69540512  1
  O  O350  1  0.04391470  0.83574293  0.19775427  1
  O  O351  1  0.04113434  0.83229789  0.69404333  1
  O  O352  1  0.37866893  0.33581587  0.19125594  1
  O  O353  1  0.37401691  0.33857444  0.68885506  1
  O  O354  1  0.37500689  0.83437574  0.19802001  1
  O  O355  1  0.37896129  0.83533811  0.69384458  1
  O  O356  1  0.71331025  0.33568994  0.19875654  1
  O  O357  1  0.71126842  0.33570260  0.69623682  1
  O  O358  1  0.70493972  0.83064672  0.19694311  1
  O  O359  1  0.71011318  0.83108350  0.69410131  1
  O  O360  1  0.20915630  0.41452110  0.20048891  1
  O  O361  1  0.20920153  0.41959342  0.69355059  1
  O  O362  1  0.20485984  0.91726817  0.19440489  1
  O  O363  1  0.20686867  0.91592157  0.69339464  1
  O  O364  1  0.54751494  0.41731108  0.19538639  1
  O  O365  1  0.54157741  0.42273747  0.68890001  1
  O  O366  1  0.54975613  0.91968142  0.19233728  1
  O  O367  1  0.54205330  0.91052794  0.69390160  1
  O  O368  1  0.87605914  0.41687601  0.19903646  1
  O  O369  1  0.87777837  0.42010747  0.69150162  1
  O  O370  1  0.88007756  0.92300322  0.20001440  1
  O  O371  1  0.88008643  0.90832485  0.69305001  1
  O  O372  1  0.04020680  0.16410866  0.19969881  1
  O  O373  1  0.04550394  0.16682736  0.69350421  1
  O  O374  1  0.04258251  0.66913330  0.19541729  1
  O  O375  1  0.04042551  0.66651227  0.69344341  1
  O  O376  1  0.38002763  0.16592799  0.20020862  1
  O  O377  1  0.37408869  0.16900014  0.69428837  1
  O  O378  1  0.37863304  0.66537934  0.19730898  1
  O  O379  1  0.37856632  0.66353966  0.69344974  1
  O  O380  1  0.71251540  0.16910344  0.19945141  1
  O  O381  1  0.69778461  0.16594478  0.69021339  1
  O  O382  1  0.71462936  0.66470365  0.19761846  1
  O  O383  1  0.71179614  0.66611270  0.69265589  1
  O  O384  1  0.12644601  0.08383785  0.30630290  1
  O  O385  1  0.12361676  0.07986074  0.80596701  1
  O  O386  1  0.12406758  0.58483368  0.30076252  1
  O  O387  1  0.12074211  0.58574549  0.80149676  1
  O  O388  1  0.45866100  0.08160821  0.30567596  1
  O  O389  1  0.45129360  0.08030161  0.79713057  1
  O  O390  1  0.46075339  0.58354788  0.30322089  1
  O  O391  1  0.45677657  0.58275950  0.80397366  1
  O  O392  1  0.78853514  0.07963004  0.31275891  1
  O  O393  1  0.77173812  0.08475265  0.80743571  1
  O  O394  1  0.78938816  0.58228621  0.30685005  1
  O  O395  1  0.79130851  0.58335870  0.80422498  1
  O  O396  1  0.29422961  0.33004403  0.30304501  1
  O  O397  1  0.28930065  0.33766207  0.80296240  1
  O  O398  1  0.29046480  0.83624311  0.30522400  1
  O  O399  1  0.28613286  0.83348996  0.79761741  1
  O  O400  1  0.62145432  0.33721975  0.30614207  1
  O  O401  1  0.62080317  0.34061592  0.80131184  1
  O  O402  1  0.62636432  0.83174119  0.30615585  1
  O  O403  1  0.62439076  0.83169427  0.80576485  1
  O  O404  1  0.95635974  0.33221345  0.30505272  1
  O  O405  1  0.95868153  0.33739683  0.80493599  1
  O  O406  1  0.97113833  0.83154166  0.30747136  1
  O  O407  1  0.95329898  0.83051090  0.80403927  1
  O  O408  1  0.12199517  0.40574805  0.31312487  1
  O  O409  1  0.12327409  0.42033112  0.80178667  1
  O  O410  1  0.12925758  0.91826344  0.30976790  1
  O  O411  1  0.12077810  0.91107211  0.80423419  1
  O  O412  1  0.45583706  0.41834608  0.30177711  1
  O  O413  1  0.45746828  0.41872221  0.80052947  1
  O  O414  1  0.45633032  0.92107082  0.30370057  1
  O  O415  1  0.45814042  0.91578705  0.80557475  1
  O  O416  1  0.79122275  0.41906793  0.30908199  1
  O  O417  1  0.79219826  0.42015239  0.80148578  1
  O  O418  1  0.78334436  0.92115501  0.31295830  1
  O  O419  1  0.78490160  0.90704035  0.80791215  1
  O  O420  1  0.28895775  0.16574838  0.30257828  1
  O  O421  1  0.28486838  0.16706163  0.79673447  1
  O  O422  1  0.29288618  0.66956112  0.30727191  1
  O  O423  1  0.28598224  0.66295846  0.80275611  1
  O  O424  1  0.62132042  0.16759456  0.30113456  1
  O  O425  1  0.62207635  0.17247513  0.80553085  1
  O  O426  1  0.62176205  0.66421821  0.30476363  1
  O  O427  1  0.62172411  0.66547060  0.79777509  1
  O  O428  1  0.96403932  0.16387314  0.31281305  1
  O  O429  1  0.96618987  0.16959161  0.80318908  1
  O  O430  1  0.96007558  0.66336318  0.31199050  1
  O  O431  1  0.95510297  0.66652037  0.80296542  1
  F  F432  1  0.04443328  -0.00026791  0.20885343  1
  F  F433  1  0.04702405  -0.00323344  0.70113920  1
  F  F434  1  0.03559067  0.49585174  0.20335090  1
  F  F435  1  0.04448467  0.50193346  0.69910856  1
  F  F436  1  0.37938149  0.00141086  0.19983863  1
  F  F437  1  0.37459517  -0.00534745  0.69741308  1
  F  F438  1  0.38190875  0.50016875  0.19835250  1
  F  F439  1  0.37720129  0.50265273  0.69959539  1
  F  F440  1  0.71453566  0.00031522  0.20627052  1
  F  F441  1  0.69835921  -0.00412789  0.69703805  1
  F  F442  1  0.71494660  0.49943966  0.20426828  1
  F  F443  1  0.71207578  0.50415726  0.69833306  1
  F  F444  1  0.21071107  0.24917260  0.20152143  1
  F  F445  1  0.20960827  0.25437758  0.69811117  1
  F  F446  1  0.21268936  0.75184859  0.20377757  1
  F  F447  1  0.19790435  0.74843026  0.69382558  1
  F  F448  1  0.54809603  0.25379156  0.20128314  1
  F  F449  1  0.54757858  0.25941195  0.69493093  1
  F  F450  1  0.55093798  0.74401696  0.19916984  1
  F  F451  1  0.54469592  0.75099000  0.69885927  1
  F  F452  1  0.87760099  0.24959094  0.20616656  1
  F  F453  1  0.88559070  0.26255586  0.69579491  1
  F  F454  1  0.88404369  0.73895398  0.20425497  1
  F  F455  1  0.87682093  0.74809968  0.70000364  1
  F  F456  1  0.28931490  0.00020227  0.29472430  1
  F  F457  1  0.28649554  -0.00020310  0.79389357  1
  F  F458  1  0.30461763  0.50160499  0.30155371  1
  F  F459  1  0.28752100  0.50058626  0.79437843  1
  F  F460  1  0.62001841  -0.00017557  0.29895670  1
  F  F461  1  0.61587169  -0.00227750  0.79621599  1
  F  F462  1  0.62103716  0.50140778  0.29774428  1
  F  F463  1  0.62157533  0.50073124  0.79335395  1
  F  F464  1  0.95716971  -0.00074619  0.30617178  1
  F  F465  1  0.96683331  -0.00416433  0.80238704  1
  F  F466  1  0.95539000  0.49897085  0.30359273  1
  F  F467  1  0.95469877  0.50205008  0.79463804  1
  F  F468  1  0.12270071  0.24784252  0.29817894  1
  F  F469  1  0.12329768  0.25255429  0.79559353  1
  F  F470  1  0.12602111  0.74982446  0.29896968  1
  F  F471  1  0.11693450  0.74788641  0.79637248  1
  F  F472  1  0.45590993  0.25316321  0.29669793  1
  F  F473  1  0.45018021  0.26276531  0.79586449  1
  F  F474  1  0.45692792  0.74565600  0.30137920  1
  F  F475  1  0.45879744  0.74885775  0.79800688  1
  F  F476  1  0.78516998  0.25681358  0.30634688  1
  F  F477  1  0.78275826  0.26224780  0.80056367  1
  F  F478  1  0.78114791  0.73702270  0.30698990  1
  F  F479  1  0.78803287  0.74742309  0.79618291  1
