# generated using pymatgen
data_K24Na3Li5Mg64Fe17Si79(O5F)48
_symmetry_space_group_name_H-M   'P 1'
_cell_length_a   16.07734373
_cell_length_b   18.57858506
_cell_length_c   20.55495861
_cell_angle_alpha   89.97738801
_cell_angle_beta   100.01308835
_cell_angle_gamma   90.04596407
_symmetry_Int_Tables_number   1
_chemical_formula_structural   K24Na3Li5Mg64Fe17Si79(O5F)48
_chemical_formula_sum   'K24 Na3 Li5 Mg64 Fe17 Si79 O240 F48'
_cell_volume   6046.12801998
_cell_formula_units_Z   1
loop_
 _symmetry_equiv_pos_site_id
 _symmetry_equiv_pos_as_xyz
  1  'x, y, z'
loop_
 _atom_site_type_symbol
 _atom_site_label
 _atom_site_symmetry_multiplicity
 _atom_site_fract_x
 _atom_site_fract_y
 _atom_site_fract_z
 _atom_site_occupancy
  K  K0  1  -0.01203491  0.00674433  0.00527167  1
  K  K1  1  0.00004633  -0.00168542  0.49667642  1
  K  K2  1  -0.01021545  0.49555020  0.00245958  1
  K  K3  1  0.00406467  0.49517217  0.49830423  1
  K  K4  1  0.33767997  -0.00215236  -0.00165639  1
  K  K5  1  0.34618641  -0.00716525  0.50140256  1
  K  K6  1  0.33971537  0.50580938  -0.00080496  1
  K  K7  1  0.33393006  0.50385598  0.50573239  1
  K  K8  1  0.67507474  -0.00887597  0.00199677  1
  K  K9  1  0.66752873  0.00531195  0.49525739  1
  K  K10  1  0.66258574  0.49207480  -0.00122906  1
  K  K11  1  0.67235240  0.50974111  0.49866976  1
  K  K12  1  0.15993767  0.25476102  0.00270143  1
  K  K13  1  0.16168667  0.25135462  0.50157363  1
  K  K14  1  0.16953443  0.74853985  -0.00052383  1
  K  K15  1  0.17210029  0.74949492  0.50138437  1
  K  K16  1  0.51066859  0.25139071  0.00279249  1
  K  K17  1  0.51017186  0.24965419  0.50013258  1
  K  K18  1  0.50409935  0.74875375  0.00087622  1
  K  K19  1  0.50222453  0.74895150  0.50043127  1
  K  K20  1  0.82680794  0.25933193  0.00452763  1
  K  K21  1  0.82822329  0.24323518  0.49935804  1
  K  K22  1  0.82432590  0.74869421  0.00119148  1
  K  K23  1  0.82537857  0.74946926  0.49656469  1
  Na  Na24  1  0.49746266  0.49981067  0.75343184  1
  Na  Na25  1  0.33597988  0.42141667  0.75382323  1
  Na  Na26  1  0.33282450  0.08032815  0.75008324  1
  Li  Li27  1  0.16521268  0.50010407  0.25613396  1
  Li  Li28  1  0.83054000  -0.00230452  0.74725173  1
  Li  Li29  1  0.50487525  0.16658949  0.25497810  1
  Li  Li30  1  0.50218975  0.83425080  0.24578998  1
  Li  Li31  1  0.49888619  0.66410770  0.74778575  1
  Mg  Mg32  1  0.66729130  0.25037405  0.75831697  1
  Mg  Mg33  1  0.33444998  0.24913219  0.24950617  1
  Mg  Mg34  1  0.50110695  0.00190268  0.24878870  1
  Mg  Mg35  1  0.00005196  0.74875055  0.25029028  1
  Mg  Mg36  1  0.66385043  0.24996631  0.25502276  1
  Mg  Mg37  1  0.83238169  0.49988136  0.25595360  1
  Mg  Mg38  1  0.83300765  -0.00257611  0.24765859  1
  Mg  Mg39  1  0.50015640  -0.00251253  0.74736259  1
  Mg  Mg40  1  0.33423337  0.25197782  0.75354887  1
  Mg  Mg41  1  0.16847499  -0.00123065  0.74639569  1
  Mg  Mg42  1  0.16711643  -0.00005459  0.24462015  1
  Mg  Mg43  1  0.66452587  0.75094556  0.24604049  1
  Mg  Mg44  1  0.16722978  0.49935192  0.74993602  1
  Mg  Mg45  1  -0.00005386  0.25012555  0.24951383  1
  Mg  Mg46  1  0.83113694  0.49945609  0.75502176  1
  Mg  Mg47  1  0.49865912  0.50095656  0.24850478  1
  Mg  Mg48  1  0.33791414  0.74885459  0.74714665  1
  Mg  Mg49  1  -0.00058035  0.24916409  0.75010941  1
  Mg  Mg50  1  0.33637048  0.75098157  0.24705004  1
  Mg  Mg51  1  0.00024412  0.75190630  0.74609132  1
  Mg  Mg52  1  0.66295796  0.75078554  0.74689586  1
  Mg  Mg53  1  0.33655479  0.08502976  0.24844967  1
  Mg  Mg54  1  0.83556972  0.33473658  0.25684203  1
  Mg  Mg55  1  0.16739257  0.83351875  0.24630756  1
  Mg  Mg56  1  0.33728547  0.91645475  0.24665245  1
  Mg  Mg57  1  0.83321614  0.83351172  0.24745314  1
  Mg  Mg58  1  -0.00235643  0.08066348  0.74939435  1
  Mg  Mg59  1  0.16538770  0.33355509  0.75082823  1
  Mg  Mg60  1  0.66838268  0.41610588  0.25679809  1
  Mg  Mg61  1  0.66274431  0.58464558  0.75297067  1
  Mg  Mg62  1  0.16548885  0.33715089  0.24944917  1
  Mg  Mg63  1  0.83350847  0.16465487  0.25124183  1
  Mg  Mg64  1  0.66647309  0.58407731  0.25042991  1
  Mg  Mg65  1  0.33475918  0.58452151  0.74808913  1
  Mg  Mg66  1  -0.00089995  0.08463976  0.24355812  1
  Mg  Mg67  1  0.66487436  0.08547276  0.25273136  1
  Mg  Mg68  1  0.66456049  0.91413082  0.24685102  1
  Mg  Mg69  1  0.49940727  0.33187564  0.25285347  1
  Mg  Mg70  1  0.50320744  0.33429084  0.75759685  1
  Mg  Mg71  1  0.00446679  0.58135550  0.25334087  1
  Mg  Mg72  1  0.33078693  0.58426592  0.24836767  1
  Mg  Mg73  1  0.83398342  0.66459346  0.25225648  1
  Mg  Mg74  1  0.50063413  0.66800367  0.24733406  1
  Mg  Mg75  1  0.49849161  0.16484357  0.75371656  1
  Mg  Mg76  1  0.83277690  0.16289981  0.75250466  1
  Mg  Mg77  1  0.82985521  0.66770099  0.74994342  1
  Mg  Mg78  1  0.16653036  0.83430121  0.74453561  1
  Mg  Mg79  1  -0.00216934  0.91438101  0.24568961  1
  Mg  Mg80  1  0.66687544  0.08201071  0.75203676  1
  Mg  Mg81  1  0.16687338  0.16574919  0.74925735  1
  Mg  Mg82  1  0.32979636  0.41821715  0.24963138  1
  Mg  Mg83  1  -0.00114568  0.41416012  0.75141019  1
  Mg  Mg84  1  0.00272826  0.41641511  0.25499357  1
  Mg  Mg85  1  0.16770583  0.66361279  0.24987205  1
  Mg  Mg86  1  0.83277853  0.33455504  0.75512399  1
  Mg  Mg87  1  0.66720804  0.41616750  0.75804801  1
  Mg  Mg88  1  0.66705929  0.91595389  0.74609666  1
  Mg  Mg89  1  -0.00194916  0.91623186  0.74592672  1
  Mg  Mg90  1  0.83069176  0.83663641  0.74583940  1
  Mg  Mg91  1  0.49891486  0.83187391  0.74672656  1
  Mg  Mg92  1  -0.00215228  0.58425136  0.74971029  1
  Mg  Mg93  1  0.33402452  0.91418014  0.74448198  1
  Mg  Mg94  1  0.16569423  0.66612446  0.74768477  1
  Mg  Mg95  1  0.16519522  0.16707512  0.24483260  1
  Fe  Fe96  1  0.98098583  0.83466420  0.38806679  1
  Fe  Fe97  1  0.80925409  0.41712487  0.39758986  1
  Fe  Fe98  1  0.81212982  0.59068239  0.39298693  1
  Fe  Fe99  1  0.02452731  0.33245017  0.61125110  1
  Fe  Fe100  1  0.64237497  0.16954901  0.39265006  1
  Fe  Fe101  1  0.52338416  0.57828370  0.10949884  1
  Fe  Fe102  1  0.36509535  0.82987013  0.60569896  1
  Fe  Fe103  1  0.53197461  0.92195404  0.60644481  1
  Fe  Fe104  1  0.02634444  0.17267208  0.10604413  1
  Fe  Fe105  1  0.85968038  0.91384159  0.10479182  1
  Fe  Fe106  1  0.68584053  0.82912028  0.10549093  1
  Fe  Fe107  1  0.02825091  0.83434231  0.60686509  1
  Fe  Fe108  1  0.81050826  0.41995250  0.89648483  1
  Fe  Fe109  1  0.63750563  0.33165034  0.89995915  1
  Fe  Fe110  1  0.14499694  0.57958308  0.38976735  1
  Fe  Fe111  1  0.69780940  0.83351951  0.60642950  1
  Fe  Fe112  1  0.97750399  0.32472509  0.39290171  1
  Si  Si113  1  0.30684946  0.16649153  0.38252768  1
  Si  Si114  1  0.69046121  0.16987225  0.11654843  1
  Si  Si115  1  0.13912503  0.58295036  0.88533495  1
  Si  Si116  1  0.69161760  0.33510073  0.12035666  1
  Si  Si117  1  0.14252103  0.91781149  0.88322580  1
  Si  Si118  1  0.02098452  0.66142490  0.61195368  1
  Si  Si119  1  0.86463503  0.91836124  0.61144362  1
  Si  Si120  1  0.81219175  0.07891788  0.38753938  1
  Si  Si121  1  0.46899542  0.58460144  0.38312091  1
  Si  Si122  1  0.35738889  0.67226395  0.10875981  1
  Si  Si123  1  0.80404397  0.91245263  0.38607534  1
  Si  Si124  1  0.97673595  0.67174482  0.88490353  1
  Si  Si125  1  0.85416619  0.08042546  0.61753801  1
  Si  Si126  1  0.69192563  0.16833832  0.61887068  1
  Si  Si127  1  0.69413614  0.33266970  0.61840874  1
  Si  Si128  1  0.52436563  0.08816631  0.11528311  1
  Si  Si129  1  0.63451926  0.83502554  0.38153768  1
  Si  Si130  1  0.64281615  0.15779201  0.89303461  1
  Si  Si131  1  0.47015475  0.08265619  0.38651798  1
  Si  Si132  1  0.35785353  0.16523023  0.11472072  1
  Si  Si133  1  0.14813228  0.91982041  0.38168574  1
  Si  Si134  1  0.63896687  0.66935769  0.88571471  1
  Si  Si135  1  0.80823538  0.91398858  0.88350579  1
  Si  Si136  1  0.47441633  0.07929942  0.88704483  1
  Si  Si137  1  0.03259371  0.83000117  0.10814015  1
  Si  Si138  1  0.36311152  0.33502419  0.61883137  1
  Si  Si139  1  0.19477464  0.41463079  0.61572511  1
  Si  Si140  1  0.47090574  0.41781375  0.89465722  1
  Si  Si141  1  0.85255236  0.08647790  0.10850383  1
  Si  Si142  1  0.51921012  0.40934350  0.11546214  1
  Si  Si143  1  0.63415954  0.34117506  0.39257857  1
  Si  Si144  1  0.30512748  0.83157057  0.88319429  1
  Si  Si145  1  0.19551896  0.42126780  0.11462376  1
  Si  Si146  1  0.35397590  0.32854416  0.11473977  1
  Si  Si147  1  0.47185138  0.91955691  0.38125894  1
  Si  Si148  1  0.02791868  0.66372400  0.11290798  1
  Si  Si149  1  0.85635744  0.41871611  0.61687049  1
  Si  Si150  1  0.86197768  0.58504380  0.11682856  1
  Si  Si151  1  0.80971566  0.59242337  0.88989016  1
  Si  Si152  1  0.30982111  0.83421633  0.38056316  1
  Si  Si153  1  0.52361272  0.92450967  0.10996206  1
  Si  Si154  1  0.52945711  0.41211017  0.61800831  1
  Si  Si155  1  0.69178884  0.65921362  0.11059297  1
  Si  Si156  1  0.30848872  0.67091614  0.38496567  1
  Si  Si157  1  0.14860475  0.08035977  0.37981065  1
  Si  Si158  1  0.68671552  0.66359156  0.61263290  1
  Si  Si159  1  0.36065026  0.83771789  0.11221295  1
  Si  Si160  1  0.98120244  0.66860130  0.38836341  1
  Si  Si161  1  0.30632154  0.33001886  0.38391213  1
  Si  Si162  1  0.80963153  0.07968706  0.88621423  1
  Si  Si163  1  0.52009119  0.09169752  0.61417159  1
  Si  Si164  1  0.19535739  0.91535793  0.11077924  1
  Si  Si165  1  0.63925798  0.83471699  0.88507461  1
  Si  Si166  1  0.19866144  0.92052358  0.60732540  1
  Si  Si167  1  0.14063527  0.41647219  0.88797871  1
  Si  Si168  1  0.97723766  0.16237230  0.88592729  1
  Si  Si169  1  0.30551712  0.66691572  0.88457445  1
  Si  Si170  1  0.18952874  0.57967394  0.61460414  1
  Si  Si171  1  0.97743157  0.32906215  0.89084844  1
  Si  Si172  1  0.14661666  0.41229532  0.38998674  1
  Si  Si173  1  0.85686636  0.42058714  0.11881059  1
  Si  Si174  1  0.02559864  0.34324898  0.11173855  1
  Si  Si175  1  0.97634262  0.83595960  0.88385412  1
  Si  Si176  1  0.47122620  0.91484217  0.88513831  1
  Si  Si177  1  0.85432756  0.58199556  0.61808354  1
  Si  Si178  1  0.19624425  0.58665021  0.11249267  1
  Si  Si179  1  0.19530756  0.08114129  0.10847475  1
  Si  Si180  1  0.18811672  0.08638286  0.61351853  1
  Si  Si181  1  0.30873822  0.16920067  0.88778406  1
  Si  Si182  1  0.01844808  0.16190345  0.61269560  1
  Si  Si183  1  0.63531540  0.66919332  0.38655881  1
  Si  Si184  1  0.35627569  0.66006527  0.61151027  1
  Si  Si185  1  0.35544258  0.17426827  0.61676096  1
  Si  Si186  1  0.46536063  0.41886712  0.38428051  1
  Si  Si187  1  0.98287729  0.15479571  0.38535894  1
  Si  Si188  1  0.52629834  0.57822206  0.61703061  1
  Si  Si189  1  0.14467580  0.08238688  0.88521390  1
  Si  Si190  1  0.30476322  0.33298182  0.88965196  1
  Si  Si191  1  0.47082724  0.58693828  0.88581521  1
  O  O192  1  0.28258122  0.10852451  0.08252251  1
  O  O193  1  0.26979456  0.12588788  0.58824483  1
  O  O194  1  0.26609637  0.63179430  0.07845537  1
  O  O195  1  0.27035221  0.61028529  0.58443860  1
  O  O196  1  0.60320347  0.12581308  0.08563857  1
  O  O197  1  0.60302019  0.12831457  0.58805463  1
  O  O198  1  0.62508591  0.59669487  0.08007303  1
  O  O199  1  0.60639745  0.60922404  0.58366230  1
  O  O200  1  0.92675050  0.12292872  0.07449567  1
  O  O201  1  0.93722878  0.10758808  0.58660802  1
  O  O202  1  0.94216468  0.61699693  0.08429151  1
  O  O203  1  0.93895634  0.60694055  0.58933634  1
  O  O204  1  0.10160529  0.38891093  0.08336139  1
  O  O205  1  0.12259017  0.36062204  0.57890904  1
  O  O206  1  0.11901247  0.85955441  0.08148631  1
  O  O207  1  0.12377590  0.86631300  0.57442607  1
  O  O208  1  0.43951445  0.35337933  0.08729981  1
  O  O209  1  0.44444330  0.36468963  0.58685705  1
  O  O210  1  0.43657144  0.87691863  0.08179471  1
  O  O211  1  0.45259529  0.85770215  0.56421122  1
  O  O212  1  0.77051186  0.37342345  0.09140604  1
  O  O213  1  0.77356428  0.36753252  0.58916429  1
  O  O214  1  0.77323542  0.85663334  0.06298352  1
  O  O215  1  0.79935967  0.85722010  0.57755672  1
  O  O216  1  0.27008728  0.37726261  0.08348066  1
  O  O217  1  0.28510413  0.39074340  0.59296324  1
  O  O218  1  0.27686756  0.88599711  0.08032765  1
  O  O219  1  0.28225742  0.90054365  0.57744919  1
  O  O220  1  0.60389845  0.37718196  0.08975052  1
  O  O221  1  0.60803340  0.37689948  0.58602683  1
  O  O222  1  0.59551235  0.89319455  0.07222738  1
  O  O223  1  0.62658063  0.90536042  0.56941805  1
  O  O224  1  0.93617765  0.38788093  0.08696875  1
  O  O225  1  0.93528544  0.39667301  0.58271880  1
  O  O226  1  0.95692151  0.87957015  0.07169822  1
  O  O227  1  0.95181560  0.90948309  0.58199717  1
  O  O228  1  0.11799674  0.12979498  0.07224430  1
  O  O229  1  0.10134655  0.13117211  0.58267808  1
  O  O230  1  0.10368756  0.62282388  0.08189009  1
  O  O231  1  0.10287590  0.62496224  0.58508274  1
  O  O232  1  0.44230563  0.13976189  0.08578570  1
  O  O233  1  0.43818157  0.14534920  0.58704046  1
  O  O234  1  0.43031409  0.63818046  0.07344028  1
  O  O235  1  0.43696060  0.61910617  0.58521670  1
  O  O236  1  0.76676596  0.13629848  0.08365035  1
  O  O237  1  0.77138502  0.13215329  0.58964216  1
  O  O238  1  0.78280891  0.63682497  0.08648018  1
  O  O239  1  0.77305347  0.63197511  0.58774598  1
  O  O240  1  0.06238769  0.09737215  0.40856377  1
  O  O241  1  0.06440069  0.11701731  0.91458702  1
  O  O242  1  0.04389063  0.60278028  0.41866472  1
  O  O243  1  0.06166234  0.62325058  0.91511904  1
  O  O244  1  0.38269608  0.11106766  0.41247761  1
  O  O245  1  0.39789052  0.12479234  0.91443160  1
  O  O246  1  0.39033405  0.61880572  0.41384299  1
  O  O247  1  0.39468824  0.62846853  0.91817746  1
  O  O248  1  0.74262630  0.11705147  0.42429011  1
  O  O249  1  0.73191816  0.11271234  0.91956800  1
  O  O250  1  0.71460849  0.62477257  0.42501519  1
  O  O251  1  0.73031232  0.63174974  0.91811080  1
  O  O252  1  0.22307787  0.35087978  0.41454580  1
  O  O253  1  0.22638133  0.37186981  0.91961231  1
  O  O254  1  0.22669544  0.86360382  0.40883529  1
  O  O255  1  0.22921896  0.87275895  0.91427449  1
  O  O256  1  0.54346664  0.36692398  0.41559839  1
  O  O257  1  0.55016616  0.37605489  0.93799720  1
  O  O258  1  0.55441087  0.87067021  0.41046864  1
  O  O259  1  0.56300931  0.87705938  0.91499720  1
  O  O260  1  0.88248426  0.34273549  0.42889709  1
  O  O261  1  0.90804139  0.36301782  0.92910255  1
  O  O262  1  0.88167081  0.86199254  0.41953370  1
  O  O263  1  0.89611071  0.86933926  0.91392602  1
  O  O264  1  0.06743183  0.38819205  0.42432589  1
  O  O265  1  0.06625501  0.37431013  0.91806922  1
  O  O266  1  0.06792029  0.90362746  0.41612180  1
  O  O267  1  0.06273949  0.88232316  0.91317282  1
  O  O268  1  0.38310846  0.38641198  0.41299157  1
  O  O269  1  0.38531738  0.38379408  0.92028664  1
  O  O270  1  0.38926382  0.88701791  0.40905072  1
  O  O271  1  0.39575262  0.87065006  0.91445309  1
  O  O272  1  0.70197170  0.40179113  0.42229684  1
  O  O273  1  0.73220917  0.38077718  0.94156724  1
  O  O274  1  0.71808509  0.88305297  0.41258701  1
  O  O275  1  0.72926615  0.87669183  0.91378004  1
  O  O276  1  0.22120155  0.14042972  0.41006574  1
  O  O277  1  0.23182873  0.12648351  0.91718687  1
  O  O278  1  0.23132309  0.64792847  0.42064804  1
  O  O279  1  0.22789705  0.62576417  0.91452220  1
  O  O280  1  0.54725639  0.13086914  0.42420001  1
  O  O281  1  0.56670488  0.11214290  0.92118122  1
  O  O282  1  0.55132124  0.63383996  0.41238888  1
  O  O283  1  0.56191005  0.62799278  0.91522623  1
  O  O284  1  0.90410394  0.11796056  0.41507900  1
  O  O285  1  0.89900519  0.12342248  0.91516553  1
  O  O286  1  0.89293504  0.66314533  0.41691505  1
  O  O287  1  0.89463021  0.64433557  0.91525471  1
  O  O288  1  0.17726829  -0.00285464  0.08124282  1
  O  O289  1  0.17518860  0.00531801  0.58236099  1
  O  O290  1  0.19678270  0.50349047  0.08426474  1
  O  O291  1  0.17440347  0.49715925  0.58662597  1
  O  O292  1  0.50237325  0.00839999  0.08145427  1
  O  O293  1  0.49764996  0.01672096  0.57709632  1
  O  O294  1  0.49191510  0.48444813  0.07868562  1
  O  O295  1  0.51350732  0.49424571  0.58860350  1
  O  O296  1  0.83282536  0.00839619  0.07421841  1
  O  O297  1  0.82770954  0.00054193  0.58823324  1
  O  O298  1  0.84260134  0.50252492  0.08775263  1
  O  O299  1  0.82694971  0.50081998  0.59244494  1
  O  O300  1  0.01771608  0.26757832  0.07245526  1
  O  O301  1  -0.00688177  0.23927631  0.57970713  1
  O  O302  1  0.02081273  0.74535412  0.08077658  1
  O  O303  1  -0.00101809  0.73872112  0.57792912  1
  O  O304  1  0.33164199  0.24660869  0.08537306  1
  O  O305  1  0.33582080  0.25558178  0.58458246  1
  O  O306  1  0.34328216  0.75643769  0.08105298  1
  O  O307  1  0.33880957  0.73552078  0.57237065  1
  O  O308  1  0.67920678  0.25333743  0.08898839  1
  O  O309  1  0.68226642  0.25037128  0.58867427  1
  O  O310  1  0.65937795  0.73449577  0.07482285  1
  O  O311  1  0.66446350  0.73941275  0.57596173  1
  O  O312  1  0.18525785  0.00114155  0.40585203  1
  O  O313  1  0.15740446  -0.00039043  0.91432461  1
  O  O314  1  0.18571693  0.48818202  0.42086590  1
  O  O315  1  0.14740201  0.50046721  0.91628359  1
  O  O316  1  0.48553229  -0.00044539  0.41513455  1
  O  O317  1  0.46988359  -0.00335300  0.91686654  1
  O  O318  1  0.48202196  0.50163991  0.41276265  1
  O  O319  1  0.47474395  0.50473978  0.91730348  1
  O  O320  1  0.82166785  -0.00476013  0.41485300  1
  O  O321  1  0.82308170  -0.00375702  0.91426545  1
  O  O322  1  0.84703424  0.50500121  0.43450022  1
  O  O323  1  0.83166083  0.51656671  0.92677466  1
  O  O324  1  0.33328283  0.24779437  0.41099102  1
  O  O325  1  0.31803353  0.25038961  0.92228180  1
  O  O326  1  0.33620188  0.75399653  0.40931810  1
  O  O327  1  0.30808480  0.74967133  0.91486695  1
  O  O328  1  0.65629779  0.26354137  0.42782713  1
  O  O329  1  0.64931196  0.23422824  0.93044583  1
  O  O330  1  0.64298547  0.75346846  0.41321202  1
  O  O331  1  0.64368961  0.75258019  0.91613891  1
  O  O332  1  1.01274578  0.22972965  0.42072295  1
  O  O333  1  0.99451925  0.24405136  0.91552481  1
  O  O334  1  1.02716050  0.74483858  0.41409429  1
  O  O335  1  0.99688362  0.75393998  0.91385011  1
  O  O336  1  0.21086535  0.08298782  0.18930551  1
  O  O337  1  0.20001590  0.08461551  0.69310133  1
  O  O338  1  0.21526665  0.58978438  0.19145618  1
  O  O339  1  0.20514904  0.58353900  0.69509014  1
  O  O340  1  0.54366210  0.08307596  0.19448509  1
  O  O341  1  0.54116662  0.08713257  0.69521643  1
  O  O342  1  0.54298973  0.58289970  0.20086177  1
  O  O343  1  0.54924719  0.58566235  0.69518719  1
  O  O344  1  0.87383360  0.08474871  0.19020892  1
  O  O345  1  0.87678604  0.08534292  0.69721911  1
  O  O346  1  0.88110407  0.58359514  0.19674740  1
  O  O347  1  0.87458700  0.58388017  0.69904965  1
  O  O348  1  0.04555352  0.33613883  0.19194789  1
  O  O349  1  0.04314415  0.33200216  0.70361602  1
  O  O350  1  0.04765441  0.83221750  0.18878440  1
  O  O351  1  0.04619957  0.83292785  0.69930316  1
  O  O352  1  0.37243179  0.33264619  0.19481048  1
  O  O353  1  0.38467561  0.32782595  0.69796421  1
  O  O354  1  0.37363986  0.83528913  0.19155635  1
  O  O355  1  0.37766386  0.83134437  0.69801010  1
  O  O356  1  0.70911866  0.33286402  0.20030494  1
  O  O357  1  0.71149512  0.33113852  0.69855393  1
  O  O358  1  0.71056063  0.83375476  0.19746815  1
  O  O359  1  0.71106761  0.83243254  0.69885590  1
  O  O360  1  0.21270130  0.41566316  0.19387465  1
  O  O361  1  0.19996284  0.41573579  0.69532742  1
  O  O362  1  0.21210355  0.91652329  0.19108741  1
  O  O363  1  0.21051350  0.91776357  0.68929231  1
  O  O364  1  0.53853304  0.41416318  0.19622798  1
  O  O365  1  0.54996618  0.40821881  0.69715555  1
  O  O366  1  0.54372505  0.92355201  0.18989224  1
  O  O367  1  0.54546252  0.91656796  0.69924502  1
  O  O368  1  0.87658433  0.41866932  0.19836984  1
  O  O369  1  0.87675817  0.41626780  0.69801304  1
  O  O370  1  0.87683572  0.91688773  0.19676629  1
  O  O371  1  0.87984223  0.91442727  0.69243460  1
  O  O372  1  0.04495634  0.16834536  0.19762806  1
  O  O373  1  0.04038397  0.16400676  0.69405140  1
  O  O374  1  0.04483576  0.66683360  0.19263541  1
  O  O375  1  0.04139826  0.66451490  0.69360251  1
  O  O376  1  0.37145451  0.16683185  0.19405859  1
  O  O377  1  0.37781510  0.17470842  0.69615665  1
  O  O378  1  0.37498531  0.66835550  0.18942371  1
  O  O379  1  0.36979657  0.66664705  0.69131464  1
  O  O380  1  0.71008873  0.16703006  0.19648040  1
  O  O381  1  0.70931850  0.16745462  0.69933839  1
  O  O382  1  0.70851749  0.66469586  0.19175917  1
  O  O383  1  0.70809662  0.66549213  0.69381199  1
  O  O384  1  0.12857026  0.08237422  0.29935378  1
  O  O385  1  0.12590300  0.08307954  0.80517969  1
  O  O386  1  0.12426831  0.58509147  0.29893970  1
  O  O387  1  0.11989782  0.58413397  0.80531267  1
  O  O388  1  0.45382997  0.08160038  0.30620728  1
  O  O389  1  0.46507300  0.08035158  0.80801596  1
  O  O390  1  0.45190812  0.58385322  0.30286044  1
  O  O391  1  0.44811961  0.59077321  0.80765328  1
  O  O392  1  0.79215890  0.08169315  0.30624159  1
  O  O393  1  0.78856924  0.08506436  0.80704809  1
  O  O394  1  0.78697790  0.58390730  0.30016365  1
  O  O395  1  0.79213727  0.58791990  0.80905499  1
  O  O396  1  0.28957929  0.33233562  0.30348856  1
  O  O397  1  0.28347018  0.32770537  0.81046618  1
  O  O398  1  0.29080135  0.83475262  0.29993206  1
  O  O399  1  0.28654690  0.83165511  0.80346655  1
  O  O400  1  0.61953935  0.33567936  0.31086682  1
  O  O401  1  0.62544457  0.33175679  0.80771662  1
  O  O402  1  0.62147365  0.83380129  0.30198415  1
  O  O403  1  0.62204089  0.83347818  0.80558345  1
  O  O404  1  0.95797562  0.33052541  0.30005728  1
  O  O405  1  0.95686316  0.33170893  0.81012317  1
  O  O406  1  0.95790705  0.83285741  0.29612661  1
  O  O407  1  0.95663200  0.83375937  0.80403730  1
  O  O408  1  0.12477497  0.41152150  0.30891511  1
  O  O409  1  0.12348819  0.41772799  0.80805341  1
  O  O410  1  0.12688005  0.91730034  0.30028306  1
  O  O411  1  0.12485703  0.91672680  0.80341178  1
  O  O412  1  0.45141525  0.41793185  0.30378936  1
  O  O413  1  0.46382793  0.40793125  0.81678120  1
  O  O414  1  0.45437045  0.92185526  0.30155673  1
  O  O415  1  0.45455296  0.91681840  0.80574881  1
  O  O416  1  0.78906882  0.41633028  0.30419576  1
  O  O417  1  0.79141337  0.41631717  0.80428223  1
  O  O418  1  0.78847255  0.91596348  0.30528833  1
  O  O419  1  0.78984305  0.91433569  0.80433299  1
  O  O420  1  0.28843945  0.16610112  0.30197538  1
  O  O421  1  0.28593972  0.17290609  0.80878991  1
  O  O422  1  0.29166178  0.66855688  0.30382760  1
  O  O423  1  0.28674405  0.66839368  0.80471579  1
  O  O424  1  0.62487390  0.16689198  0.30232694  1
  O  O425  1  0.62476225  0.16247141  0.81203868  1
  O  O426  1  0.62218391  0.66807713  0.30581972  1
  O  O427  1  0.62775651  0.66908893  0.80655334  1
  O  O428  1  0.95841643  0.16125441  0.30451558  1
  O  O429  1  0.95822757  0.16372643  0.80570279  1
  O  O430  1  0.96055989  0.66616931  0.30570046  1
  O  O431  1  0.95869115  0.66858148  0.80470806  1
  F  F432  1  0.04642343  -0.00052423  0.19687385  1
  F  F433  1  0.04680175  0.00081732  0.70177474  1
  F  F434  1  0.03932942  0.49714167  0.20120088  1
  F  F435  1  0.04336228  0.49983034  0.70503219  1
  F  F436  1  0.37857536  0.00206258  0.19780817  1
  F  F437  1  0.38313539  -0.00717691  0.69788730  1
  F  F438  1  0.37670901  0.50006080  0.19895495  1
  F  F439  1  0.36688948  0.50969005  0.69246699  1
  F  F440  1  0.71092067  0.00246299  0.20302230  1
  F  F441  1  0.70764207  0.00298699  0.70228624  1
  F  F442  1  0.70885073  0.49696758  0.20271591  1
  F  F443  1  0.71207530  0.50133750  0.70526496  1
  F  F444  1  0.21231840  0.25163079  0.19950845  1
  F  F445  1  0.21163081  0.25013708  0.70293706  1
  F  F446  1  0.21377563  0.75001563  0.19897270  1
  F  F447  1  0.21101391  0.74867578  0.70087611  1
  F  F448  1  0.54678653  0.25680226  0.20165995  1
  F  F449  1  0.54777659  0.24665246  0.70865811  1
  F  F450  1  0.54521836  0.74684515  0.19747359  1
  F  F451  1  0.54510614  0.75148613  0.70066680  1
  F  F452  1  0.87619357  0.24826338  0.20216287  1
  F  F453  1  0.87692032  0.24937421  0.70648352  1
  F  F454  1  0.87910106  0.74567380  0.19995626  1
  F  F455  1  0.87837275  0.74850334  0.70253987  1
  F  F456  1  0.28814178  0.00023147  0.29223367  1
  F  F457  1  0.28302070  -0.01204447  0.80003236  1
  F  F458  1  0.29322158  0.50138198  0.29742178  1
  F  F459  1  0.27988651  0.51220869  0.80418792  1
  F  F460  1  0.62106781  -0.00068053  0.29791341  1
  F  F461  1  0.62198325  -0.00009191  0.80001819  1
  F  F462  1  0.61785060  0.49917513  0.29970314  1
  F  F463  1  0.63584994  0.50171797  0.80752416  1
  F  F464  1  0.95720193  0.00208559  0.29309762  1
  F  F465  1  0.96336088  -0.00186606  0.80034597  1
  F  F466  1  0.95530741  0.49955164  0.30052971  1
  F  F467  1  0.95585897  0.50072629  0.80069738  1
  F  F468  1  0.12461660  0.25041865  0.29573072  1
  F  F469  1  0.12036053  0.24583918  0.80014392  1
  F  F470  1  0.12426078  0.75145391  0.29318615  1
  F  F471  1  0.12207700  0.74786115  0.79824184  1
  F  F472  1  0.45011216  0.25384299  0.30005266  1
  F  F473  1  0.45501562  0.24647775  0.80466982  1
  F  F474  1  0.45216643  0.74652488  0.29573338  1
  F  F475  1  0.45284877  0.75488992  0.80222353  1
  F  F476  1  0.78849023  0.24743028  0.29933685  1
  F  F477  1  0.79073948  0.24750707  0.80263358  1
  F  F478  1  0.78672125  0.74889864  0.29525579  1
  F  F479  1  0.78937109  0.74997676  0.79847704  1
