# generated using pymatgen
data_K24Na3Li5Mg64Fe17Si79(O5F)48
_symmetry_space_group_name_H-M   'P 1'
_cell_length_a   16.09210081
_cell_length_b   18.59558361
_cell_length_c   20.55753538
_cell_angle_alpha   89.98205971
_cell_angle_beta   100.01494027
_cell_angle_gamma   90.02282075
_symmetry_Int_Tables_number   1
_chemical_formula_structural   K24Na3Li5Mg64Fe17Si79(O5F)48
_chemical_formula_sum   'K24 Na3 Li5 Mg64 Fe17 Si79 O240 F48'
_cell_volume   6057.94089537
_cell_formula_units_Z   1
loop_
 _symmetry_equiv_pos_site_id
 _symmetry_equiv_pos_as_xyz
  1  'x, y, z'
loop_
 _atom_site_type_symbol
 _atom_site_label
 _atom_site_symmetry_multiplicity
 _atom_site_fract_x
 _atom_site_fract_y
 _atom_site_fract_z
 _atom_site_occupancy
  K  K0  1  0.00694203  -0.00023385  -0.00629240  1
  K  K1  1  -0.00473172  -0.00025280  0.50485587  1
  K  K2  1  -0.01470385  0.51033979  -0.00101667  1
  K  K3  1  -0.00203354  0.49649002  0.49794511  1
  K  K4  1  0.32863020  -0.01693297  -0.01319853  1
  K  K5  1  0.34092720  -0.00346227  0.50424437  1
  K  K6  1  0.33174915  0.50882576  -0.00286347  1
  K  K7  1  0.32936707  0.50623410  0.50460707  1
  K  K8  1  0.65617954  -0.00822969  -0.01418562  1
  K  K9  1  0.67066140  -0.00113967  0.50498623  1
  K  K10  1  0.68236532  0.50902714  -0.00260137  1
  K  K11  1  0.67729251  0.50894307  0.50293271  1
  K  K12  1  0.15685574  0.24812502  0.00069667  1
  K  K13  1  0.16898595  0.24551805  0.50108321  1
  K  K14  1  0.17336730  0.74776428  -0.00790282  1
  K  K15  1  0.16516593  0.74441253  0.50558597  1
  K  K16  1  0.50368785  0.24781225  -0.00368390  1
  K  K17  1  0.49977051  0.24907663  0.50401888  1
  K  K18  1  0.49274157  0.75952877  -0.01085105  1
  K  K19  1  0.49756156  0.74740681  0.51066034  1
  K  K20  1  0.83602261  0.26321004  -0.00126663  1
  K  K21  1  0.84150816  0.25180364  0.50412518  1
  K  K22  1  0.82698857  0.74469626  -0.02294920  1
  K  K23  1  0.83746315  0.75348894  0.51116443  1
  Na  Na24  1  0.16782883  0.00089149  0.25563478  1
  Na  Na25  1  0.83414251  0.82812631  0.74616795  1
  Na  Na26  1  0.33418604  0.58034780  0.74882258  1
  Li  Li27  1  0.49923277  -0.00545183  0.74633590  1
  Li  Li28  1  0.66622123  0.75082997  0.24899675  1
  Li  Li29  1  0.83226202  0.33207537  0.75143119  1
  Li  Li30  1  0.16386233  0.33395163  0.24930587  1
  Li  Li31  1  0.82689004  0.66845776  0.75039840  1
  Mg  Mg32  1  0.83068103  0.49941426  0.74938143  1
  Mg  Mg33  1  -0.00224678  0.24970227  0.75000006  1
  Mg  Mg34  1  0.32855452  0.25135862  0.24826440  1
  Mg  Mg35  1  0.83720339  -0.00067121  0.74918366  1
  Mg  Mg36  1  0.00174994  0.25102855  0.25227668  1
  Mg  Mg37  1  0.33373566  0.75006419  0.74942075  1
  Mg  Mg38  1  0.00113917  0.75009103  0.25125459  1
  Mg  Mg39  1  0.33465347  0.74877525  0.24590424  1
  Mg  Mg40  1  0.66937610  0.24945847  0.75081789  1
  Mg  Mg41  1  0.49901474  0.00045005  0.24939028  1
  Mg  Mg42  1  0.33462888  0.24692658  0.74944810  1
  Mg  Mg43  1  0.83359299  0.49950153  0.24992896  1
  Mg  Mg44  1  0.66614881  0.25100271  0.25181907  1
  Mg  Mg45  1  0.16480834  0.49926248  0.75236931  1
  Mg  Mg46  1  -0.00166917  0.74940354  0.75092294  1
  Mg  Mg47  1  0.67026146  0.74954435  0.75149506  1
  Mg  Mg48  1  0.83250054  0.00054202  0.25366949  1
  Mg  Mg49  1  0.17115360  -0.00251073  0.75000256  1
  Mg  Mg50  1  0.50034462  0.49922670  0.74688375  1
  Mg  Mg51  1  0.49907465  0.50152999  0.24582219  1
  Mg  Mg52  1  0.16479469  0.49819501  0.24930741  1
  Mg  Mg53  1  0.66986093  0.41520629  0.75138210  1
  Mg  Mg54  1  0.16745951  0.66382367  0.24923669  1
  Mg  Mg55  1  0.66852917  0.58521554  0.74923790  1
  Mg  Mg56  1  0.00096877  0.41474377  0.25002839  1
  Mg  Mg57  1  0.49970513  0.83655024  0.74842818  1
  Mg  Mg58  1  0.33241199  0.58518084  0.24579462  1
  Mg  Mg59  1  0.49870036  0.16714950  0.25029513  1
  Mg  Mg60  1  0.16834206  0.83395266  0.25024577  1
  Mg  Mg61  1  0.50180739  0.83271968  0.24656247  1
  Mg  Mg62  1  0.16777375  0.16465847  0.75067951  1
  Mg  Mg63  1  0.33605494  0.91441088  0.74771656  1
  Mg  Mg64  1  0.83445771  0.16582395  0.25529280  1
  Mg  Mg65  1  0.33263622  0.41502807  0.74947388  1
  Mg  Mg66  1  -0.00574161  0.41496905  0.75182261  1
  Mg  Mg67  1  0.16522562  0.33374341  0.75186893  1
  Mg  Mg68  1  0.49942385  0.33211738  0.74917065  1
  Mg  Mg69  1  0.16563522  0.16897864  0.25168263  1
  Mg  Mg70  1  0.33696679  0.08158332  0.75202425  1
  Mg  Mg71  1  0.66604617  0.08188696  0.74883763  1
  Mg  Mg72  1  0.83502977  0.33668446  0.25123233  1
  Mg  Mg73  1  0.16646828  0.66460103  0.75026342  1
  Mg  Mg74  1  0.00224050  0.91702822  0.25239137  1
  Mg  Mg75  1  0.00363658  0.91437155  0.75111167  1
  Mg  Mg76  1  0.49897160  0.33529630  0.25000497  1
  Mg  Mg77  1  0.32938847  0.41624824  0.24768817  1
  Mg  Mg78  1  0.49943671  0.66601854  0.74836646  1
  Mg  Mg79  1  0.49917906  0.16194490  0.74995699  1
  Mg  Mg80  1  0.00055386  0.08361790  0.75185367  1
  Mg  Mg81  1  0.66667852  0.58720525  0.24823627  1
  Mg  Mg82  1  0.00190589  0.08393221  0.25419672  1
  Mg  Mg83  1  0.33097658  0.08473052  0.25064760  1
  Mg  Mg84  1  0.66859009  0.41670912  0.24960189  1
  Mg  Mg85  1  0.83150726  0.66815149  0.25094356  1
  Mg  Mg86  1  0.83181946  0.83279794  0.25188218  1
  Mg  Mg87  1  0.00116510  0.58412351  0.24965866  1
  Mg  Mg88  1  0.16687498  0.83376221  0.74876388  1
  Mg  Mg89  1  0.33360508  0.91676594  0.24831713  1
  Mg  Mg90  1  0.49988989  0.66788788  0.24382787  1
  Mg  Mg91  1  -0.00641721  0.58541782  0.75050534  1
  Mg  Mg92  1  0.66798232  0.08433173  0.25301792  1
  Mg  Mg93  1  0.66762501  0.91473751  0.25168263  1
  Mg  Mg94  1  0.83361284  0.16779939  0.75062492  1
  Mg  Mg95  1  0.66526704  0.91699094  0.74758494  1
  Fe  Fe96  1  0.36239088  0.16199097  0.60909292  1
  Fe  Fe97  1  0.35761530  0.66457843  0.10504665  1
  Fe  Fe98  1  0.68997831  0.66564715  0.60859863  1
  Fe  Fe99  1  0.36122993  0.83478409  0.60657411  1
  Fe  Fe100  1  0.47346720  0.92212788  0.88987972  1
  Fe  Fe101  1  0.85755947  0.41962644  0.10873082  1
  Fe  Fe102  1  0.80606393  0.08426171  0.39285525  1
  Fe  Fe103  1  0.80913223  0.41783410  0.39170645  1
  Fe  Fe104  1  0.86191902  0.08889464  0.61177585  1
  Fe  Fe105  1  0.19265952  0.07821953  0.61295794  1
  Fe  Fe106  1  0.30788017  0.82468546  0.89194600  1
  Fe  Fe107  1  0.14070200  0.92009286  0.89271242  1
  Fe  Fe108  1  0.02653046  0.82545500  0.60868409  1
  Fe  Fe109  1  0.14159511  0.08292485  0.39297354  1
  Fe  Fe110  1  0.85976745  0.91806128  0.60805656  1
  Fe  Fe111  1  0.81009727  0.58501062  0.88844875  1
  Fe  Fe112  1  0.14295690  0.58158669  0.38952195  1
  Si  Si113  1  0.47333455  0.09221308  0.89158265  1
  Si  Si114  1  0.98165499  0.33221309  0.38835239  1
  Si  Si115  1  0.53556692  0.08683721  0.61278556  1
  Si  Si116  1  0.35698873  0.33607539  0.11273109  1
  Si  Si117  1  0.13805718  0.41573990  0.88767365  1
  Si  Si118  1  0.46946980  0.41838751  0.38283632  1
  Si  Si119  1  0.52560652  0.41397741  0.11286538  1
  Si  Si120  1  0.63810699  0.83370761  0.38350634  1
  Si  Si121  1  0.35638446  0.66501986  0.61168087  1
  Si  Si122  1  0.98212350  0.66970144  0.89002107  1
  Si  Si123  1  0.47482985  0.58236064  0.38215791  1
  Si  Si124  1  0.30996395  0.65663951  0.88612388  1
  Si  Si125  1  0.80877546  0.41551185  0.88740614  1
  Si  Si126  1  0.31035745  0.33263788  0.38212033  1
  Si  Si127  1  0.14029104  0.58088209  0.88684357  1
  Si  Si128  1  0.31198812  0.83103217  0.38288682  1
  Si  Si129  1  0.18945555  0.58043139  0.61641975  1
  Si  Si130  1  0.14512978  0.90884725  0.38797020  1
  Si  Si131  1  0.35443513  0.33264377  0.61321002  1
  Si  Si132  1  0.80617180  0.91722193  0.88401412  1
  Si  Si133  1  0.69195920  0.83673607  0.11548273  1
  Si  Si134  1  0.64151956  0.83521036  0.88668502  1
  Si  Si135  1  0.35797455  0.83796171  0.11138937  1
  Si  Si136  1  0.80992161  0.91095781  0.38779996  1
  Si  Si137  1  0.63424161  0.33419623  0.38713304  1
  Si  Si138  1  0.97147906  0.66669985  0.38567910  1
  Si  Si139  1  0.97347420  0.16713771  0.88855147  1
  Si  Si140  1  0.02669704  0.67118529  0.11384178  1
  Si  Si141  1  0.02312827  0.65659864  0.61289323  1
  Si  Si142  1  0.18901141  0.41395954  0.11425374  1
  Si  Si143  1  0.30828155  0.17640665  0.88980788  1
  Si  Si144  1  0.63730420  0.66796523  0.88755527  1
  Si  Si145  1  0.30890851  0.34023209  0.88667937  1
  Si  Si146  1  0.14684452  0.41290414  0.38542622  1
  Si  Si147  1  0.63239135  0.16725197  0.38733837  1
  Si  Si148  1  0.02450206  0.33019200  0.11187473  1
  Si  Si149  1  0.19419996  0.92055342  0.11566923  1
  Si  Si150  1  0.46824433  0.08378760  0.38322292  1
  Si  Si151  1  0.68724957  0.83242067  0.61140129  1
  Si  Si152  1  0.03316700  0.17163540  0.61456861  1
  Si  Si153  1  0.47930634  0.57958475  0.88345168  1
  Si  Si154  1  0.69228669  0.16370556  0.11542126  1
  Si  Si155  1  0.02251958  0.33570021  0.61657439  1
  Si  Si156  1  0.63543146  0.66809039  0.38135647  1
  Si  Si157  1  0.97468768  0.33106763  0.88678093  1
  Si  Si158  1  0.85815304  0.59296474  0.11320221  1
  Si  Si159  1  0.18955204  0.41659913  0.61566987  1
  Si  Si160  1  0.97733142  0.83096957  0.38548667  1
  Si  Si161  1  0.80530807  0.59025968  0.38587497  1
  Si  Si162  1  0.19122216  0.91384341  0.61024488  1
  Si  Si163  1  0.68787888  0.32886919  0.11151321  1
  Si  Si164  1  0.64327623  0.33115173  0.88602656  1
  Si  Si165  1  0.52224421  0.41454394  0.61519814  1
  Si  Si166  1  0.18601891  0.57869458  0.10963577  1
  Si  Si167  1  0.85949708  0.08148265  0.11637817  1
  Si  Si168  1  0.30864229  0.17075988  0.38622254  1
  Si  Si169  1  0.80763753  0.08191379  0.88696948  1
  Si  Si170  1  0.14408928  0.09154768  0.89158403  1
  Si  Si171  1  0.47924702  0.41585906  0.88549072  1
  Si  Si172  1  0.64327895  0.16650761  0.88665017  1
  Si  Si173  1  0.31212738  0.66799370  0.38501519  1
  Si  Si174  1  0.47443798  0.91817453  0.38297392  1
  Si  Si175  1  0.52420077  0.08512295  0.11480206  1
  Si  Si176  1  0.85939596  0.91556900  0.11604466  1
  Si  Si177  1  0.53204539  0.92039377  0.61090944  1
  Si  Si178  1  0.52105898  0.57887530  0.61070195  1
  Si  Si179  1  0.97530187  0.83571028  0.88981946  1
  Si  Si180  1  0.86064035  0.57622280  0.61295230  1
  Si  Si181  1  0.02359592  0.16506889  0.11445524  1
  Si  Si182  1  0.97330614  0.16899112  0.38941231  1
  Si  Si183  1  0.52630836  0.91978253  0.11449518  1
  Si  Si184  1  0.19345682  0.08765839  0.11522818  1
  Si  Si185  1  0.53204401  0.58045203  0.10884680  1
  Si  Si186  1  0.69577156  0.17223713  0.61463181  1
  Si  Si187  1  0.69303861  0.67174419  0.11523526  1
  Si  Si188  1  0.02833150  0.83651294  0.11482428  1
  Si  Si189  1  0.68681043  0.33409104  0.61675090  1
  Si  Si190  1  0.35805957  0.16936507  0.11325381  1
  Si  Si191  1  0.85447018  0.41358390  0.61718571  1
  O  O192  1  0.26902166  0.12830080  0.08245901  1
  O  O193  1  0.28365596  0.09651146  0.57154799  1
  O  O194  1  0.25887483  0.61047542  0.07290405  1
  O  O195  1  0.27278985  0.61117647  0.58951142  1
  O  O196  1  0.60316651  0.12178544  0.08543794  1
  O  O197  1  0.62259522  0.11314940  0.58561238  1
  O  O198  1  0.61318103  0.61969980  0.08384364  1
  O  O199  1  0.59550005  0.60555701  0.57335014  1
  O  O200  1  0.93595162  0.12031390  0.08481700  1
  O  O201  1  0.95963179  0.11828800  0.57969504  1
  O  O202  1  0.93544209  0.63483811  0.08500710  1
  O  O203  1  0.94985844  0.59543606  0.58655841  1
  O  O204  1  0.11043938  0.36026443  0.08582197  1
  O  O205  1  0.10309924  0.37066004  0.58673951  1
  O  O206  1  0.10375787  0.88003305  0.08645276  1
  O  O207  1  0.13000528  0.84633804  0.58288285  1
  O  O208  1  0.43212182  0.37884419  0.08330519  1
  O  O209  1  0.43845978  0.36585768  0.58639785  1
  O  O210  1  0.43905662  0.87737546  0.08566218  1
  O  O211  1  0.45490689  0.87160760  0.57242275  1
  O  O212  1  0.75543166  0.36965586  0.07551521  1
  O  O213  1  0.77041873  0.36382939  0.58808779  1
  O  O214  1  0.77121473  0.87304056  0.08491848  1
  O  O215  1  0.77295432  0.85070641  0.58307828  1
  O  O216  1  0.26957330  0.37922550  0.08349159  1
  O  O217  1  0.27207518  0.38615243  0.58723867  1
  O  O218  1  0.27381340  0.88820031  0.08480550  1
  O  O219  1  0.27681545  0.90246078  0.57824237  1
  O  O220  1  0.59230282  0.36191126  0.08360043  1
  O  O221  1  0.60446265  0.38469137  0.58511338  1
  O  O222  1  0.60645789  0.88413699  0.08598705  1
  O  O223  1  0.61745401  0.89593459  0.58207862  1
  O  O224  1  0.94462451  0.37435041  0.07227417  1
  O  O225  1  0.93677887  0.38186179  0.58748570  1
  O  O226  1  0.93773926  0.87704639  0.08671372  1
  O  O227  1  0.94469100  0.88617326  0.56479732  1
  O  O228  1  0.10263314  0.12709938  0.08501287  1
  O  O229  1  0.12067780  0.15765039  0.58827858  1
  O  O230  1  0.09780020  0.62437929  0.08394725  1
  O  O231  1  0.10722747  0.62720669  0.58302458  1
  O  O232  1  0.43783156  0.13103092  0.08534702  1
  O  O233  1  0.46237617  0.14002601  0.57616586  1
  O  O234  1  0.44613155  0.61729947  0.07192934  1
  O  O235  1  0.43289323  0.62257687  0.58187941  1
  O  O236  1  0.76971372  0.12311447  0.08703884  1
  O  O237  1  0.77907166  0.16042541  0.58300748  1
  O  O238  1  0.77507716  0.64340602  0.08516056  1
  O  O239  1  0.78549737  0.62754216  0.57641126  1
  O  O240  1  0.04252704  0.11081227  0.42311834  1
  O  O241  1  0.06359200  0.12969784  0.92122612  1
  O  O242  1  0.04372207  0.61146568  0.41966289  1
  O  O243  1  0.07408665  0.62919739  0.92038563  1
  O  O244  1  0.38662661  0.11366350  0.41200432  1
  O  O245  1  0.39838617  0.13811926  0.92179802  1
  O  O246  1  0.39483780  0.61577733  0.41153831  1
  O  O247  1  0.39206504  0.60205045  0.90864658  1
  O  O248  1  0.70712387  0.11600425  0.42182221  1
  O  O249  1  0.72934979  0.12052685  0.91765083  1
  O  O250  1  0.72163223  0.62415702  0.41170105  1
  O  O251  1  0.71933651  0.62464344  0.92462000  1
  O  O252  1  0.22528201  0.35523005  0.41048336  1
  O  O253  1  0.23163566  0.37991651  0.91665863  1
  O  O254  1  0.22721650  0.85361423  0.41212325  1
  O  O255  1  0.22534134  0.86131742  0.93494316  1
  O  O256  1  0.54753320  0.36458307  0.41166462  1
  O  O257  1  0.56213002  0.36568726  0.91559757  1
  O  O258  1  0.56053369  0.87347104  0.41353463  1
  O  O259  1  0.57567212  0.87470325  0.92571293  1
  O  O260  1  0.90516579  0.36120190  0.42350660  1
  O  O261  1  0.89595138  0.36825562  0.91500847  1
  O  O262  1  0.89202079  0.85793658  0.41176094  1
  O  O263  1  0.88859055  0.86800326  0.91361865  1
  O  O264  1  0.06529019  0.38220272  0.41571516  1
  O  O265  1  0.06592287  0.37026722  0.91897495  1
  O  O266  1  0.06130016  0.87776130  0.41675707  1
  O  O267  1  0.04841249  0.88642061  0.92995668  1
  O  O268  1  0.38640972  0.39023407  0.41204429  1
  O  O269  1  0.39726750  0.38416428  0.91567907  1
  O  O270  1  0.39244548  0.88471811  0.41051033  1
  O  O271  1  0.40093340  0.87484056  0.93516776  1
  O  O272  1  0.71231533  0.38211464  0.42281200  1
  O  O273  1  0.73037054  0.37341007  0.91633736  1
  O  O274  1  0.72758940  0.87358067  0.41361273  1
  O  O275  1  0.73169637  0.87715912  0.91614012  1
  O  O276  1  0.22971802  0.15083087  0.42039925  1
  O  O277  1  0.22759109  0.14383082  0.91975965  1
  O  O278  1  0.23561273  0.64312658  0.42106271  1
  O  O279  1  0.23487804  0.61110650  0.91537331  1
  O  O280  1  0.54560718  0.13813084  0.41195130  1
  O  O281  1  0.56364626  0.13682792  0.91929922  1
  O  O282  1  0.55863025  0.62938559  0.41242691  1
  O  O283  1  0.55519230  0.63368480  0.91744480  1
  O  O284  1  0.88559390  0.15707935  0.41728554  1
  O  O285  1  0.89611183  0.12580634  0.91750319  1
  O  O286  1  0.88178157  0.64815943  0.41036577  1
  O  O287  1  0.91225951  0.63050598  0.92607361  1
  O  O288  1  0.18320179  0.00425536  0.08869824  1
  O  O289  1  0.14526108  -0.01051106  0.58344876  1
  O  O290  1  0.16717083  0.49466015  0.08286725  1
  O  O291  1  0.17409452  0.49798861  0.58568120  1
  O  O292  1  0.51445517  0.00285357  0.08631710  1
  O  O293  1  0.51591874  0.00460049  0.58435980  1
  O  O294  1  0.53182746  0.49512355  0.08343991  1
  O  O295  1  0.49909556  0.49469839  0.58540267  1
  O  O296  1  0.85055162  -0.00130787  0.08721189  1
  O  O297  1  0.82134973  0.00550886  0.57062700  1
  O  O298  1  0.84489416  0.51543291  0.07780485  1
  O  O299  1  0.83601925  0.49310392  0.58367332  1
  O  O300  1  0.01445782  0.24604064  0.08250276  1
  O  O301  1  0.00441886  0.25499926  0.58787441  1
  O  O302  1  0.02585535  0.75415875  0.08521458  1
  O  O303  1  -0.00392173  0.73119442  0.57581061  1
  O  O304  1  0.35119062  0.25270673  0.08384805  1
  O  O305  1  0.33239116  0.25711065  0.57697745  1
  O  O306  1  0.34277328  0.76056359  0.07685036  1
  O  O307  1  0.33767639  0.73967201  0.57132496  1
  O  O308  1  0.68158125  0.24463916  0.08374185  1
  O  O309  1  0.66013649  0.25348888  0.58798886  1
  O  O310  1  0.67476641  0.75449728  0.08680219  1
  O  O311  1  0.65293206  0.75658784  0.57574742  1
  O  O312  1  0.17235936  -0.01326910  0.41821839  1
  O  O313  1  0.16107237  0.01552139  0.92852909  1
  O  O314  1  0.17541740  0.48876101  0.42176702  1
  O  O315  1  0.13835407  0.49780462  0.91682599  1
  O  O316  1  0.48802618  0.00131458  0.41075921  1
  O  O317  1  0.48360992  0.01615096  0.92919687  1
  O  O318  1  0.49063121  0.49999463  0.41165895  1
  O  O319  1  0.50029530  0.49715857  0.91459097  1
  O  O320  1  0.82987778  -0.01135520  0.42081194  1
  O  O321  1  0.81860118  -0.00020805  0.91808704  1
  O  O322  1  0.82747999  0.51382882  0.42225665  1
  O  O323  1  0.82112961  0.49088358  0.92619272  1
  O  O324  1  0.34261187  0.25279238  0.41061008  1
  O  O325  1  0.31943609  0.25973024  0.91984655  1
  O  O326  1  0.34194713  0.75035231  0.40938334  1
  O  O327  1  0.32844467  0.72967352  0.92777831  1
  O  O328  1  0.64380200  0.25074650  0.41404691  1
  O  O329  1  0.65728862  0.24923369  0.91637296  1
  O  O330  1  0.64300260  0.75046195  0.41044310  1
  O  O331  1  0.64936727  0.75149977  0.91502080  1
  O  O332  1  1.00886108  0.25039731  0.41352209  1
  O  O333  1  0.97989386  0.24946844  0.91937823  1
  O  O334  1  0.99750301  0.74872316  0.41214236  1
  O  O335  1  0.98969175  0.75264279  0.91998042  1
  O  O336  1  0.21571768  0.09244572  0.19409235  1
  O  O337  1  0.21478880  0.08372911  0.70590367  1
  O  O338  1  0.20910487  0.58169449  0.19044500  1
  O  O339  1  0.19968883  0.57836500  0.69561000  1
  O  O340  1  0.54246406  0.08559217  0.19529546  1
  O  O341  1  0.54889308  0.08957035  0.69306082  1
  O  O342  1  0.54397270  0.58207224  0.18988199  1
  O  O343  1  0.54157271  0.58096368  0.69155683  1
  O  O344  1  0.87664390  0.08363878  0.19635778  1
  O  O345  1  0.88001535  0.08691914  0.70417418  1
  O  O346  1  0.87641889  0.58792562  0.19417114  1
  O  O347  1  0.87860561  0.57376599  0.69275470  1
  O  O348  1  0.03566465  0.33216222  0.19160067  1
  O  O349  1  0.04297960  0.33579227  0.69702423  1
  O  O350  1  0.04420334  0.83425049  0.19512221  1
  O  O351  1  0.04483853  0.82995756  0.70053206  1
  O  O352  1  0.37660679  0.33461284  0.19288624  1
  O  O353  1  0.37451540  0.33192676  0.69452503  1
  O  O354  1  0.37745466  0.83554476  0.19258338  1
  O  O355  1  0.37990662  0.83078231  0.69758412  1
  O  O356  1  0.70555707  0.33125550  0.19233939  1
  O  O357  1  0.70374226  0.33358958  0.69639873  1
  O  O358  1  0.71209912  0.83852566  0.19502573  1
  O  O359  1  0.69775617  0.83209824  0.69166169  1
  O  O360  1  0.21108652  0.41845723  0.19366775  1
  O  O361  1  0.20732679  0.41471640  0.69612029  1
  O  O362  1  0.21436775  0.91193454  0.19478888  1
  O  O363  1  0.21235394  0.91597005  0.69219872  1
  O  O364  1  0.54214307  0.41513153  0.19351911  1
  O  O365  1  0.54304374  0.41319324  0.69562176  1
  O  O366  1  0.54418087  0.91920653  0.19487253  1
  O  O367  1  0.54586593  0.91538460  0.69087078  1
  O  O368  1  0.87865841  0.41713735  0.19998694  1
  O  O369  1  0.87518631  0.41521260  0.69675995  1
  O  O370  1  0.87557227  0.91550621  0.19638559  1
  O  O371  1  0.88756008  0.92586236  0.69847815  1
  O  O372  1  0.03959966  0.16685795  0.19406480  1
  O  O373  1  0.04494157  0.17020123  0.69645600  1
  O  O374  1  0.04376132  0.66993662  0.19418827  1
  O  O375  1  0.04395397  0.66004228  0.69370016  1
  O  O376  1  0.37704382  0.16872471  0.19351277  1
  O  O377  1  0.37927672  0.16669996  0.70182558  1
  O  O378  1  0.37792972  0.66568511  0.19731079  1
  O  O379  1  0.38067831  0.67153583  0.69108674  1
  O  O380  1  0.70727971  0.16658475  0.19554901  1
  O  O381  1  0.71084252  0.16929281  0.69580529  1
  O  O382  1  0.71120641  0.66704494  0.19488364  1
  O  O383  1  0.70369957  0.66638583  0.69835449  1
  O  O384  1  0.11825144  0.09265152  0.30263006  1
  O  O385  1  0.12330460  0.09023621  0.81147413  1
  O  O386  1  0.12282492  0.58290206  0.29737549  1
  O  O387  1  0.12099480  0.57978006  0.80681215  1
  O  O388  1  0.45503624  0.08441142  0.30237627  1
  O  O389  1  0.45490872  0.09186680  0.81217730  1
  O  O390  1  0.45743056  0.58167196  0.30167610  1
  O  O391  1  0.46877299  0.57866690  0.80432062  1
  O  O392  1  0.78665994  0.08316394  0.30005893  1
  O  O393  1  0.78884851  0.08530301  0.80744206  1
  O  O394  1  0.78809560  0.58498953  0.30460975  1
  O  O395  1  0.78651938  0.57759372  0.79919915  1
  O  O396  1  0.29586301  0.33427370  0.30236872  1
  O  O397  1  0.29050141  0.33507413  0.80674743  1
  O  O398  1  0.29325320  0.83245186  0.30215841  1
  O  O399  1  0.28815849  0.83134616  0.80019328  1
  O  O400  1  0.62026169  0.33471514  0.30548516  1
  O  O401  1  0.62300083  0.33254645  0.80610225  1
  O  O402  1  0.61932885  0.83715915  0.30366147  1
  O  O403  1  0.62289710  0.83555484  0.80639957  1
  O  O404  1  0.95875955  0.33375746  0.30718329  1
  O  O405  1  0.96261105  0.33163854  0.80769165  1
  O  O406  1  0.95795703  0.83295093  0.30443926  1
  O  O407  1  0.96837028  0.83343597  0.81098033  1
  O  O408  1  0.12347726  0.41855506  0.30518873  1
  O  O409  1  0.12098957  0.41409212  0.80761942  1
  O  O410  1  0.12079541  0.90566362  0.30775137  1
  O  O411  1  0.12627729  0.91859928  0.80113061  1
  O  O412  1  0.45435910  0.41837087  0.30202155  1
  O  O413  1  0.45827340  0.41395118  0.80545272  1
  O  O414  1  0.45810369  0.91666102  0.30231226  1
  O  O415  1  0.45616122  0.91614175  0.80041868  1
  O  O416  1  0.78599799  0.41714806  0.29978760  1
  O  O417  1  0.78821464  0.41715349  0.80765702  1
  O  O418  1  0.78972622  0.91482095  0.30634951  1
  O  O419  1  0.78543943  0.92466998  0.80548504  1
  O  O420  1  0.29206607  0.16897523  0.30502229  1
  O  O421  1  0.29013359  0.17362799  0.81020637  1
  O  O422  1  0.29068016  0.66572224  0.30388325  1
  O  O423  1  0.28589261  0.66784362  0.80734813  1
  O  O424  1  0.61945820  0.16776151  0.30562860  1
  O  O425  1  0.62478845  0.16641246  0.80675022  1
  O  O426  1  0.61706847  0.66432519  0.30156102  1
  O  O427  1  0.61965738  0.66399784  0.80733300  1
  O  O428  1  0.95572983  0.16755617  0.30716589  1
  O  O429  1  0.95815122  0.16889948  0.80896209  1
  O  O430  1  0.95674041  0.66673504  0.30423032  1
  O  O431  1  0.96653769  0.66545892  0.81056083  1
  F  F432  1  0.03166075  -0.00078548  0.19917476  1
  F  F433  1  0.04879292  0.00507750  0.70624833  1
  F  F434  1  0.04311466  0.49871958  0.19916621  1
  F  F435  1  0.04388638  0.49587895  0.70574891  1
  F  F436  1  0.37987919  0.00235187  0.19844017  1
  F  F437  1  0.37708833  0.00209749  0.70303040  1
  F  F438  1  0.37819690  0.49884320  0.19800604  1
  F  F439  1  0.38263362  0.48726680  0.69811375  1
  F  F440  1  0.70958284  -0.00100464  0.20160772  1
  F  F441  1  0.71393059  0.00224014  0.70144130  1
  F  F442  1  0.70989468  0.50222518  0.19976119  1
  F  F443  1  0.70820518  0.49512695  0.69884182  1
  F  F444  1  0.21378522  0.24710498  0.19748844  1
  F  F445  1  0.21223773  0.25313345  0.70550398  1
  F  F446  1  0.21159394  0.74899181  0.20090007  1
  F  F447  1  0.21159785  0.74405248  0.70088367  1
  F  F448  1  0.54412788  0.25075833  0.20138983  1
  F  F449  1  0.54592121  0.24987671  0.70508298  1
  F  F450  1  0.54123038  0.75171525  0.19696413  1
  F  F451  1  0.54579468  0.74934629  0.70534393  1
  F  F452  1  0.87693565  0.24915845  0.20443913  1
  F  F453  1  0.88003063  0.24975861  0.70442643  1
  F  F454  1  0.87975495  0.75149281  0.20187401  1
  F  F455  1  0.88589925  0.73583571  0.70064171  1
  F  F456  1  0.30474571  -0.00043719  0.30056034  1
  F  F457  1  0.29223449  -0.00169916  0.80260725  1
  F  F458  1  0.28963042  0.50150293  0.29489036  1
  F  F459  1  0.28268247  0.48745229  0.80262376  1
  F  F460  1  0.61923515  0.00072855  0.29763427  1
  F  F461  1  0.62543585  0.00145201  0.79823201  1
  F  F462  1  0.61889150  0.50057790  0.29446183  1
  F  F463  1  0.62041779  0.49699885  0.79624800  1
  F  F464  1  0.95294871  -0.00172279  0.29988707  1
  F  F465  1  0.95897136  0.00333237  0.80568907  1
  F  F466  1  0.95540244  0.50253674  0.29749006  1
  F  F467  1  0.95390835  0.49783021  0.80106244  1
  F  F468  1  0.12093207  0.25194867  0.29543037  1
  F  F469  1  0.12133027  0.25183332  0.80011796  1
  F  F470  1  0.12328182  0.74836957  0.29654750  1
  F  F471  1  0.12297954  0.74492440  0.79871209  1
  F  F472  1  0.45307277  0.25148827  0.29522099  1
  F  F473  1  0.45609588  0.25381342  0.80135021  1
  F  F474  1  0.45575812  0.75151378  0.29597344  1
  F  F475  1  0.45542149  0.74576738  0.80033382  1
  F  F476  1  0.78493461  0.25208745  0.29741106  1
  F  F477  1  0.78600553  0.24639660  0.80268809  1
  F  F478  1  0.79056954  0.75071851  0.29829434  1
  F  F479  1  0.78035834  0.74435639  0.80972826  1
