# generated using pymatgen
data_K24Na3Li5Mg64Fe17Si79(O5F)48
_symmetry_space_group_name_H-M   'P 1'
_cell_length_a   16.06749499
_cell_length_b   18.56412758
_cell_length_c   20.53642169
_cell_angle_alpha   89.98903300
_cell_angle_beta   100.00784642
_cell_angle_gamma   89.99481884
_symmetry_Int_Tables_number   1
_chemical_formula_structural   K24Na3Li5Mg64Fe17Si79(O5F)48
_chemical_formula_sum   'K24 Na3 Li5 Mg64 Fe17 Si79 O240 F48'
_cell_volume   6032.37660916
_cell_formula_units_Z   1
loop_
 _symmetry_equiv_pos_site_id
 _symmetry_equiv_pos_as_xyz
  1  'x, y, z'
loop_
 _atom_site_type_symbol
 _atom_site_label
 _atom_site_symmetry_multiplicity
 _atom_site_fract_x
 _atom_site_fract_y
 _atom_site_fract_z
 _atom_site_occupancy
  K  K0  1  0.00190492  0.00373837  -0.00149288  1
  K  K1  1  0.00441815  0.00994400  0.50286425  1
  K  K2  1  0.00735329  0.50619893  0.00570097  1
  K  K3  1  0.01064900  0.48898775  0.50197798  1
  K  K4  1  0.32316420  0.00079801  -0.00335537  1
  K  K5  1  0.32748805  0.00352906  0.50245218  1
  K  K6  1  0.33214548  0.49881491  -0.00125292  1
  K  K7  1  0.33353016  0.49741860  0.50168646  1
  K  K8  1  0.67022650  0.00036375  0.00044040  1
  K  K9  1  0.67222680  -0.00253073  0.50917860  1
  K  K10  1  0.66734828  0.50004264  -0.00770294  1
  K  K11  1  0.65827801  0.49774301  0.49987583  1
  K  K12  1  0.16753594  0.25492151  -0.00248110  1
  K  K13  1  0.16716650  0.25499887  0.50364205  1
  K  K14  1  0.15762803  0.75315641  0.00528307  1
  K  K15  1  0.17157882  0.74816271  0.49818076  1
  K  K16  1  0.49279094  0.25153354  -0.00566537  1
  K  K17  1  0.50385874  0.24627268  0.50061119  1
  K  K18  1  0.49655578  0.74839229  -0.00493069  1
  K  K19  1  0.50513165  0.74973485  0.50432878  1
  K  K20  1  0.83694317  0.25098226  -0.00079329  1
  K  K21  1  0.83846861  0.25170441  0.49947451  1
  K  K22  1  0.84154709  0.74831140  0.00645009  1
  K  K23  1  0.82859357  0.74938175  0.50033316  1
  Na  Na24  1  0.33377338  0.75209795  0.75167130  1
  Na  Na25  1  0.66495027  0.57866839  0.73988196  1
  Na  Na26  1  0.66410773  0.58041301  0.24783650  1
  Li  Li27  1  0.32379970  0.74633973  0.25040480  1
  Li  Li28  1  0.66659390  0.25248448  0.23977658  1
  Li  Li29  1  0.17123064  0.33351513  0.74666011  1
  Li  Li30  1  0.00180923  0.08527238  0.75601442  1
  Li  Li31  1  0.16805806  0.66720660  0.24456693  1
  Mg  Mg32  1  0.50291832  0.50028711  0.24900534  1
  Mg  Mg33  1  0.00395574  0.74870586  0.25002955  1
  Mg  Mg34  1  0.49799397  0.00014491  0.75115369  1
  Mg  Mg35  1  0.16743311  0.50325680  0.24667000  1
  Mg  Mg36  1  0.16218712  0.00184482  0.75789302  1
  Mg  Mg37  1  0.66547830  0.74988184  0.25033263  1
  Mg  Mg38  1  0.16935104  0.49818908  0.74666394  1
  Mg  Mg39  1  0.83443980  0.00175604  0.24891206  1
  Mg  Mg40  1  0.83474761  0.00195386  0.75060766  1
  Mg  Mg41  1  0.32803944  0.25168842  0.75067225  1
  Mg  Mg42  1  0.83255253  0.49894392  0.24560195  1
  Mg  Mg43  1  0.66470101  0.24845766  0.74922515  1
  Mg  Mg44  1  0.00022387  0.75076745  0.75200141  1
  Mg  Mg45  1  0.66815819  0.74900932  0.74319966  1
  Mg  Mg46  1  0.83326110  0.49708819  0.74567589  1
  Mg  Mg47  1  0.50030037  -0.00081697  0.25299286  1
  Mg  Mg48  1  0.00310699  0.24865078  0.74987656  1
  Mg  Mg49  1  0.00157900  0.25275745  0.25014177  1
  Mg  Mg50  1  0.16667487  -0.00010878  0.25774067  1
  Mg  Mg51  1  0.33663992  0.25009117  0.25298357  1
  Mg  Mg52  1  0.49967112  0.49694067  0.74556232  1
  Mg  Mg53  1  0.83558149  0.16438161  0.75150372  1
  Mg  Mg54  1  0.33143097  0.58730584  0.24908939  1
  Mg  Mg55  1  0.33508131  0.58469076  0.74709078  1
  Mg  Mg56  1  0.00093040  0.58557023  0.24692690  1
  Mg  Mg57  1  0.50103934  0.83336157  0.74806145  1
  Mg  Mg58  1  0.33568763  0.41640164  0.24816117  1
  Mg  Mg59  1  0.00092871  0.08580248  0.25292050  1
  Mg  Mg60  1  0.49665175  0.16476056  0.75243830  1
  Mg  Mg61  1  0.83398773  0.33252462  0.74639969  1
  Mg  Mg62  1  0.16671533  0.83507936  0.75559778  1
  Mg  Mg63  1  0.33181552  0.41301613  0.74885639  1
  Mg  Mg64  1  0.82993895  0.33385142  0.24741944  1
  Mg  Mg65  1  0.16674324  0.16573281  0.25495560  1
  Mg  Mg66  1  0.66817455  0.91496788  0.74652655  1
  Mg  Mg67  1  0.83202716  0.66443751  0.74481675  1
  Mg  Mg68  1  0.16623926  0.16798800  0.75553566  1
  Mg  Mg69  1  0.00108154  0.58232463  0.74800091  1
  Mg  Mg70  1  0.50554062  0.33350866  0.24761195  1
  Mg  Mg71  1  0.49554461  0.33488522  0.74650344  1
  Mg  Mg72  1  0.66652807  0.08668979  0.25002288  1
  Mg  Mg73  1  0.33259996  0.91284298  0.25567020  1
  Mg  Mg74  1  0.83307851  0.83471974  0.24934811  1
  Mg  Mg75  1  0.66343605  0.41427667  0.74515405  1
  Mg  Mg76  1  0.66555699  0.41379066  0.24798023  1
  Mg  Mg77  1  0.16701516  0.82934501  0.25294421  1
  Mg  Mg78  1  0.16799380  0.66725999  0.74875784  1
  Mg  Mg79  1  0.82961117  0.17012511  0.25021051  1
  Mg  Mg80  1  0.49667472  0.83157899  0.25454630  1
  Mg  Mg81  1  0.16620476  0.33511106  0.24807746  1
  Mg  Mg82  1  0.33249586  0.08498689  0.75407793  1
  Mg  Mg83  1  0.83150535  0.66550146  0.24828257  1
  Mg  Mg84  1  0.33421620  0.08349501  0.25684533  1
  Mg  Mg85  1  0.49672453  0.66852113  0.25141661  1
  Mg  Mg86  1  0.00095702  0.91933262  0.75320535  1
  Mg  Mg87  1  0.50153640  0.66588431  0.74566359  1
  Mg  Mg88  1  0.00556294  0.41341996  0.74573625  1
  Mg  Mg89  1  0.33335335  0.91583466  0.75517534  1
  Mg  Mg90  1  0.66754285  0.08340064  0.75135540  1
  Mg  Mg91  1  0.66625202  0.91622378  0.25076921  1
  Mg  Mg92  1  -0.00179956  0.41634256  0.24562465  1
  Mg  Mg93  1  0.83282401  0.83448626  0.74863512  1
  Mg  Mg94  1  0.50357907  0.16611606  0.25186077  1
  Mg  Mg95  1  -0.00116943  0.91563316  0.25171068  1
  Fe  Fe96  1  0.68750295  0.16655627  0.11032967  1
  Fe  Fe97  1  0.85588378  0.41968956  0.10627263  1
  Fe  Fe98  1  0.47702725  0.41860943  0.88831300  1
  Fe  Fe99  1  0.52557535  0.41433718  0.60250530  1
  Fe  Fe100  1  0.80823610  0.08145285  0.89078856  1
  Fe  Fe101  1  0.13990914  0.91639554  0.89599952  1
  Fe  Fe102  1  0.14266198  0.08367691  0.39629228  1
  Fe  Fe103  1  0.02801833  0.33448629  0.10730759  1
  Fe  Fe104  1  0.30502652  0.16983336  0.89413309  1
  Fe  Fe105  1  0.85638773  0.91914212  0.11113777  1
  Fe  Fe106  1  0.19410869  0.42228555  0.60675537  1
  Fe  Fe107  1  0.02626022  0.66601866  0.11036588  1
  Fe  Fe108  1  0.35620586  0.32589581  0.60390551  1
  Fe  Fe109  1  0.47450369  0.08016619  0.89345595  1
  Fe  Fe110  1  0.68748339  0.33477021  0.10635858  1
  Fe  Fe111  1  0.69424304  0.83118641  0.60556049  1
  Fe  Fe112  1  0.52310628  0.42382546  0.10707336  1
  Si  Si113  1  0.47686189  0.58374391  0.38650272  1
  Si  Si114  1  0.35804108  0.83412621  0.12040412  1
  Si  Si115  1  0.69292539  0.66277770  0.60578003  1
  Si  Si116  1  0.69819645  0.33186579  0.60913871  1
  Si  Si117  1  0.52335423  0.91939595  0.61004166  1
  Si  Si118  1  0.02851103  0.32914477  0.61073946  1
  Si  Si119  1  0.85949934  0.08458815  0.61512067  1
  Si  Si120  1  0.86015945  0.57849202  0.61023730  1
  Si  Si121  1  0.02753686  0.16305835  0.11570887  1
  Si  Si122  1  0.80829401  0.58270078  0.38569942  1
  Si  Si123  1  0.35133615  0.15818010  0.61243066  1
  Si  Si124  1  0.86468838  0.91974998  0.61186609  1
  Si  Si125  1  0.14355530  0.58354381  0.88372643  1
  Si  Si126  1  0.48050457  0.90916225  0.88843122  1
  Si  Si127  1  0.35945202  0.16349491  0.11990548  1
  Si  Si128  1  0.64532964  0.32924310  0.88327829  1
  Si  Si129  1  0.97439257  0.66243523  0.88305188  1
  Si  Si130  1  0.48119623  0.58844907  0.88416730  1
  Si  Si131  1  0.64183055  0.83458740  0.38796280  1
  Si  Si132  1  0.19942609  0.58134262  0.11102343  1
  Si  Si133  1  0.30902797  0.66279321  0.38565136  1
  Si  Si134  1  0.86027849  0.08885001  0.11576465  1
  Si  Si135  1  0.02121946  0.67071919  0.61393577  1
  Si  Si136  1  0.97494648  0.33681566  0.88246603  1
  Si  Si137  1  0.19026603  0.91299775  0.61809537  1
  Si  Si138  1  0.52172618  0.07742346  0.11591974  1
  Si  Si139  1  0.97022891  0.17368053  0.88666228  1
  Si  Si140  1  0.35853855  0.67248850  0.11692133  1
  Si  Si141  1  0.86566762  0.41228589  0.61159200  1
  Si  Si142  1  0.97080645  0.17099028  0.38993456  1
  Si  Si143  1  0.68507115  0.67222974  0.11527503  1
  Si  Si144  1  0.30944893  0.66379680  0.88416554  1
  Si  Si145  1  0.31031595  0.33704012  0.38535469  1
  Si  Si146  1  0.80712315  0.08298910  0.38787348  1
  Si  Si147  1  0.52430206  0.08505950  0.61390103  1
  Si  Si148  1  0.96789431  0.82798873  0.88726401  1
  Si  Si149  1  0.14216154  0.90997579  0.39229888  1
  Si  Si150  1  0.30857781  0.82863334  0.38891394  1
  Si  Si151  1  0.80768255  0.91259176  0.88568529  1
  Si  Si152  1  0.14181651  0.58219614  0.38494998  1
  Si  Si153  1  0.97332332  0.82904738  0.38790250  1
  Si  Si154  1  0.68515578  0.83426220  0.11342420  1
  Si  Si155  1  0.64557783  0.66932300  0.87868426  1
  Si  Si156  1  0.31427519  0.17036976  0.39208186  1
  Si  Si157  1  0.69216396  0.16609441  0.61286283  1
  Si  Si158  1  0.47374678  0.91532081  0.39024452  1
  Si  Si159  1  0.02956470  0.83841894  0.11334019  1
  Si  Si160  1  0.20300153  0.41488901  0.11195044  1
  Si  Si161  1  0.30928228  0.83199623  0.89155559  1
  Si  Si162  1  0.80956100  0.58073734  0.88006784  1
  Si  Si163  1  0.35936382  0.67258382  0.61193202  1
  Si  Si164  1  0.35877652  0.84023179  0.61475608  1
  Si  Si165  1  0.80488067  0.41775511  0.38671332  1
  Si  Si166  1  0.64372866  0.83025682  0.88168655  1
  Si  Si167  1  0.13723795  0.42001571  0.88276659  1
  Si  Si168  1  0.64102161  0.33080954  0.38559344  1
  Si  Si169  1  0.36538734  0.32746034  0.11573809  1
  Si  Si170  1  0.18898095  0.59350520  0.60936488  1
  Si  Si171  1  0.97193199  0.33707407  0.38588702  1
  Si  Si172  1  0.63934452  0.16714887  0.88641065  1
  Si  Si173  1  0.02629241  0.16497474  0.61690872  1
  Si  Si174  1  0.13492029  0.08899163  0.89279253  1
  Si  Si175  1  0.18768266  0.07628428  0.61897965  1
  Si  Si176  1  0.19703690  0.91813168  0.12142667  1
  Si  Si177  1  0.47716105  0.41749629  0.38513585  1
  Si  Si178  1  0.97359916  0.66325176  0.38697185  1
  Si  Si179  1  0.51958589  0.91451667  0.11835058  1
  Si  Si180  1  0.64102319  0.16386715  0.38861128  1
  Si  Si181  1  0.47758318  0.08211720  0.39064328  1
  Si  Si182  1  0.51637580  0.59130558  0.11310911  1
  Si  Si183  1  0.14102371  0.41714538  0.38442849  1
  Si  Si184  1  0.51747355  0.58531733  0.60668933  1
  Si  Si185  1  0.64107191  0.66947286  0.38596618  1
  Si  Si186  1  0.80716844  0.41560030  0.88111315  1
  Si  Si187  1  0.30540856  0.34013688  0.88955206  1
  Si  Si188  1  0.02576833  0.83405672  0.61712121  1
  Si  Si189  1  0.19527654  0.08200752  0.12067870  1
  Si  Si190  1  0.84730563  0.58866818  0.10875050  1
  Si  Si191  1  0.80889961  0.91675049  0.38800244  1
  O  O192  1  0.27836039  0.11115982  0.09208948  1
  O  O193  1  0.27211939  0.09997424  0.58910833  1
  O  O194  1  0.28291025  0.61700326  0.08462460  1
  O  O195  1  0.26792668  0.63446042  0.58102475  1
  O  O196  1  0.60237521  0.09421065  0.08249087  1
  O  O197  1  0.60200047  0.12464991  0.58316701  1
  O  O198  1  0.60442820  0.61916794  0.08846679  1
  O  O199  1  0.60314701  0.61936229  0.58197987  1
  O  O200  1  0.95358075  0.10240723  0.09267652  1
  O  O201  1  0.93708764  0.12299177  0.58486964  1
  O  O202  1  0.92541319  0.61710118  0.07456147  1
  O  O203  1  0.93801903  0.62094158  0.58255738  1
  O  O204  1  0.12778650  0.36376874  0.07676947  1
  O  O205  1  0.09939815  0.36292088  0.57346613  1
  O  O206  1  0.11942334  0.86585195  0.09046804  1
  O  O207  1  0.11046870  0.85950891  0.58821092  1
  O  O208  1  0.44491173  0.34759787  0.08201728  1
  O  O209  1  0.44912259  0.34633266  0.56501232  1
  O  O210  1  0.44190888  0.85901820  0.08938194  1
  O  O211  1  0.43120386  0.88088065  0.58036082  1
  O  O212  1  0.78370188  0.34717559  0.07070662  1
  O  O213  1  0.78396170  0.36223698  0.58286014  1
  O  O214  1  0.76323822  0.85765101  0.07835593  1
  O  O215  1  0.78534631  0.87464707  0.57276854  1
  O  O216  1  0.28927763  0.38453738  0.08793610  1
  O  O217  1  0.27546738  0.38966962  0.56134304  1
  O  O218  1  0.28115931  0.89073461  0.09266864  1
  O  O219  1  0.26967367  0.88242702  0.58482709  1
  O  O220  1  0.61871037  0.40991300  0.07175258  1
  O  O221  1  0.62388824  0.38157000  0.57095714  1
  O  O222  1  0.60284593  0.88810214  0.08846296  1
  O  O223  1  0.59300126  0.88149738  0.57309632  1
  O  O224  1  0.95203273  0.40302586  0.06984359  1
  O  O225  1  0.94117367  0.37521668  0.57953023  1
  O  O226  1  0.95721803  0.89571014  0.08166506  1
  O  O227  1  0.95054219  0.88983831  0.58551098  1
  O  O228  1  0.11367196  0.13105558  0.09068696  1
  O  O229  1  0.10374007  0.12443612  0.58702353  1
  O  O230  1  0.11705007  0.62472517  0.07441767  1
  O  O231  1  0.10467796  0.64621957  0.58377761  1
  O  O232  1  0.44066903  0.13188363  0.09085421  1
  O  O233  1  0.43483886  0.12470896  0.58333178  1
  O  O234  1  0.44400233  0.65432526  0.08570766  1
  O  O235  1  0.43638975  0.64017833  0.57682946  1
  O  O236  1  0.79502905  0.15160024  0.08564997  1
  O  O237  1  0.76878730  0.12464269  0.58292323  1
  O  O238  1  0.76772283  0.64731935  0.08417059  1
  O  O239  1  0.76928322  0.61540347  0.57868325  1
  O  O240  1  0.05456090  0.13137727  0.42898476  1
  O  O241  1  0.04636077  0.11770305  0.91574726  1
  O  O242  1  0.06517650  0.62395044  0.41586544  1
  O  O243  1  0.06234449  0.61889905  0.91186361  1
  O  O244  1  0.40472880  0.12749355  0.41980288  1
  O  O245  1  0.38411366  0.10294615  0.93331255  1
  O  O246  1  0.39840791  0.62015772  0.41767221  1
  O  O247  1  0.39828826  0.62180654  0.91338273  1
  O  O248  1  0.72925567  0.12029651  0.41901172  1
  O  O249  1  0.70765870  0.10674540  0.91871563  1
  O  O250  1  0.73192451  0.62806159  0.41339193  1
  O  O251  1  0.72783878  0.61694657  0.90650092  1
  O  O252  1  0.22902870  0.37277290  0.41275594  1
  O  O253  1  0.21621385  0.36907807  0.91396236  1
  O  O254  1  0.23024163  0.86373132  0.42096985  1
  O  O255  1  0.23868956  0.86284242  0.93184383  1
  O  O256  1  0.56308972  0.37111736  0.41585665  1
  O  O257  1  0.56687874  0.35364542  0.91721166  1
  O  O258  1  0.56462368  0.87472067  0.41810411  1
  O  O259  1  0.55925642  0.85132301  0.91206034  1
  O  O260  1  0.89815980  0.38142878  0.41724498  1
  O  O261  1  0.89171208  0.36811792  0.91009571  1
  O  O262  1  0.89649436  0.87182686  0.41734872  1
  O  O263  1  0.87772577  0.84860018  0.91058069  1
  O  O264  1  0.06352809  0.37721586  0.41457095  1
  O  O265  1  0.05341852  0.39102582  0.91152398  1
  O  O266  1  0.06444824  0.86577744  0.41957319  1
  O  O267  1  0.04437507  0.87593443  0.92570833  1
  O  O268  1  0.39520691  0.38472602  0.41408097  1
  O  O269  1  0.37695983  0.39900688  0.92037195  1
  O  O270  1  0.39786898  0.87266244  0.41945908  1
  O  O271  1  0.40085676  0.87249129  0.91816527  1
  O  O272  1  0.73115647  0.37237272  0.41729519  1
  O  O273  1  0.72716264  0.38293676  0.90991835  1
  O  O274  1  0.73030336  0.87795656  0.41776064  1
  O  O275  1  0.72017291  0.88587403  0.91120925  1
  O  O276  1  0.24425386  0.13377261  0.42883302  1
  O  O277  1  0.20620257  0.14558979  0.92669465  1
  O  O278  1  0.23090692  0.62421938  0.41692345  1
  O  O279  1  0.22986268  0.62819624  0.91539910  1
  O  O280  1  0.56762830  0.12131321  0.42234596  1
  O  O281  1  0.55365736  0.15482400  0.91623610  1
  O  O282  1  0.56508709  0.62819484  0.41707770  1
  O  O283  1  0.56253461  0.64379525  0.90976882  1
  O  O284  1  0.89067875  0.13094016  0.41785640  1
  O  O285  1  0.89044328  0.15145687  0.92086322  1
  O  O286  1  0.89930074  0.62123337  0.41940481  1
  O  O287  1  0.89625953  0.62491821  0.91288071  1
  O  O288  1  0.17723765  -0.00015450  0.09220681  1
  O  O289  1  0.16604800  -0.00586185  0.58875659  1
  O  O290  1  0.19235215  0.49775226  0.08224892  1
  O  O291  1  0.16804892  0.51806366  0.57223761  1
  O  O292  1  0.48825823  -0.00515055  0.09202416  1
  O  O293  1  0.51557433  0.00342064  0.58242106  1
  O  O294  1  0.48307090  0.51702762  0.07733725  1
  O  O295  1  0.49900327  0.50944836  0.56864353  1
  O  O296  1  0.82378567  0.01231959  0.08430359  1
  O  O297  1  0.85239164  0.00311147  0.58321274  1
  O  O298  1  0.81309676  0.51199091  0.07834121  1
  O  O299  1  0.85595795  0.49542774  0.58161501  1
  O  O300  1  0.00344986  0.23811742  0.07813501  1
  O  O301  1  0.01236352  0.24525465  0.58280752  1
  O  O302  1  0.00978777  0.76099508  0.07748349  1
  O  O303  1  -0.00140952  0.75324442  0.58652619  1
  O  O304  1  0.33400598  0.24450271  0.09216535  1
  O  O305  1  0.32289983  0.23109826  0.57309654  1
  O  O306  1  0.32985466  0.75443263  0.08971650  1
  O  O307  1  0.34842192  0.75728809  0.58567455  1
  O  O308  1  0.63743276  0.24972174  0.07425991  1
  O  O309  1  0.68642402  0.24738789  0.58084863  1
  O  O310  1  0.65417608  0.75300237  0.08626763  1
  O  O311  1  0.68542304  0.73856034  0.56600274  1
  O  O312  1  0.15203105  -0.01267612  0.42922324  1
  O  O313  1  0.15393102  0.01029068  0.92866891  1
  O  O314  1  0.14901428  0.49926291  0.41621781  1
  O  O315  1  0.15544765  0.50210672  0.91443227  1
  O  O316  1  0.48011982  -0.00153904  0.41989108  1
  O  O317  1  0.50863835  -0.01517681  0.92344666  1
  O  O318  1  0.49113426  0.50048318  0.41447910  1
  O  O319  1  0.50746591  0.51285976  0.91950808  1
  O  O320  1  0.81915603  -0.00043382  0.41838797  1
  O  O321  1  0.83925813  -0.01297439  0.92186816  1
  O  O322  1  0.80693796  0.50070365  0.41746849  1
  O  O323  1  0.82139150  0.49850154  0.90975665  1
  O  O324  1  0.32827402  0.25545326  0.41550809  1
  O  O325  1  0.32817597  0.26383507  0.92720986  1
  O  O326  1  0.32015954  0.74549589  0.41782757  1
  O  O327  1  0.32426879  0.74593906  0.91331664  1
  O  O328  1  0.64876634  0.24752624  0.41713653  1
  O  O329  1  0.67855658  0.24817359  0.90794463  1
  O  O330  1  0.65092040  0.75209299  0.41800965  1
  O  O331  1  0.67274673  0.74946832  0.91046410  1
  O  O332  1  0.97263831  0.25548569  0.41753358  1
  O  O333  1  0.99864987  0.25679839  0.91324048  1
  O  O334  1  0.97635716  0.74610157  0.41788220  1
  O  O335  1  0.98619468  0.74369989  0.91297426  1
  O  O336  1  0.21384459  0.08229147  0.20144424  1
  O  O337  1  0.20569210  0.07893079  0.69871725  1
  O  O338  1  0.21383831  0.58033780  0.19131418  1
  O  O339  1  0.20789148  0.58894088  0.69012542  1
  O  O340  1  0.54050351  0.07959772  0.19758374  1
  O  O341  1  0.54449737  0.08304848  0.69384780  1
  O  O342  1  0.52998937  0.58778134  0.19324306  1
  O  O343  1  0.53034498  0.58296220  0.68647871  1
  O  O344  1  0.87856876  0.08579902  0.19820984  1
  O  O345  1  0.87390279  0.08403567  0.69423125  1
  O  O346  1  0.87239605  0.58724875  0.19078482  1
  O  O347  1  0.87804629  0.58123981  0.69049926  1
  O  O348  1  0.04727943  0.33355627  0.20058056  1
  O  O349  1  0.03969684  0.33166464  0.69053784  1
  O  O350  1  0.04393599  0.83588915  0.19534504  1
  O  O351  1  0.04092499  0.83254045  0.69714185  1
  O  O352  1  0.37961694  0.33039749  0.19721414  1
  O  O353  1  0.37373661  0.33009363  0.69626453  1
  O  O354  1  0.37864386  0.83666709  0.20006579  1
  O  O355  1  0.38065693  0.84285070  0.69398106  1
  O  O356  1  0.71182071  0.33422070  0.19822861  1
  O  O357  1  0.71185701  0.33018282  0.68988067  1
  O  O358  1  0.70682547  0.83539913  0.19504483  1
  O  O359  1  0.71358296  0.83346901  0.69710965  1
  O  O360  1  0.21381106  0.41618695  0.19340208  1
  O  O361  1  0.21260326  0.42043332  0.69747779  1
  O  O362  1  0.21200758  0.91817609  0.20207012  1
  O  O363  1  0.21086561  0.91363701  0.69782004  1
  O  O364  1  0.54354610  0.41824434  0.19967686  1
  O  O365  1  0.54504074  0.41452616  0.69430534  1
  O  O366  1  0.54079136  0.91443874  0.19936611  1
  O  O367  1  0.54255440  0.91709345  0.69087736  1
  O  O368  1  0.87868256  0.41642632  0.19959212  1
  O  O369  1  0.88146622  0.41481143  0.69181244  1
  O  O370  1  0.87765943  0.91694530  0.20372549  1
  O  O371  1  0.87758284  0.91658088  0.69253355  1
  O  O372  1  0.04598116  0.16767708  0.19724959  1
  O  O373  1  0.04424245  0.16689581  0.69614528  1
  O  O374  1  0.04345239  0.66761040  0.20120682  1
  O  O375  1  0.03973738  0.66708240  0.69427381  1
  O  O376  1  0.37776238  0.16329814  0.20100364  1
  O  O377  1  0.37456351  0.16274259  0.69247345  1
  O  O378  1  0.37665242  0.66836503  0.19664043  1
  O  O379  1  0.37961927  0.66387881  0.69082398  1
  O  O380  1  0.71113138  0.16414804  0.20243047  1
  O  O381  1  0.70875455  0.16649075  0.69276954  1
  O  O382  1  0.71115804  0.67589978  0.19479692  1
  O  O383  1  0.71674643  0.67197576  0.68516775  1
  O  O384  1  0.12323283  0.08397270  0.30469968  1
  O  O385  1  0.12532495  0.08448851  0.81211919  1
  O  O386  1  0.12282706  0.57951685  0.30587691  1
  O  O387  1  0.12361981  0.58442489  0.80303686  1
  O  O388  1  0.45882760  0.08119257  0.31035576  1
  O  O389  1  0.45480902  0.08042078  0.80016535  1
  O  O390  1  0.45765620  0.58468301  0.30666558  1
  O  O391  1  0.45916380  0.58663859  0.80328721  1
  O  O392  1  0.79007671  0.08071911  0.30812952  1
  O  O393  1  0.78767853  0.08258568  0.79856585  1
  O  O394  1  0.79932412  0.58319897  0.30684234  1
  O  O395  1  0.80010462  0.58132178  0.80061594  1
  O  O396  1  0.29167309  0.33497586  0.30482461  1
  O  O397  1  0.29185043  0.33471979  0.80917010  1
  O  O398  1  0.28916194  0.83483341  0.30990446  1
  O  O399  1  0.28537041  0.84020410  0.81182999  1
  O  O400  1  0.62240186  0.33173731  0.30672655  1
  O  O401  1  0.62581226  0.33103515  0.80197999  1
  O  O402  1  0.62386184  0.83538444  0.30784418  1
  O  O403  1  0.62468804  0.83279156  0.80110454  1
  O  O404  1  0.95710353  0.33565942  0.30644341  1
  O  O405  1  0.95666828  0.33551254  0.80173462  1
  O  O406  1  0.95583847  0.83147593  0.30801168  1
  O  O407  1  0.95501553  0.83117674  0.80595730  1
  O  O408  1  0.12501040  0.41869530  0.30441534  1
  O  O409  1  0.11897696  0.42413382  0.80329927  1
  O  O410  1  0.12391979  0.91462779  0.31155171  1
  O  O411  1  0.12024713  0.91525686  0.80404604  1
  O  O412  1  0.45629099  0.41600166  0.30530853  1
  O  O413  1  0.45362829  0.41824500  0.79696954  1
  O  O414  1  0.45692834  0.91633961  0.31013881  1
  O  O415  1  0.45907145  0.91325493  0.80708886  1
  O  O416  1  0.78941437  0.41812050  0.30748888  1
  O  O417  1  0.79131353  0.41523941  0.80037063  1
  O  O418  1  0.78860605  0.91618842  0.30808482  1
  O  O419  1  0.79068984  0.91616746  0.80440148  1
  O  O420  1  0.29385355  0.16657915  0.31110121  1
  O  O421  1  0.28882703  0.16681628  0.80148954  1
  O  O422  1  0.29169034  0.66262487  0.30712382  1
  O  O423  1  0.28578576  0.65959628  0.80477472  1
  O  O424  1  0.61871706  0.15830243  0.30991348  1
  O  O425  1  0.62274676  0.16472066  0.80416847  1
  O  O426  1  0.61915377  0.67420753  0.30718762  1
  O  O427  1  0.62413671  0.67213674  0.79919273  1
  O  O428  1  0.95847925  0.16802168  0.30949673  1
  O  O429  1  0.95254212  0.17336571  0.80628727  1
  O  O430  1  0.95464717  0.66575283  0.30717736  1
  O  O431  1  0.95669688  0.66366535  0.80235414  1
  F  F432  1  0.04721336  -0.00131443  0.20728387  1
  F  F433  1  0.04626007  -0.00261792  0.70170116  1
  F  F434  1  0.04680138  0.50115887  0.20023694  1
  F  F435  1  0.04474047  0.50236480  0.69714901  1
  F  F436  1  0.37771587  -0.00100229  0.20919582  1
  F  F437  1  0.37567503  -0.00293299  0.70280192  1
  F  F438  1  0.37895034  0.50127433  0.20455943  1
  F  F439  1  0.37531972  0.50283049  0.69841184  1
  F  F440  1  0.71060444  -0.00116359  0.20571391  1
  F  F441  1  0.71109720  -0.00121595  0.69774941  1
  F  F442  1  0.71547489  0.49222028  0.20040315  1
  F  F443  1  0.71991089  0.48759245  0.69201124  1
  F  F444  1  0.21534631  0.24752000  0.20681690  1
  F  F445  1  0.20913421  0.24582135  0.70024264  1
  F  F446  1  0.20902523  0.75397161  0.20257764  1
  F  F447  1  0.19791734  0.75293135  0.70052599  1
  F  F448  1  0.53922904  0.24628209  0.20318030  1
  F  F449  1  0.54475429  0.24597292  0.70069562  1
  F  F450  1  0.54382144  0.75338315  0.20383865  1
  F  F451  1  0.54580849  0.75156196  0.69427479  1
  F  F452  1  0.88258078  0.24965244  0.20492006  1
  F  F453  1  0.87873639  0.24906091  0.69910066  1
  F  F454  1  0.87943840  0.75115622  0.20480137  1
  F  F455  1  0.88125103  0.74959701  0.70029817  1
  F  F456  1  0.29067049  -0.00080937  0.30621606  1
  F  F457  1  0.28719701  -0.00102300  0.80057622  1
  F  F458  1  0.28839034  0.49943339  0.29785455  1
  F  F459  1  0.28781308  0.50541357  0.79669630  1
  F  F460  1  0.62120194  -0.00216405  0.30149500  1
  F  F461  1  0.62110287  -0.00325333  0.79405421  1
  F  F462  1  0.61807561  0.49245545  0.30574959  1
  F  F463  1  0.62015674  0.49275650  0.79710648  1
  F  F464  1  0.95585434  0.00144251  0.30293956  1
  F  F465  1  0.95119438  -0.00385539  0.79982986  1
  F  F466  1  0.95664730  0.50302600  0.29654817  1
  F  F467  1  0.95551735  0.49895354  0.79349185  1
  F  F468  1  0.12491692  0.25094871  0.30238702  1
  F  F469  1  0.11786018  0.24976964  0.79997780  1
  F  F470  1  0.11731758  0.75794290  0.30715204  1
  F  F471  1  0.11949110  0.74702026  0.80122514  1
  F  F472  1  0.45628792  0.24856037  0.30241241  1
  F  F473  1  0.45396016  0.24901736  0.79590487  1
  F  F474  1  0.46198867  0.75092821  0.30587798  1
  F  F475  1  0.46833954  0.74980283  0.79706993  1
  F  F476  1  0.80110860  0.25168020  0.30578564  1
  F  F477  1  0.78762064  0.25098531  0.79389776  1
  F  F478  1  0.78752605  0.75208212  0.30003194  1
  F  F479  1  0.79037219  0.74613204  0.79517297  1
