# generated using pymatgen
data_K24Na3Li5Mg64Fe17Si79(O5F)48
_symmetry_space_group_name_H-M   'P 1'
_cell_length_a   16.09080068
_cell_length_b   18.58121100
_cell_length_c   20.54905738
_cell_angle_alpha   90.00188902
_cell_angle_beta   100.01507105
_cell_angle_gamma   89.98710466
_symmetry_Int_Tables_number   1
_chemical_formula_structural   K24Na3Li5Mg64Fe17Si79(O5F)48
_chemical_formula_sum   'K24 Na3 Li5 Mg64 Fe17 Si79 O240 F48'
_cell_volume   6050.27151097
_cell_formula_units_Z   1
loop_
 _symmetry_equiv_pos_site_id
 _symmetry_equiv_pos_as_xyz
  1  'x, y, z'
loop_
 _atom_site_type_symbol
 _atom_site_label
 _atom_site_symmetry_multiplicity
 _atom_site_fract_x
 _atom_site_fract_y
 _atom_site_fract_z
 _atom_site_occupancy
  K  K0  1  0.00406347  0.00156751  0.00081634  1
  K  K1  1  0.00042238  0.00095132  0.49845475  1
  K  K2  1  0.00569130  0.48925642  -0.00015905  1
  K  K3  1  0.00552767  0.49293137  0.50047132  1
  K  K4  1  0.33626114  0.00117210  0.00079374  1
  K  K5  1  0.32984936  0.00241717  0.49763228  1
  K  K6  1  0.32682265  0.49634555  -0.00520541  1
  K  K7  1  0.32394690  0.48971848  0.50285798  1
  K  K8  1  0.66560675  0.00461554  -0.00270844  1
  K  K9  1  0.66753622  0.00333555  0.50420472  1
  K  K10  1  0.67044427  0.50420957  -0.00188633  1
  K  K11  1  0.67181228  0.49580306  0.49957816  1
  K  K12  1  0.16767944  0.25903943  -0.00129698  1
  K  K13  1  0.18387200  0.26187281  0.49683394  1
  K  K14  1  0.17411542  0.74448300  -0.00104086  1
  K  K15  1  0.17847700  0.74109314  0.50076130  1
  K  K16  1  0.49625639  0.26061754  -0.00961469  1
  K  K17  1  0.49466952  0.25799742  0.50536562  1
  K  K18  1  0.50006705  0.74512320  -0.00108972  1
  K  K19  1  0.49831858  0.74954387  0.50040040  1
  K  K20  1  0.83186568  0.25412757  -0.00347455  1
  K  K21  1  0.83031594  0.25926186  0.50115830  1
  K  K22  1  0.82898897  0.74447747  -0.00015527  1
  K  K23  1  0.83304169  0.74033174  0.50107958  1
  Na  Na24  1  0.50507473  0.49849688  0.24980589  1
  Na  Na25  1  0.16708252  0.16938201  0.25392262  1
  Na  Na26  1  0.00010090  0.41864321  0.74791382  1
  Li  Li27  1  0.16735322  0.49781053  0.25337460  1
  Li  Li28  1  0.33661151  0.25527092  0.75020474  1
  Li  Li29  1  0.83124497  0.83101965  0.24648201  1
  Li  Li30  1  0.83261504  0.66370781  0.75336214  1
  Li  Li31  1  0.66466493  0.42031646  0.24847023  1
  Mg  Mg32  1  0.50218248  -0.00064545  0.25024769  1
  Mg  Mg33  1  0.33514796  0.74927232  0.25330818  1
  Mg  Mg34  1  0.66908323  0.74832311  0.75321075  1
  Mg  Mg35  1  0.00135543  0.25159230  0.25045390  1
  Mg  Mg36  1  0.83175856  -0.00336514  0.24894412  1
  Mg  Mg37  1  0.16794439  0.00015169  0.25638578  1
  Mg  Mg38  1  0.83405515  0.50196337  0.74827199  1
  Mg  Mg39  1  0.66509454  0.25460741  0.24763271  1
  Mg  Mg40  1  0.83111054  0.50028327  0.24571091  1
  Mg  Mg41  1  0.49953905  0.50087463  0.74845153  1
  Mg  Mg42  1  0.33159544  0.74940321  0.75123139  1
  Mg  Mg43  1  0.16512142  0.00000382  0.75051311  1
  Mg  Mg44  1  0.49926270  0.00055937  0.75274189  1
  Mg  Mg45  1  0.66505455  0.25177967  0.74886854  1
  Mg  Mg46  1  -0.00102792  0.25017123  0.74985628  1
  Mg  Mg47  1  -0.00440435  0.74950116  0.74730112  1
  Mg  Mg48  1  0.67078336  0.75002361  0.24619142  1
  Mg  Mg49  1  0.33173300  0.25149939  0.25558503  1
  Mg  Mg50  1  0.16615129  0.49982169  0.74754653  1
  Mg  Mg51  1  -0.00134563  0.75036388  0.25176750  1
  Mg  Mg52  1  0.82954498  0.00023010  0.75276403  1
  Mg  Mg53  1  0.16494720  0.33715542  0.25277161  1
  Mg  Mg54  1  0.33144732  0.41858408  0.25333810  1
  Mg  Mg55  1  0.49792017  0.16689934  0.25102885  1
  Mg  Mg56  1  0.17008481  0.83324712  0.25558433  1
  Mg  Mg57  1  0.33235550  0.41338125  0.74853840  1
  Mg  Mg58  1  0.50198893  0.66397954  0.24786964  1
  Mg  Mg59  1  0.33454630  0.08654322  0.75203015  1
  Mg  Mg60  1  0.66443575  0.08566078  0.24678939  1
  Mg  Mg61  1  -0.00147548  0.91448730  0.25333459  1
  Mg  Mg62  1  0.50209186  0.83429875  0.24857955  1
  Mg  Mg63  1  0.83138219  0.33614357  0.24786601  1
  Mg  Mg64  1  0.33509867  0.91645164  0.75401880  1
  Mg  Mg65  1  0.49917414  0.33475698  0.75015284  1
  Mg  Mg66  1  0.16915366  0.33176231  0.74745398  1
  Mg  Mg67  1  0.66722273  0.08555519  0.75082919  1
  Mg  Mg68  1  0.33396888  0.08378672  0.25425652  1
  Mg  Mg69  1  0.66911627  0.91547003  0.75414695  1
  Mg  Mg70  1  -0.00214021  0.58516706  0.74729586  1
  Mg  Mg71  1  0.83192491  0.33576825  0.74640663  1
  Mg  Mg72  1  0.00026546  0.08337154  0.25128880  1
  Mg  Mg73  1  0.00243636  0.41732305  0.24696797  1
  Mg  Mg74  1  0.66910805  0.41696959  0.74696581  1
  Mg  Mg75  1  0.00223607  0.58242122  0.25102615  1
  Mg  Mg76  1  0.83260361  0.83205830  0.75136440  1
  Mg  Mg77  1  0.83099667  0.16589660  0.75021345  1
  Mg  Mg78  1  0.49907768  0.16851252  0.75027358  1
  Mg  Mg79  1  0.16615781  0.83357998  0.75161762  1
  Mg  Mg80  1  0.16633744  0.66468068  0.74865207  1
  Mg  Mg81  1  0.33149188  0.58469219  0.75020715  1
  Mg  Mg82  1  0.33593778  0.91375967  0.25288576  1
  Mg  Mg83  1  -0.00333308  0.91544606  0.75118414  1
  Mg  Mg84  1  -0.00174544  0.08391141  0.75043502  1
  Mg  Mg85  1  0.66651052  0.91480995  0.24581159  1
  Mg  Mg86  1  0.83240838  0.16648647  0.24862226  1
  Mg  Mg87  1  0.33359675  0.58091679  0.25369155  1
  Mg  Mg88  1  0.83185593  0.66911768  0.24686460  1
  Mg  Mg89  1  0.50228088  0.83453590  0.75500427  1
  Mg  Mg90  1  0.16904811  0.16759794  0.75014581  1
  Mg  Mg91  1  0.67080948  0.58596853  0.75146395  1
  Mg  Mg92  1  0.66739868  0.58186015  0.24588300  1
  Mg  Mg93  1  0.50088281  0.33560433  0.25022001  1
  Mg  Mg94  1  0.16881378  0.66418355  0.25544724  1
  Mg  Mg95  1  0.50183166  0.66657707  0.75187069  1
  Fe  Fe96  1  0.69337076  0.33548515  0.60552350  1
  Fe  Fe97  1  0.02602935  0.32888943  0.10767683  1
  Fe  Fe98  1  0.47504767  0.91787272  0.89134555  1
  Fe  Fe99  1  0.81618570  0.41934483  0.88782083  1
  Fe  Fe100  1  0.36158756  0.33007200  0.60946205  1
  Fe  Fe101  1  0.30816222  0.33169214  0.88925565  1
  Fe  Fe102  1  0.68713769  0.66633093  0.10739634  1
  Fe  Fe103  1  0.81167788  0.91515039  0.89225643  1
  Fe  Fe104  1  0.30515523  0.66545324  0.89055588  1
  Fe  Fe105  1  0.63847916  0.17233892  0.88922982  1
  Fe  Fe106  1  0.18821584  0.58309119  0.60771429  1
  Fe  Fe107  1  0.13789186  0.41851925  0.39051289  1
  Fe  Fe108  1  0.31451641  0.16207601  0.39520433  1
  Fe  Fe109  1  0.81318753  0.08612811  0.89290185  1
  Fe  Fe110  1  0.64667763  0.66590856  0.89034112  1
  Fe  Fe111  1  0.52490658  0.92211172  0.10887061  1
  Fe  Fe112  1  0.31378041  0.83656214  0.39443726  1
  Si  Si113  1  0.64020460  0.33423859  0.38376430  1
  Si  Si114  1  0.96798817  0.16489297  0.38571548  1
  Si  Si115  1  0.14030043  0.41703576  0.88449287  1
  Si  Si116  1  0.13397729  0.08068053  0.39108094  1
  Si  Si117  1  0.96661673  0.33095883  0.38727823  1
  Si  Si118  1  0.31480978  0.33612241  0.39220918  1
  Si  Si119  1  0.52446098  0.40995096  0.11465271  1
  Si  Si120  1  0.47294050  0.08699337  0.88814751  1
  Si  Si121  1  0.85640942  0.41873589  0.11128673  1
  Si  Si122  1  0.86366135  0.58588031  0.11335641  1
  Si  Si123  1  0.64230288  0.83404478  0.88999319  1
  Si  Si124  1  0.30501203  0.15952212  0.88761520  1
  Si  Si125  1  0.35712329  0.83494734  0.61623741  1
  Si  Si126  1  0.86017827  0.58308479  0.61181879  1
  Si  Si127  1  0.96824680  0.83373110  0.38571779  1
  Si  Si128  1  0.13329654  0.58262059  0.88635609  1
  Si  Si129  1  0.86138567  0.91369843  0.11701489  1
  Si  Si130  1  0.64365061  0.34182817  0.88620977  1
  Si  Si131  1  0.85566793  0.07852353  0.11499201  1
  Si  Si132  1  0.19607284  0.41896385  0.11590925  1
  Si  Si133  1  0.19462788  0.91347754  0.11708450  1
  Si  Si134  1  0.13861968  0.08022298  0.88533258  1
  Si  Si135  1  0.18963780  0.08105109  0.61480634  1
  Si  Si136  1  0.86282151  0.41767625  0.60719841  1
  Si  Si137  1  0.97521309  0.82730942  0.88686784  1
  Si  Si138  1  0.19404284  0.58448301  0.11965415  1
  Si  Si139  1  0.52276268  0.57773898  0.11069782  1
  Si  Si140  1  0.48511529  0.91741247  0.38886368  1
  Si  Si141  1  0.35961848  0.15751545  0.61265746  1
  Si  Si142  1  0.13914786  0.59022711  0.38965311  1
  Si  Si143  1  0.02299687  0.16330134  0.61331384  1
  Si  Si144  1  0.02786723  0.83389125  0.11770541  1
  Si  Si145  1  0.81619238  0.58379714  0.88692673  1
  Si  Si146  1  0.35874245  0.66249574  0.11642208  1
  Si  Si147  1  0.64289939  0.17027628  0.38459198  1
  Si  Si148  1  0.18652600  0.41251048  0.60897327  1
  Si  Si149  1  0.36148306  0.66954703  0.61214273  1
  Si  Si150  1  0.51972650  0.09299983  0.11217511  1
  Si  Si151  1  0.69142224  0.33460747  0.11293123  1
  Si  Si152  1  0.68858803  0.16408412  0.60897814  1
  Si  Si153  1  0.13476255  0.91483746  0.88516604  1
  Si  Si154  1  0.02237347  0.15791079  0.11325904  1
  Si  Si155  1  0.31377668  0.66411336  0.39088956  1
  Si  Si156  1  0.97999562  0.17033957  0.88588431  1
  Si  Si157  1  0.02092588  0.67235787  0.61006215  1
  Si  Si158  1  0.69494510  0.66481820  0.61381824  1
  Si  Si159  1  0.30354061  0.83743287  0.88963176  1
  Si  Si160  1  0.80320468  0.91739775  0.38375083  1
  Si  Si161  1  0.97105858  0.66928285  0.38625135  1
  Si  Si162  1  0.35362301  0.17112931  0.11668396  1
  Si  Si163  1  0.52606285  0.58962613  0.61342245  1
  Si  Si164  1  0.64460396  0.82865810  0.38495335  1
  Si  Si165  1  0.13527373  0.91498368  0.39243798  1
  Si  Si166  1  0.69274076  0.82982709  0.61395602  1
  Si  Si167  1  0.80872840  0.58162523  0.38347159  1
  Si  Si168  1  0.47726044  0.58303591  0.38590046  1
  Si  Si169  1  0.47423578  0.58228642  0.88688963  1
  Si  Si170  1  0.64266386  0.66433449  0.38440424  1
  Si  Si171  1  0.35909632  0.82839627  0.11358420  1
  Si  Si172  1  0.48457334  0.07989415  0.38812540  1
  Si  Si173  1  0.85664773  0.08175988  0.61307991  1
  Si  Si174  1  0.19481681  0.07704022  0.11782456  1
  Si  Si175  1  0.52597980  0.07611247  0.61361673  1
  Si  Si176  1  0.97429944  0.66704730  0.88105944  1
  Si  Si177  1  0.69244020  0.16876029  0.11347998  1
  Si  Si178  1  0.80430240  0.41741193  0.38184929  1
  Si  Si179  1  0.47699337  0.41691174  0.38584897  1
  Si  Si180  1  0.69299892  0.83749822  0.11084333  1
  Si  Si181  1  0.18985320  0.91572960  0.61562108  1
  Si  Si182  1  0.02177569  0.83666196  0.61419235  1
  Si  Si183  1  0.85632130  0.91746608  0.61418399  1
  Si  Si184  1  0.35774216  0.33497536  0.11741832  1
  Si  Si185  1  0.97642142  0.32937627  0.88270910  1
  Si  Si186  1  0.02992000  0.66758617  0.11760594  1
  Si  Si187  1  0.80337130  0.08172156  0.38438381  1
  Si  Si188  1  0.52627485  0.42493261  0.60864900  1
  Si  Si189  1  0.52727920  0.91174122  0.61526907  1
  Si  Si190  1  0.02680392  0.32665719  0.61357802  1
  Si  Si191  1  0.47718893  0.41958964  0.88545137  1
  O  O192  1  0.27041446  0.12034838  0.08801904  1
  O  O193  1  0.27051885  0.11155632  0.58542851  1
  O  O194  1  0.27143298  0.61942092  0.08710003  1
  O  O195  1  0.28349408  0.62172896  0.57561862  1
  O  O196  1  0.60213758  0.12919477  0.08564125  1
  O  O197  1  0.60410527  0.11289157  0.58286066  1
  O  O198  1  0.59478156  0.60701235  0.07160668  1
  O  O199  1  0.60640639  0.62330725  0.58233330  1
  O  O200  1  0.93667044  0.10875166  0.08498728  1
  O  O201  1  0.93725511  0.11591395  0.58309922  1
  O  O202  1  0.94855216  0.61827602  0.08703917  1
  O  O203  1  0.93136737  0.63012130  0.58097179  1
  O  O204  1  0.11715895  0.37332914  0.07660432  1
  O  O205  1  0.10724343  0.35555550  0.58277221  1
  O  O206  1  0.10591567  0.87127649  0.08756830  1
  O  O207  1  0.10275970  0.87132860  0.58506001  1
  O  O208  1  0.44018974  0.36051579  0.08558468  1
  O  O209  1  0.44772525  0.37599910  0.57358199  1
  O  O210  1  0.43124805  0.86216949  0.07768584  1
  O  O211  1  0.43631923  0.87201857  0.58680917  1
  O  O212  1  0.76466756  0.37892148  0.08351532  1
  O  O213  1  0.78275076  0.37437331  0.56640470  1
  O  O214  1  0.78448088  0.85981418  0.08787125  1
  O  O215  1  0.76900168  0.87273821  0.58411825  1
  O  O216  1  0.28121743  0.38992811  0.08749309  1
  O  O217  1  0.26359679  0.38227229  0.57564189  1
  O  O218  1  0.26823924  0.87044081  0.08716296  1
  O  O219  1  0.27003121  0.88061405  0.58661169  1
  O  O220  1  0.60157199  0.37386059  0.08124559  1
  O  O221  1  0.60807689  0.40255634  0.57611876  1
  O  O222  1  0.62587102  0.89967896  0.08061717  1
  O  O223  1  0.60164142  0.86900500  0.58331655  1
  O  O224  1  0.92625740  0.38048651  0.07560392  1
  O  O225  1  0.94708312  0.37970050  0.58404277  1
  O  O226  1  0.94468044  0.88256157  0.08852401  1
  O  O227  1  0.93700034  0.88455200  0.58374581  1
  O  O228  1  0.10257213  0.11326236  0.08994277  1
  O  O229  1  0.10203308  0.12506897  0.58413153  1
  O  O230  1  0.11078030  0.63409826  0.08883626  1
  O  O231  1  0.09547338  0.64373644  0.57385576  1
  O  O232  1  0.43714401  0.14570486  0.08650150  1
  O  O233  1  0.43487922  0.11253852  0.58274542  1
  O  O234  1  0.43342507  0.62298702  0.08490719  1
  O  O235  1  0.44791211  0.64454687  0.58451379  1
  O  O236  1  0.76996661  0.12581078  0.08717692  1
  O  O237  1  0.76925920  0.12356146  0.58117545  1
  O  O238  1  0.78585837  0.63468608  0.07849953  1
  O  O239  1  0.76921306  0.62354518  0.58142377  1
  O  O240  1  0.05420893  0.12207987  0.41765688  1
  O  O241  1  0.05735028  0.11237060  0.91377933  1
  O  O242  1  0.06447618  0.63839774  0.41764489  1
  O  O243  1  0.04596800  0.60776923  0.91259294  1
  O  O244  1  0.40808901  0.09977416  0.42569619  1
  O  O245  1  0.38050045  0.10046597  0.91257191  1
  O  O246  1  0.39704580  0.61236703  0.41880795  1
  O  O247  1  0.38938876  0.59705017  0.91839693  1
  O  O248  1  0.72838611  0.12339002  0.41446147  1
  O  O249  1  0.72012111  0.10918410  0.93029168  1
  O  O250  1  0.73061068  0.62027607  0.41382787  1
  O  O251  1  0.73547046  0.60274293  0.92204715  1
  O  O252  1  0.23911781  0.37087361  0.42451010  1
  O  O253  1  0.21617020  0.36909979  0.92545759  1
  O  O254  1  0.22088581  0.87580889  0.42800193  1
  O  O255  1  0.21315155  0.86188976  0.91401071  1
  O  O256  1  0.56252955  0.36924889  0.41566497  1
  O  O257  1  0.55535551  0.36437355  0.91264905  1
  O  O258  1  0.56629286  0.86338935  0.41587729  1
  O  O259  1  0.55333445  0.84475056  0.91745694  1
  O  O260  1  0.88555425  0.36829343  0.41529265  1
  O  O261  1  0.89834198  0.34819470  0.91975362  1
  O  O262  1  0.89314488  0.87819430  0.41419982  1
  O  O263  1  0.89569827  0.84385640  0.92196868  1
  O  O264  1  0.05046035  0.36989652  0.42474990  1
  O  O265  1  0.05134028  0.38917599  0.90633312  1
  O  O266  1  0.05592644  0.87405484  0.41947778  1
  O  O267  1  0.05283288  0.88495706  0.91433955  1
  O  O268  1  0.39941882  0.38721892  0.41965558  1
  O  O269  1  0.39950826  0.39440782  0.92095642  1
  O  O270  1  0.40934852  0.89479177  0.42705197  1
  O  O271  1  0.37075819  0.89932520  0.91811411  1
  O  O272  1  0.72400778  0.38294178  0.41137711  1
  O  O273  1  0.71311637  0.40231339  0.91608078  1
  O  O274  1  0.73018118  0.87470470  0.41599626  1
  O  O275  1  0.70691945  0.89910998  0.91821560  1
  O  O276  1  0.21954536  0.12016845  0.42538224  1
  O  O277  1  0.22219004  0.12601608  0.91715315  1
  O  O278  1  0.22965015  0.63237361  0.41690459  1
  O  O279  1  0.20807362  0.63446174  0.92315203  1
  O  O280  1  0.56548387  0.13410119  0.41505980  1
  O  O281  1  0.53481731  0.15222846  0.91765726  1
  O  O282  1  0.56410510  0.62973741  0.41633675  1
  O  O283  1  0.54573941  0.64000479  0.91837344  1
  O  O284  1  0.89265185  0.12112950  0.41499101  1
  O  O285  1  0.90094389  0.15456603  0.92158011  1
  O  O286  1  0.89650307  0.62468425  0.41571510  1
  O  O287  1  0.88781864  0.64918060  0.90933250  1
  O  O288  1  0.19002731  -0.00494160  0.08499500  1
  O  O289  1  0.17410332  -0.00216752  0.58594804  1
  O  O290  1  0.18047813  0.50330018  0.08910639  1
  O  O291  1  0.15780308  0.49055951  0.57665985  1
  O  O292  1  0.49629789  0.01630393  0.07783502  1
  O  O293  1  0.52182692  -0.00698559  0.58340557  1
  O  O294  1  0.50363951  0.49258437  0.08756957  1
  O  O295  1  0.50385409  0.50972963  0.58251218  1
  O  O296  1  0.83971449  -0.00432164  0.08738411  1
  O  O297  1  0.84359598  -0.00087591  0.58258834  1
  O  O298  1  0.84795239  0.50297198  0.08571748  1
  O  O299  1  0.85900660  0.50230187  0.57827777  1
  O  O300  1  0.01407989  0.23347451  0.07436143  1
  O  O301  1  0.00545902  0.24428012  0.58212033  1
  O  O302  1  0.01597597  0.75108603  0.08886714  1
  O  O303  1  0.00154671  0.75667015  0.58316573  1
  O  O304  1  0.33110918  0.25308075  0.08907526  1
  O  O305  1  0.34936031  0.23430421  0.57626634  1
  O  O306  1  0.34347932  0.74466610  0.08724871  1
  O  O307  1  0.34514051  0.75405624  0.58480196  1
  O  O308  1  0.68822261  0.25090112  0.08372324  1
  O  O309  1  0.67298894  0.24010191  0.57091568  1
  O  O310  1  0.66367421  0.76066130  0.07705907  1
  O  O311  1  0.68912347  0.74807962  0.58213860  1
  O  O312  1  0.13238872  -0.00229560  0.42162681  1
  O  O313  1  0.15306798  -0.00290509  0.91405934  1
  O  O314  1  0.14276892  0.51323807  0.42546222  1
  O  O315  1  0.15215641  0.50016991  0.91428504  1
  O  O316  1  0.52065853  -0.00139523  0.41200370  1
  O  O317  1  0.50975493  0.01077266  0.91980425  1
  O  O318  1  0.49826710  0.50024153  0.41211887  1
  O  O319  1  0.50875774  0.50082067  0.91131215  1
  O  O320  1  0.80817315  -0.00029994  0.41547002  1
  O  O321  1  0.85980824  -0.00013943  0.92709686  1
  O  O322  1  0.81768338  0.49946053  0.41355629  1
  O  O323  1  0.85914341  0.50951945  0.91914561  1
  O  O324  1  0.33822093  0.25695607  0.42451024  1
  O  O325  1  0.32747222  0.23625529  0.92332453  1
  O  O326  1  0.33540195  0.74174129  0.42622557  1
  O  O327  1  0.32898407  0.75992707  0.92361091  1
  O  O328  1  0.65874876  0.25200474  0.41452915  1
  O  O329  1  0.67355988  0.26491548  0.91981627  1
  O  O330  1  0.65849334  0.74656343  0.41544464  1
  O  O331  1  0.68431928  0.75792320  0.91790279  1
  O  O332  1  0.96697962  0.24638023  0.41480960  1
  O  O333  1  1.01892844  0.25032961  0.90872417  1
  O  O334  1  0.96649086  0.75174269  0.41585365  1
  O  O335  1  1.01117293  0.74627196  0.91054764  1
  O  O336  1  0.21521661  0.07273775  0.19706985  1
  O  O337  1  0.20629225  0.08150887  0.69494555  1
  O  O338  1  0.21248866  0.58822856  0.19923605  1
  O  O339  1  0.21048388  0.58438688  0.69880035  1
  O  O340  1  0.54126862  0.08752027  0.19357943  1
  O  O341  1  0.54263988  0.07871387  0.69352463  1
  O  O342  1  0.54709871  0.58902399  0.19008752  1
  O  O343  1  0.54291810  0.58667318  0.69340877  1
  O  O344  1  0.87385526  0.08114521  0.19586441  1
  O  O345  1  0.87677919  0.08180013  0.69299545  1
  O  O346  1  0.87950789  0.58591281  0.19444854  1
  O  O347  1  0.87750634  0.58233238  0.69090578  1
  O  O348  1  0.04195221  0.33132915  0.19887279  1
  O  O349  1  0.04621873  0.32290176  0.69271865  1
  O  O350  1  0.04646632  0.83400725  0.19825458  1
  O  O351  1  0.04176557  0.83715586  0.69433358  1
  O  O352  1  0.37759681  0.33360710  0.19763791  1
  O  O353  1  0.38202283  0.33641543  0.69902069  1
  O  O354  1  0.37817880  0.83205764  0.19466803  1
  O  O355  1  0.37347703  0.83424635  0.69612401  1
  O  O356  1  0.71147622  0.33075511  0.19271600  1
  O  O357  1  0.70967702  0.33175358  0.69649780  1
  O  O358  1  0.70675497  0.83475508  0.19195500  1
  O  O359  1  0.70887853  0.83175819  0.69344804  1
  O  O360  1  0.21280115  0.41499409  0.19566739  1
  O  O361  1  0.20614646  0.41547840  0.68997716  1
  O  O362  1  0.20982235  0.91535821  0.19747837  1
  O  O363  1  0.20755013  0.91608863  0.69587071  1
  O  O364  1  0.54706570  0.40624346  0.19322690  1
  O  O365  1  0.54334346  0.42124181  0.69006339  1
  O  O366  1  0.54436542  0.91801594  0.20136630  1
  O  O367  1  0.54616507  0.91386948  0.69496873  1
  O  O368  1  0.87564332  0.41619800  0.19243990  1
  O  O369  1  0.86755009  0.41746842  0.68605141  1
  O  O370  1  0.88061926  0.91812971  0.19689134  1
  O  O371  1  0.87634581  0.91812062  0.69387245  1
  O  O372  1  0.03213151  0.16337561  0.19316445  1
  O  O373  1  0.04140524  0.16228507  0.69350234  1
  O  O374  1  0.04588082  0.66876012  0.19802128  1
  O  O375  1  0.04133890  0.67081959  0.69063541  1
  O  O376  1  0.37581006  0.16664641  0.19670517  1
  O  O377  1  0.37924705  0.15869267  0.69259970  1
  O  O378  1  0.37724224  0.66540090  0.19691512  1
  O  O379  1  0.37793883  0.66880743  0.69274800  1
  O  O380  1  0.70965416  0.16787931  0.19437287  1
  O  O381  1  0.70931993  0.16599519  0.68910612  1
  O  O382  1  0.71165086  0.66667515  0.19929151  1
  O  O383  1  0.70963775  0.66759710  0.69274267  1
  O  O384  1  0.11664306  0.07561151  0.31105674  1
  O  O385  1  0.12138681  0.08101127  0.80458626  1
  O  O386  1  0.11924845  0.59013317  0.30951429  1
  O  O387  1  0.12053834  0.58547637  0.80560942  1
  O  O388  1  0.46256525  0.08214938  0.30691508  1
  O  O389  1  0.45582308  0.08407369  0.80606915  1
  O  O390  1  0.45565103  0.59119988  0.30698627  1
  O  O391  1  0.45579132  0.58454091  0.80483890  1
  O  O392  1  0.78754294  0.08306478  0.30413451  1
  O  O393  1  0.78869573  0.08414744  0.79891884  1
  O  O394  1  0.79420901  0.58393458  0.30389708  1
  O  O395  1  0.79041101  0.58161149  0.80626287  1
  O  O396  1  0.29338248  0.33524714  0.31086547  1
  O  O397  1  0.28646319  0.33341770  0.79920788  1
  O  O398  1  0.29157752  0.83329588  0.30251389  1
  O  O399  1  0.28653033  0.83489055  0.80746005  1
  O  O400  1  0.62099914  0.32976906  0.30456472  1
  O  O401  1  0.62319952  0.33763018  0.80444575  1
  O  O402  1  0.62682599  0.83094820  0.30505709  1
  O  O403  1  0.62458781  0.83389192  0.80712306  1
  O  O404  1  0.95068070  0.33227164  0.30658948  1
  O  O405  1  0.95041451  0.32521035  0.80297019  1
  O  O406  1  0.95860212  0.83312158  0.30647822  1
  O  O407  1  0.95743300  0.83310169  0.80558075  1
  O  O408  1  0.11858409  0.41877192  0.30042794  1
  O  O409  1  0.13435795  0.41659965  0.80499210  1
  O  O410  1  0.12239695  0.91469658  0.31119452  1
  O  O411  1  0.11956217  0.91661173  0.80435970  1
  O  O412  1  0.45443656  0.41042504  0.30688891  1
  O  O413  1  0.45768495  0.41957622  0.80442056  1
  O  O414  1  0.45994850  0.91478063  0.30817737  1
  O  O415  1  0.45507764  0.91745306  0.79887212  1
  O  O416  1  0.79287331  0.41766546  0.30248464  1
  O  O417  1  0.79133147  0.41844459  0.79624965  1
  O  O418  1  0.78478972  0.92020444  0.30448151  1
  O  O419  1  0.79033694  0.91536489  0.79887832  1
  O  O420  1  0.30151640  0.16496742  0.30521793  1
  O  O421  1  0.28439374  0.16009775  0.80725753  1
  O  O422  1  0.29398299  0.66712959  0.30984679  1
  O  O423  1  0.28699510  0.66929220  0.79894364  1
  O  O424  1  0.62505208  0.16783141  0.30415448  1
  O  O425  1  0.62146157  0.16767703  0.79629816  1
  O  O426  1  0.62325260  0.66657203  0.30474843  1
  O  O427  1  0.62248318  0.66662620  0.79833996  1
  O  O428  1  0.95250071  0.16423911  0.30528007  1
  O  O429  1  0.95826003  0.16458835  0.80452626  1
  O  O430  1  0.95512809  0.66774280  0.30607662  1
  O  O431  1  0.95997287  0.66892804  0.80112363  1
  F  F432  1  0.04640007  -0.00273375  0.20584168  1
  F  F433  1  0.04361240  -0.00105522  0.70078504  1
  F  F434  1  0.03844797  0.50395377  0.19862890  1
  F  F435  1  0.04952681  0.51144092  0.69619767  1
  F  F436  1  0.37958562  -0.00109842  0.20607644  1
  F  F437  1  0.37499116  0.00056778  0.70150625  1
  F  F438  1  0.36767248  0.50074162  0.20081740  1
  F  F439  1  0.37827942  0.50229804  0.70126495  1
  F  F440  1  0.71151914  0.00274876  0.20024863  1
  F  F441  1  0.70903689  -0.00142395  0.69813375  1
  F  F442  1  0.71568373  0.50468500  0.19541356  1
  F  F443  1  0.71087331  0.50523987  0.69815512  1
  F  F444  1  0.21647721  0.26023415  0.20295116  1
  F  F445  1  0.20510796  0.24507412  0.69740469  1
  F  F446  1  0.21180728  0.74859841  0.20537775  1
  F  F447  1  0.20965249  0.75497580  0.69915077  1
  F  F448  1  0.54420063  0.24741500  0.20122399  1
  F  F449  1  0.54353469  0.25227770  0.69819897  1
  F  F450  1  0.54559464  0.75024447  0.20208969  1
  F  F451  1  0.54436488  0.75397830  0.70170047  1
  F  F452  1  0.87680377  0.24921759  0.20257735  1
  F  F453  1  0.87825950  0.24553088  0.69846611  1
  F  F454  1  0.88369584  0.74813069  0.20051175  1
  F  F455  1  0.88103748  0.76091489  0.69468162  1
  F  F456  1  0.29013930  -0.00349439  0.30241823  1
  F  F457  1  0.28427347  -0.00021782  0.79675304  1
  F  F458  1  0.29388312  0.50109715  0.30468124  1
  F  F459  1  0.28839726  0.49857599  0.79568271  1
  F  F460  1  0.62493696  0.00347224  0.29765536  1
  F  F461  1  0.62119073  0.00031290  0.79598137  1
  F  F462  1  0.63787479  0.50552594  0.30317184  1
  F  F463  1  0.62073651  0.50113090  0.79317969  1
  F  F464  1  0.95186473  -0.00027611  0.30034188  1
  F  F465  1  0.95501392  -0.00014244  0.79644227  1
  F  F466  1  0.95173401  0.50028209  0.29665137  1
  F  F467  1  0.95135974  0.50965333  0.79700444  1
  F  F468  1  0.11484179  0.25769710  0.30591302  1
  F  F469  1  0.12038595  0.24670815  0.79731009  1
  F  F470  1  0.12122732  0.75084164  0.30141547  1
  F  F471  1  0.11861594  0.75113686  0.79425393  1
  F  F472  1  0.45809134  0.24984563  0.29869193  1
  F  F473  1  0.45986287  0.24996220  0.79790171  1
  F  F474  1  0.45806040  0.75070842  0.29780726  1
  F  F475  1  0.45251823  0.75030504  0.79664002  1
  F  F476  1  0.78637780  0.24934030  0.29743639  1
  F  F477  1  0.78752340  0.24845163  0.79474945  1
  F  F478  1  0.78878912  0.74949584  0.30002972  1
  F  F479  1  0.78894867  0.75144083  0.79586834  1
