# generated using pymatgen
data_K24Na3Li5Mg64Fe17Si79(O5F)48
_symmetry_space_group_name_H-M   'P 1'
_cell_length_a   16.10463542
_cell_length_b   18.59884983
_cell_length_c   20.55742294
_cell_angle_alpha   89.98071525
_cell_angle_beta   100.00267740
_cell_angle_gamma   90.03135474
_symmetry_Int_Tables_number   1
_chemical_formula_structural   K24Na3Li5Mg64Fe17Si79(O5F)48
_chemical_formula_sum   'K24 Na3 Li5 Mg64 Fe17 Si79 O240 F48'
_cell_volume   6063.91993007
_cell_formula_units_Z   1
loop_
 _symmetry_equiv_pos_site_id
 _symmetry_equiv_pos_as_xyz
  1  'x, y, z'
loop_
 _atom_site_type_symbol
 _atom_site_label
 _atom_site_symmetry_multiplicity
 _atom_site_fract_x
 _atom_site_fract_y
 _atom_site_fract_z
 _atom_site_occupancy
  K  K0  1  -0.00878957  0.01282624  0.01062858  1
  K  K1  1  -0.00887973  0.00617722  0.48666271  1
  K  K2  1  -0.00712535  0.49358693  0.00071938  1
  K  K3  1  -0.01381510  0.50229391  0.49869987  1
  K  K4  1  0.34115648  0.00063087  0.01892320  1
  K  K5  1  0.33059811  0.00782283  0.48859658  1
  K  K6  1  0.32934265  0.50935112  0.01345397  1
  K  K7  1  0.33718443  0.50399788  0.48678566  1
  K  K8  1  0.67678771  -0.00088991  0.00433744  1
  K  K9  1  0.67069934  -0.00158801  0.49205093  1
  K  K10  1  0.67741025  0.49540410  0.00089389  1
  K  K11  1  0.67348880  0.50246261  0.50880969  1
  K  K12  1  0.16956741  0.23977053  0.01252463  1
  K  K13  1  0.16411368  0.24274000  0.49248556  1
  K  K14  1  0.16811734  0.74398434  0.00850793  1
  K  K15  1  0.16339062  0.74492006  0.48644767  1
  K  K16  1  0.50115350  0.24734048  0.00493905  1
  K  K17  1  0.49859896  0.24616742  0.49562837  1
  K  K18  1  0.50617192  0.74693304  0.02191042  1
  K  K19  1  0.50063137  0.74477132  0.48734722  1
  K  K20  1  0.83139569  0.24934409  -0.00121485  1
  K  K21  1  0.81940452  0.24222800  0.49330827  1
  K  K22  1  0.82957314  0.75943877  0.00994894  1
  K  K23  1  0.83791248  0.73778929  0.49479888  1
  Na  Na24  1  0.82979486  0.49960446  0.74163536  1
  Na  Na25  1  0.67010718  0.42028884  0.74895466  1
  Na  Na26  1  0.33785048  0.58263328  0.25319813  1
  Li  Li27  1  0.50255943  -0.00120285  0.25011483  1
  Li  Li28  1  0.65771188  0.74610242  0.24323915  1
  Li  Li29  1  0.83320548  0.16228390  0.25474047  1
  Li  Li30  1  0.50237281  0.67007784  0.25011760  1
  Li  Li31  1  0.66724026  0.08883999  0.74913683  1
  Mg  Mg32  1  0.66949713  0.24905257  0.75380207  1
  Mg  Mg33  1  0.33587639  0.25135816  0.74758344  1
  Mg  Mg34  1  0.33184151  0.75013899  0.75045460  1
  Mg  Mg35  1  0.17052981  0.49938457  0.25041395  1
  Mg  Mg36  1  0.83257094  0.50031638  0.24658363  1
  Mg  Mg37  1  0.00118014  0.24940302  0.75325213  1
  Mg  Mg38  1  0.66897491  0.24777857  0.25370802  1
  Mg  Mg39  1  0.16798870  0.00121565  0.74965263  1
  Mg  Mg40  1  0.50151286  0.50188646  0.75011366  1
  Mg  Mg41  1  0.50325048  0.00171577  0.74914100  1
  Mg  Mg42  1  -0.00170259  0.24845643  0.25184797  1
  Mg  Mg43  1  0.16612408  0.00051964  0.24957617  1
  Mg  Mg44  1  0.16468274  0.50069202  0.74774500  1
  Mg  Mg45  1  0.33794904  0.74841860  0.25445033  1
  Mg  Mg46  1  0.50046352  0.50269581  0.24984110  1
  Mg  Mg47  1  0.66621353  0.75142239  0.74918326  1
  Mg  Mg48  1  0.82946488  0.00286420  0.75114034  1
  Mg  Mg49  1  -0.00085254  0.74895154  0.74459450  1
  Mg  Mg50  1  0.83326206  0.00026418  0.25133210  1
  Mg  Mg51  1  -0.00013976  0.75045614  0.24733885  1
  Mg  Mg52  1  0.33425161  0.24705448  0.24744512  1
  Mg  Mg53  1  -0.00258398  0.08529727  0.25329863  1
  Mg  Mg54  1  0.49880265  0.83491757  0.75000480  1
  Mg  Mg55  1  -0.00424995  0.41625602  0.74856203  1
  Mg  Mg56  1  0.82859531  0.66747900  0.24671433  1
  Mg  Mg57  1  0.16660498  0.83360697  0.25115157  1
  Mg  Mg58  1  0.83225470  0.83593677  0.74990311  1
  Mg  Mg59  1  0.33141929  0.58442856  0.74975377  1
  Mg  Mg60  1  0.16606412  0.16299611  0.24944198  1
  Mg  Mg61  1  0.50677714  0.16552577  0.74927730  1
  Mg  Mg62  1  0.83304961  0.66580812  0.74692040  1
  Mg  Mg63  1  0.16947128  0.66607544  0.25000583  1
  Mg  Mg64  1  0.66169158  0.58727341  0.24745840  1
  Mg  Mg65  1  0.33731721  0.08588299  0.74822054  1
  Mg  Mg66  1  0.33426902  0.08201639  0.24776818  1
  Mg  Mg67  1  0.49912935  0.33333121  0.24831343  1
  Mg  Mg68  1  0.16676814  0.33349248  0.24674079  1
  Mg  Mg69  1  -0.00165345  0.41520723  0.24806999  1
  Mg  Mg70  1  0.83133629  0.33181850  0.74775516  1
  Mg  Mg71  1  -0.00145971  0.91664034  0.74782807  1
  Mg  Mg72  1  -0.00100255  0.08439917  0.75172160  1
  Mg  Mg73  1  0.49924016  0.16251202  0.24878649  1
  Mg  Mg74  1  0.82786371  0.16461581  0.75100223  1
  Mg  Mg75  1  0.66574134  0.91436428  0.25144838  1
  Mg  Mg76  1  0.16699044  0.33438774  0.74933723  1
  Mg  Mg77  1  0.82934819  0.83249902  0.24822250  1
  Mg  Mg78  1  0.50316664  0.83130803  0.25131119  1
  Mg  Mg79  1  0.33286136  0.41607866  0.24836555  1
  Mg  Mg80  1  0.66805926  0.58589866  0.75005404  1
  Mg  Mg81  1  0.33349757  0.91683968  0.74961195  1
  Mg  Mg82  1  0.33436887  0.41720143  0.74968829  1
  Mg  Mg83  1  0.16873241  0.16618012  0.75022657  1
  Mg  Mg84  1  0.50434301  0.33601450  0.74999686  1
  Mg  Mg85  1  0.66707489  0.41615754  0.24849411  1
  Mg  Mg86  1  -0.00152149  0.91520414  0.25094016  1
  Mg  Mg87  1  0.66536215  0.91917526  0.75069221  1
  Mg  Mg88  1  0.33645166  0.91690908  0.25009943  1
  Mg  Mg89  1  0.66757489  0.08132214  0.25217189  1
  Mg  Mg90  1  0.16337009  0.66669426  0.74571230  1
  Mg  Mg91  1  -0.00221433  0.58547061  0.74445336  1
  Mg  Mg92  1  0.83290500  0.33180151  0.25106209  1
  Mg  Mg93  1  0.16431037  0.83516225  0.74659688  1
  Mg  Mg94  1  0.49960008  0.66723026  0.75210614  1
  Mg  Mg95  1  0.00017756  0.58319117  0.24704976  1
  Fe  Fe96  1  0.85665059  0.41301005  0.11126553  1
  Fe  Fe97  1  0.52239555  0.07555719  0.60868025  1
  Fe  Fe98  1  0.81191015  0.41500940  0.89185759  1
  Fe  Fe99  1  0.80671054  0.07768775  0.39138491  1
  Fe  Fe100  1  0.36086546  0.16566170  0.10723987  1
  Fe  Fe101  1  0.85654408  0.58092289  0.60447229  1
  Fe  Fe102  1  0.68562286  0.32991665  0.60752513  1
  Fe  Fe103  1  0.13901564  0.08424926  0.39186291  1
  Fe  Fe104  1  0.68814924  0.16140424  0.60942982  1
  Fe  Fe105  1  0.68996536  0.66567685  0.10821848  1
  Fe  Fe106  1  0.80880940  0.08526027  0.89298004  1
  Fe  Fe107  1  0.31329481  0.66760517  0.39349030  1
  Fe  Fe108  1  0.02342055  0.83117283  0.10973191  1
  Fe  Fe109  1  0.02832381  0.67051457  0.60372405  1
  Fe  Fe110  1  0.18731552  0.07804030  0.10801481  1
  Fe  Fe111  1  0.19444426  0.41982130  0.10884117  1
  Fe  Fe112  1  0.85688270  0.92408866  0.11086671  1
  Si  Si113  1  0.02371683  0.84268999  0.60954279  1
  Si  Si114  1  0.63839425  0.83389347  0.88501528  1
  Si  Si115  1  0.63435727  0.16858730  0.89159933  1
  Si  Si116  1  0.30715725  0.83321796  0.88501913  1
  Si  Si117  1  0.36259858  0.33575778  0.11054101  1
  Si  Si118  1  0.63865283  0.83055800  0.38569792  1
  Si  Si119  1  0.47009928  0.08275958  0.88616461  1
  Si  Si120  1  0.47259750  0.58477839  0.88575867  1
  Si  Si121  1  0.52019033  0.42527176  0.61275473  1
  Si  Si122  1  0.03049973  0.32873421  0.61413516  1
  Si  Si123  1  0.47270565  0.91723412  0.88520328  1
  Si  Si124  1  0.19684742  0.58115558  0.61193275  1
  Si  Si125  1  0.85347953  0.09168199  0.11789183  1
  Si  Si126  1  0.63393392  0.33227933  0.89062087  1
  Si  Si127  1  0.97471796  0.82485419  0.38548199  1
  Si  Si128  1  0.31198442  0.83800904  0.38958191  1
  Si  Si129  1  0.53282536  0.08311864  0.11418973  1
  Si  Si130  1  0.31032920  0.33283198  0.38423597  1
  Si  Si131  1  0.98294191  0.33160780  0.88805204  1
  Si  Si132  1  0.68805966  0.67094431  0.61171504  1
  Si  Si133  1  0.19502994  0.92079490  0.61390584  1
  Si  Si134  1  0.03096208  0.16289502  0.61652085  1
  Si  Si135  1  0.30698619  0.33423317  0.88420037  1
  Si  Si136  1  0.14296727  0.41844651  0.88348085  1
  Si  Si137  1  0.86389014  0.08569233  0.61476688  1
  Si  Si138  1  0.52072606  0.57840648  0.11100807  1
  Si  Si139  1  0.19241432  0.41625812  0.61438136  1
  Si  Si140  1  0.68860423  0.83638077  0.11087583  1
  Si  Si141  1  0.47087289  0.41914066  0.88624042  1
  Si  Si142  1  0.47707828  0.41469169  0.38573548  1
  Si  Si143  1  0.97677319  0.66909751  0.88414857  1
  Si  Si144  1  0.02185332  0.66313968  0.11307156  1
  Si  Si145  1  0.80504185  0.41911189  0.38510921  1
  Si  Si146  1  0.98265605  0.16767328  0.88883770  1
  Si  Si147  1  0.97371704  0.66012290  0.38187562  1
  Si  Si148  1  0.14130475  0.57936141  0.38732574  1
  Si  Si149  1  0.97387606  0.17269441  0.39342974  1
  Si  Si150  1  0.35348978  0.82687850  0.61530653  1
  Si  Si151  1  0.52208548  0.58997860  0.61588683  1
  Si  Si152  1  0.86254127  0.40421306  0.60745863  1
  Si  Si153  1  0.18844244  0.58915502  0.11195762  1
  Si  Si154  1  0.14181391  0.41347029  0.38521146  1
  Si  Si155  1  0.80791723  0.59206805  0.88749559  1
  Si  Si156  1  0.19938127  0.08616430  0.61549123  1
  Si  Si157  1  0.19431844  0.90745024  0.11271370  1
  Si  Si158  1  0.02830554  0.33236866  0.11262931  1
  Si  Si159  1  0.63880619  0.66913043  0.88601122  1
  Si  Si160  1  0.14408397  0.08231328  0.88490922  1
  Si  Si161  1  0.80494618  0.58372485  0.38286552  1
  Si  Si162  1  0.35738667  0.66461831  0.61682221  1
  Si  Si163  1  0.47378081  0.08452548  0.38394799  1
  Si  Si164  1  0.01901157  0.16942486  0.11451777  1
  Si  Si165  1  0.68853141  0.32921565  0.11461989  1
  Si  Si166  1  0.69024204  0.16829232  0.11993316  1
  Si  Si167  1  0.85485824  0.92071268  0.61530383  1
  Si  Si168  1  0.30608641  0.66740095  0.88495987  1
  Si  Si169  1  0.36133548  0.17325745  0.61212907  1
  Si  Si170  1  0.97795098  0.83251452  0.88347575  1
  Si  Si171  1  0.14252414  0.91718903  0.88422315  1
  Si  Si172  1  0.63778890  0.16644639  0.38784570  1
  Si  Si173  1  0.80987738  0.91170066  0.88766793  1
  Si  Si174  1  0.14097659  0.58378721  0.88311257  1
  Si  Si175  1  0.31030184  0.16786078  0.38827278  1
  Si  Si176  1  0.97349402  0.33785220  0.38742036  1
  Si  Si177  1  0.80902391  0.90661980  0.38998789  1
  Si  Si178  1  0.52774957  0.41514399  0.11522122  1
  Si  Si179  1  0.35919853  0.33886877  0.61374129  1
  Si  Si180  1  0.51534783  0.90942085  0.61219060  1
  Si  Si181  1  0.64171384  0.33270493  0.38487542  1
  Si  Si182  1  0.36485744  0.83337625  0.11652463  1
  Si  Si183  1  0.85958182  0.58316573  0.11143630  1
  Si  Si184  1  0.52765014  0.91843858  0.11748426  1
  Si  Si185  1  0.36052132  0.66970957  0.11717766  1
  Si  Si186  1  0.13961527  0.91329570  0.38948307  1
  Si  Si187  1  0.64112240  0.66517088  0.38433330  1
  Si  Si188  1  0.48517774  0.57825677  0.39020419  1
  Si  Si189  1  0.68792678  0.83702642  0.61483741  1
  Si  Si190  1  0.30735787  0.16822160  0.88391565  1
  Si  Si191  1  0.47686934  0.91935286  0.38481528  1
  O  O192  1  0.27219349  0.11048838  0.06464322  1
  O  O193  1  0.27305801  0.12785900  0.58568602  1
  O  O194  1  0.27022509  0.62927259  0.08644673  1
  O  O195  1  0.28840870  0.60224038  0.58998538  1
  O  O196  1  0.62081771  0.10722076  0.08728327  1
  O  O197  1  0.61788535  0.08679089  0.57270879  1
  O  O198  1  0.59329616  0.60818866  0.07234365  1
  O  O199  1  0.59971863  0.62552037  0.58555523  1
  O  O200  1  0.93425001  0.12195536  0.08660821  1
  O  O201  1  0.95308736  0.10895464  0.58895038  1
  O  O202  1  0.95293565  0.59838993  0.08924175  1
  O  O203  1  0.94018102  0.61697028  0.56069839  1
  O  O204  1  0.11278645  0.34879293  0.08126356  1
  O  O205  1  0.11351763  0.36236930  0.58668092  1
  O  O206  1  0.12856735  0.84452540  0.08322943  1
  O  O207  1  0.10228207  0.88771045  0.58478448  1
  O  O208  1  0.45349015  0.35774471  0.08690212  1
  O  O209  1  0.43514502  0.37575505  0.58210107  1
  O  O210  1  0.44335993  0.87000188  0.08599149  1
  O  O211  1  0.44018817  0.84744801  0.58840003  1
  O  O212  1  0.76799648  0.34841533  0.07983104  1
  O  O213  1  0.78770140  0.35017273  0.57540960  1
  O  O214  1  0.76334218  0.86726803  0.07449700  1
  O  O215  1  0.76878454  0.87379979  0.58725754  1
  O  O216  1  0.29523718  0.39685454  0.07937191  1
  O  O217  1  0.27435452  0.38660988  0.58518980  1
  O  O218  1  0.28326078  0.88288783  0.08619084  1
  O  O219  1  0.27181541  0.87823120  0.58641891  1
  O  O220  1  0.61161578  0.38694945  0.08681487  1
  O  O221  1  0.59891183  0.40113818  0.57994990  1
  O  O222  1  0.60487778  0.88834641  0.08317166  1
  O  O223  1  0.60166451  0.88201145  0.58560240  1
  O  O224  1  0.95645550  0.38980314  0.08132069  1
  O  O225  1  0.95046931  0.37616408  0.57983632  1
  O  O226  1  0.94592261  0.89747236  0.06942588  1
  O  O227  1  0.93627982  0.88936777  0.58579847  1
  O  O228  1  0.09289629  0.13842960  0.07830523  1
  O  O229  1  0.11184977  0.12890048  0.58791915  1
  O  O230  1  0.10795152  0.64248378  0.08336826  1
  O  O231  1  0.12864541  0.63678287  0.57575822  1
  O  O232  1  0.45894396  0.13421484  0.07549722  1
  O  O233  1  0.43475663  0.14368352  0.57628571  1
  O  O234  1  0.43229444  0.62509712  0.08399339  1
  O  O235  1  0.44255824  0.64446997  0.58809391  1
  O  O236  1  0.77850748  0.15223108  0.09351726  1
  O  O237  1  0.79398457  0.14116353  0.58155178  1
  O  O238  1  0.79228385  0.64350191  0.07874281  1
  O  O239  1  0.75808730  0.63743504  0.57394699  1
  O  O240  1  0.06227765  0.13759399  0.43126821  1
  O  O241  1  0.06599848  0.11533760  0.91531645  1
  O  O242  1  0.05666240  0.61215679  0.41294582  1
  O  O243  1  0.06196625  0.62007631  0.91216888  1
  O  O244  1  0.39591984  0.12010352  0.41566185  1
  O  O245  1  0.39089750  0.12122076  0.91411190  1
  O  O246  1  0.41293064  0.61479322  0.42581799  1
  O  O247  1  0.39438164  0.62515550  0.91435830  1
  O  O248  1  0.71598085  0.11994909  0.42472372  1
  O  O249  1  0.71875996  0.12794267  0.92722711  1
  O  O250  1  0.73518129  0.63001747  0.41452165  1
  O  O251  1  0.72900880  0.63279059  0.91717004  1
  O  O252  1  0.23002771  0.36885995  0.41390952  1
  O  O253  1  0.22863712  0.37198655  0.91229760  1
  O  O254  1  0.23074259  0.87371718  0.41806492  1
  O  O255  1  0.22843533  0.87075241  0.91346291  1
  O  O256  1  0.56211899  0.36745951  0.41479828  1
  O  O257  1  0.55482529  0.37527388  0.91826474  1
  O  O258  1  0.56342510  0.87369356  0.41690125  1
  O  O259  1  0.56283346  0.87778294  0.91350846  1
  O  O260  1  0.89785981  0.38328822  0.41474366  1
  O  O261  1  0.90916322  0.35817597  0.92577987  1
  O  O262  1  0.89604136  0.85843674  0.41709234  1
  O  O263  1  0.89478564  0.86062097  0.91131935  1
  O  O264  1  0.06478553  0.37681650  0.41770605  1
  O  O265  1  0.06619242  0.38397348  0.91455083  1
  O  O266  1  0.06455170  0.86485058  0.41611872  1
  O  O267  1  0.06191849  0.88218563  0.91174500  1
  O  O268  1  0.39566412  0.37974392  0.41438306  1
  O  O269  1  0.39119695  0.38105653  0.91373170  1
  O  O270  1  0.39629412  0.88878674  0.41700761  1
  O  O271  1  0.39589866  0.87489126  0.91394619  1
  O  O272  1  0.72942975  0.37688547  0.41466800  1
  O  O273  1  0.71830111  0.37396337  0.92398506  1
  O  O274  1  0.73095321  0.86511971  0.41877732  1
  O  O275  1  0.73004380  0.86961431  0.91362524  1
  O  O276  1  0.23933176  0.13481108  0.42639512  1
  O  O277  1  0.22769952  0.13160966  0.91132613  1
  O  O278  1  0.22199191  0.62246380  0.42627629  1
  O  O279  1  0.22771818  0.62966204  0.91400966  1
  O  O280  1  0.55337870  0.13643346  0.41460814  1
  O  O281  1  0.55451616  0.12608630  0.91826604  1
  O  O282  1  0.57565791  0.61865470  0.42180831  1
  O  O283  1  0.56104546  0.62673659  0.91335481  1
  O  O284  1  0.89946429  0.13564661  0.42599467  1
  O  O285  1  0.90774376  0.14042040  0.92512420  1
  O  O286  1  0.89577077  0.62241484  0.41135440  1
  O  O287  1  0.89556733  0.64013833  0.91433655  1
  O  O288  1  0.16418714  -0.01687024  0.07681504  1
  O  O289  1  0.19575675  0.00367431  0.58698907  1
  O  O290  1  0.17131971  0.51341437  0.07250264  1
  O  O291  1  0.17334661  0.49794349  0.58586577  1
  O  O292  1  0.50974640  0.00010952  0.08707665  1
  O  O293  1  0.47870243  -0.01718199  0.57816106  1
  O  O294  1  0.49921577  0.49435493  0.08355056  1
  O  O295  1  0.49564235  0.50956895  0.58688024  1
  O  O296  1  0.82313991  0.01760635  0.08030055  1
  O  O297  1  0.84100161  0.00270593  0.58715207  1
  O  O298  1  0.82609753  0.50572855  0.08071375  1
  O  O299  1  0.84200725  0.48408575  0.57649367  1
  O  O300  1  -0.00538378  0.25139029  0.08742811  1
  O  O301  1  0.01901606  0.24505167  0.58690174  1
  O  O302  1  -0.01394266  0.73759166  0.07922011  1
  O  O303  1  0.01431272  0.76706251  0.57212280  1
  O  O304  1  0.33559811  0.25965084  0.07474557  1
  O  O305  1  0.33936939  0.25696460  0.58621901  1
  O  O306  1  0.35338255  0.75179928  0.08298064  1
  O  O307  1  0.32546600  0.74499406  0.58972272  1
  O  O308  1  0.65473959  0.24760532  0.09041706  1
  O  O309  1  0.64363490  0.24495051  0.56819578  1
  O  O310  1  0.66123957  0.75859264  0.07718343  1
  O  O311  1  0.67121175  0.75541248  0.58530343  1
  O  O312  1  0.14183130  -0.01017678  0.42727020  1
  O  O313  1  0.16051627  -0.00066640  0.91200677  1
  O  O314  1  0.15244496  0.49517416  0.41531737  1
  O  O315  1  0.15775746  0.50157103  0.91128450  1
  O  O316  1  0.49160124  0.00240046  0.41395679  1
  O  O317  1  0.47530089  -0.00072120  0.91444879  1
  O  O318  1  0.49407506  0.49388782  0.41987890  1
  O  O319  1  0.47741072  0.50247519  0.91465534  1
  O  O320  1  0.82370153  -0.01690874  0.42774896  1
  O  O321  1  0.82422566  -0.01187199  0.92386139  1
  O  O322  1  0.80839351  0.50173532  0.41469630  1
  O  O323  1  0.82215734  0.51374816  0.92076890  1
  O  O324  1  0.32711850  0.25209715  0.41628855  1
  O  O325  1  0.31933161  0.25117436  0.91180203  1
  O  O326  1  0.32963647  0.76205035  0.42839400  1
  O  O327  1  0.31547623  0.75026977  0.91331876  1
  O  O328  1  0.65228513  0.25096973  0.41381941  1
  O  O329  1  0.63174887  0.25063447  0.92271322  1
  O  O330  1  0.64039080  0.74762734  0.41526128  1
  O  O331  1  0.63730669  0.75183978  0.91438778  1
  O  O332  1  0.97721133  0.25832549  0.42028837  1
  O  O333  1  1.01427073  0.24948517  0.91261853  1
  O  O334  1  0.98667559  0.74139050  0.41367862  1
  O  O335  1  1.00052669  0.75108786  0.91256410  1
  O  O336  1  0.21244510  0.08242625  0.20001607  1
  O  O337  1  0.21438951  0.08425744  0.69624782  1
  O  O338  1  0.20005429  0.58257908  0.19154173  1
  O  O339  1  0.21117149  0.58286752  0.69349943  1
  O  O340  1  0.54706660  0.08619523  0.19409626  1
  O  O341  1  0.54015978  0.08160949  0.70054462  1
  O  O342  1  0.54366677  0.57759945  0.19060069  1
  O  O343  1  0.53859751  0.58910898  0.69637205  1
  O  O344  1  0.87877204  0.08314974  0.19741322  1
  O  O345  1  0.88170259  0.08267477  0.69569658  1
  O  O346  1  0.87648759  0.58310937  0.19327918  1
  O  O347  1  0.88300856  0.59413492  0.69473880  1
  O  O348  1  0.04411288  0.33316278  0.19450145  1
  O  O349  1  0.04797975  0.33025884  0.69485265  1
  O  O350  1  0.04537816  0.83375826  0.20229416  1
  O  O351  1  0.04378803  0.83769924  0.69114233  1
  O  O352  1  0.37751437  0.33218306  0.19230918  1
  O  O353  1  0.37586478  0.33711372  0.69456348  1
  O  O354  1  0.37877020  0.83318345  0.19639264  1
  O  O355  1  0.37249264  0.83186735  0.69620542  1
  O  O356  1  0.70837158  0.33252042  0.19556195  1
  O  O357  1  0.71306914  0.32412455  0.69790862  1
  O  O358  1  0.71054536  0.83746525  0.19136533  1
  O  O359  1  0.70718243  0.83540363  0.69556592  1
  O  O360  1  0.21184686  0.41684801  0.20061391  1
  O  O361  1  0.21143885  0.41672937  0.69517573  1
  O  O362  1  0.21141131  0.91373667  0.19436980  1
  O  O363  1  0.21171064  0.91818309  0.69488952  1
  O  O364  1  0.54524578  0.41567267  0.19572764  1
  O  O365  1  0.52982712  0.42127375  0.69277402  1
  O  O366  1  0.54542779  0.91446776  0.19658686  1
  O  O367  1  0.53774275  0.91269749  0.69354855  1
  O  O368  1  0.87684860  0.41506170  0.20285991  1
  O  O369  1  0.88533866  0.40317112  0.68800564  1
  O  O370  1  0.87790937  0.91669734  0.20312776  1
  O  O371  1  0.87575930  0.91756605  0.69597101  1
  O  O372  1  0.04069132  0.16797864  0.19548253  1
  O  O373  1  0.04832069  0.16538783  0.69723003  1
  O  O374  1  0.04349949  0.66566772  0.19439614  1
  O  O375  1  0.04697162  0.66918252  0.69700918  1
  O  O376  1  0.37829436  0.16585318  0.19952006  1
  O  O377  1  0.37719105  0.16936725  0.69346043  1
  O  O378  1  0.37999332  0.67450266  0.19523237  1
  O  O379  1  0.37524853  0.66743024  0.69772257  1
  O  O380  1  0.70435099  0.16774972  0.19934096  1
  O  O381  1  0.70974725  0.16762995  0.70078633  1
  O  O382  1  0.71099853  0.66301463  0.19834372  1
  O  O383  1  0.70700005  0.67218032  0.69285387  1
  O  O384  1  0.12031376  0.08333989  0.30087516  1
  O  O385  1  0.12637771  0.08252807  0.80407694  1
  O  O386  1  0.12505810  0.58118065  0.30661816  1
  O  O387  1  0.12732460  0.58498434  0.80295404  1
  O  O388  1  0.45458642  0.08451198  0.30466335  1
  O  O389  1  0.45292203  0.08267831  0.80586057  1
  O  O390  1  0.46949214  0.57709060  0.31145135  1
  O  O391  1  0.45226962  0.58600034  0.80534596  1
  O  O392  1  0.78738902  0.07910272  0.30153195  1
  O  O393  1  0.79371186  0.08153179  0.80280459  1
  O  O394  1  0.78903336  0.58088759  0.30326456  1
  O  O395  1  0.78497594  0.59611870  0.80756884  1
  O  O396  1  0.29215635  0.33082084  0.30435159  1
  O  O397  1  0.29045133  0.33423596  0.80343210  1
  O  O398  1  0.29180854  0.83598742  0.30881958  1
  O  O399  1  0.28883387  0.83401919  0.80439635  1
  O  O400  1  0.62295644  0.33493075  0.30474584  1
  O  O401  1  0.61526097  0.32929500  0.81073714  1
  O  O402  1  0.62211022  0.83505577  0.30674387  1
  O  O403  1  0.62013493  0.83295835  0.80438007  1
  O  O404  1  0.95866441  0.33532200  0.30762019  1
  O  O405  1  0.96495805  0.33282380  0.80691848  1
  O  O406  1  0.95669941  0.82912694  0.30601374  1
  O  O407  1  0.96020001  0.83372683  0.80263574  1
  O  O408  1  0.12142110  0.41325889  0.30544504  1
  O  O409  1  0.12671585  0.41705202  0.80287990  1
  O  O410  1  0.12394349  0.91664288  0.30891747  1
  O  O411  1  0.12559478  0.91665572  0.80339525  1
  O  O412  1  0.45836591  0.41438981  0.30560306  1
  O  O413  1  0.45405055  0.41963901  0.80567539  1
  O  O414  1  0.45674460  0.91465111  0.30569014  1
  O  O415  1  0.45296992  0.91536686  0.80469392  1
  O  O416  1  0.78751103  0.41807822  0.30531213  1
  O  O417  1  0.80201587  0.41079487  0.80475946  1
  O  O418  1  0.78962194  0.91158732  0.30978628  1
  O  O419  1  0.79031328  0.91414833  0.80660916  1
  O  O420  1  0.28967846  0.16815727  0.30805232  1
  O  O421  1  0.29135556  0.16780986  0.80322421  1
  O  O422  1  0.28464019  0.67333874  0.30443174  1
  O  O423  1  0.28818696  0.66746920  0.80436823  1
  O  O424  1  0.62161336  0.16608769  0.30735386  1
  O  O425  1  0.61852669  0.17076285  0.81163736  1
  O  O426  1  0.62287900  0.66275144  0.30590290  1
  O  O427  1  0.62063542  0.67071097  0.80535031  1
  O  O428  1  0.96392658  0.16953660  0.31319627  1
  O  O429  1  0.96342031  0.16483155  0.80776997  1
  O  O430  1  0.95681235  0.66352702  0.30197479  1
  O  O431  1  0.95896475  0.67022013  0.80409178  1
  F  F432  1  0.04353457  -0.00115953  0.20389676  1
  F  F433  1  0.04816761  0.00063808  0.70213814  1
  F  F434  1  0.04684996  0.49855030  0.20441418  1
  F  F435  1  0.04874404  0.49833735  0.69791128  1
  F  F436  1  0.37417997  -0.00162194  0.19988638  1
  F  F437  1  0.37666163  -0.00097246  0.70263351  1
  F  F438  1  0.38438181  0.49079588  0.19991868  1
  F  F439  1  0.37671793  0.50245850  0.70347776  1
  F  F440  1  0.71136121  -0.00337837  0.20265715  1
  F  F441  1  0.71386392  -0.00878312  0.70063702  1
  F  F442  1  0.71097508  0.49869117  0.20088117  1
  F  F443  1  0.69695963  0.51662852  0.68969017  1
  F  F444  1  0.21222854  0.24832924  0.20237171  1
  F  F445  1  0.21341300  0.25029941  0.70112090  1
  F  F446  1  0.21327621  0.75210322  0.20376930  1
  F  F447  1  0.21288678  0.75205182  0.70127279  1
  F  F448  1  0.54649102  0.24999690  0.20496104  1
  F  F449  1  0.54269713  0.25200873  0.70328765  1
  F  F450  1  0.54067259  0.75343888  0.19886117  1
  F  F451  1  0.54193564  0.75082489  0.70335651  1
  F  F452  1  0.88008723  0.25177336  0.20701272  1
  F  F453  1  0.88464952  0.24513953  0.70635636  1
  F  F454  1  0.87906369  0.74953218  0.20068459  1
  F  F455  1  0.87732463  0.75517890  0.70082721  1
  F  F456  1  0.28889122  -0.00209436  0.29981104  1
  F  F457  1  0.28861438  0.00044227  0.79842719  1
  F  F458  1  0.28599949  0.48949998  0.30600894  1
  F  F459  1  0.28702178  0.50089077  0.79838605  1
  F  F460  1  0.62579209  -0.00133348  0.30076385  1
  F  F461  1  0.61493225  -0.01179382  0.80423324  1
  F  F462  1  0.62346459  0.49824658  0.29708298  1
  F  F463  1  0.61368726  0.51387429  0.80291306  1
  F  F464  1  0.95674555  0.00041306  0.30292728  1
  F  F465  1  0.95797639  -0.00209873  0.79770047  1
  F  F466  1  0.95563371  0.50183466  0.29866608  1
  F  F467  1  0.97223044  0.50202049  0.79849993  1
  F  F468  1  0.12256144  0.25095195  0.29753100  1
  F  F469  1  0.12689832  0.24963054  0.79848194  1
  F  F470  1  0.12079417  0.74727705  0.29992865  1
  F  F471  1  0.12363362  0.75356292  0.79684756  1
  F  F472  1  0.45536451  0.25203653  0.29880558  1
  F  F473  1  0.45152929  0.25172258  0.79714629  1
  F  F474  1  0.45453687  0.75643263  0.30537736  1
  F  F475  1  0.45199406  0.75140009  0.80009087  1
  F  F476  1  0.78432181  0.25921422  0.30551849  1
  F  F477  1  0.79350966  0.24794886  0.80323448  1
  F  F478  1  0.79833776  0.74911973  0.30081470  1
  F  F479  1  0.78745170  0.75269497  0.79611323  1
