# generated using pymatgen
data_K24Na3Li5Mg64Fe17Si79(O5F)48
_symmetry_space_group_name_H-M   'P 1'
_cell_length_a   16.10037570
_cell_length_b   18.58435181
_cell_length_c   20.55338729
_cell_angle_alpha   89.99598691
_cell_angle_beta   100.01322750
_cell_angle_gamma   90.03810019
_symmetry_Int_Tables_number   1
_chemical_formula_structural   K24Na3Li5Mg64Fe17Si79(O5F)48
_chemical_formula_sum   'K24 Na3 Li5 Mg64 Fe17 Si79 O240 F48'
_cell_volume   6056.20414311
_cell_formula_units_Z   1
loop_
 _symmetry_equiv_pos_site_id
 _symmetry_equiv_pos_as_xyz
  1  'x, y, z'
loop_
 _atom_site_type_symbol
 _atom_site_label
 _atom_site_symmetry_multiplicity
 _atom_site_fract_x
 _atom_site_fract_y
 _atom_site_fract_z
 _atom_site_occupancy
  K  K0  1  0.00747214  -0.00176462  -0.00016088  1
  K  K1  1  0.00414660  0.00475392  0.49392560  1
  K  K2  1  -0.00609446  0.49077016  -0.00432808  1
  K  K3  1  -0.01410990  0.49767188  0.50387271  1
  K  K4  1  0.34069137  0.00066401  0.01503340  1
  K  K5  1  0.33023891  0.00808272  0.49178359  1
  K  K6  1  0.33574548  0.49497622  -0.00378525  1
  K  K7  1  0.34325231  0.50434423  0.50628857  1
  K  K8  1  0.66025634  0.00413860  0.00249259  1
  K  K9  1  0.66800519  -0.00133926  0.49915417  1
  K  K10  1  0.66363862  0.49923631  -0.00435107  1
  K  K11  1  0.66471955  0.48465691  0.50501043  1
  K  K12  1  0.15786531  0.24370460  0.00851353  1
  K  K13  1  0.16126260  0.24380386  0.49589928  1
  K  K14  1  0.16949088  0.75746092  -0.00285696  1
  K  K15  1  0.16658870  0.75658657  0.50155603  1
  K  K16  1  0.51898420  0.24915668  0.01059641  1
  K  K17  1  0.50709823  0.24432052  0.49569916  1
  K  K18  1  0.51004346  0.75482361  -0.00725856  1
  K  K19  1  0.50351286  0.75211549  0.50921308  1
  K  K20  1  0.83280136  0.24786852  0.00090288  1
  K  K21  1  0.82481093  0.25243421  0.49485092  1
  K  K22  1  0.81928370  0.74936322  -0.01082333  1
  K  K23  1  0.83545624  0.76034109  0.51054292  1
  Na  Na24  1  0.49750498  -0.00005768  0.24275403  1
  Na  Na25  1  0.33727251  0.92284145  0.24936004  1
  Na  Na26  1  0.50172931  0.16688573  0.24753493  1
  Li  Li27  1  0.66843290  0.24885253  0.74974970  1
  Li  Li28  1  -0.00224678  0.74912843  0.74828239  1
  Li  Li29  1  0.50542955  0.66580204  0.75055913  1
  Li  Li30  1  0.82818161  0.33180450  0.25241101  1
  Li  Li31  1  0.67507202  0.40786532  0.25675953  1
  Mg  Mg32  1  0.16632088  0.00203273  0.25188432  1
  Mg  Mg33  1  0.16558749  0.49793347  0.24970979  1
  Mg  Mg34  1  0.66636650  0.75187064  0.25065886  1
  Mg  Mg35  1  0.00252525  0.75121408  0.25325943  1
  Mg  Mg36  1  0.50062220  0.50215738  0.75181622  1
  Mg  Mg37  1  0.16716176  0.50335212  0.75106798  1
  Mg  Mg38  1  0.66905674  0.25287055  0.24928593  1
  Mg  Mg39  1  0.16440866  -0.00196054  0.74784671  1
  Mg  Mg40  1  0.83335655  -0.00088897  0.75109245  1
  Mg  Mg41  1  -0.00144750  0.25153345  0.24945055  1
  Mg  Mg42  1  0.83703575  0.00051511  0.24966548  1
  Mg  Mg43  1  0.82916733  0.49590938  0.25025258  1
  Mg  Mg44  1  0.50010361  0.00107375  0.75024262  1
  Mg  Mg45  1  0.66189006  0.74933695  0.75055154  1
  Mg  Mg46  1  0.33234620  0.24875031  0.74615687  1
  Mg  Mg47  1  -0.00161681  0.25122707  0.74866026  1
  Mg  Mg48  1  0.83224880  0.49870637  0.74910839  1
  Mg  Mg49  1  0.33589592  0.74843294  0.75203679  1
  Mg  Mg50  1  0.33524987  0.75202950  0.25176696  1
  Mg  Mg51  1  0.33461257  0.25156151  0.25038825  1
  Mg  Mg52  1  0.50482077  0.49764652  0.25397624  1
  Mg  Mg53  1  0.66957073  0.08468160  0.24819060  1
  Mg  Mg54  1  0.83205588  0.66675061  0.74858864  1
  Mg  Mg55  1  0.83454267  0.16900189  0.24763497  1
  Mg  Mg56  1  -0.00108230  0.58633271  0.74882881  1
  Mg  Mg57  1  0.16725261  0.66868880  0.75175129  1
  Mg  Mg58  1  0.66253073  0.58506084  0.75097480  1
  Mg  Mg59  1  0.33395168  0.91601911  0.75244767  1
  Mg  Mg60  1  0.33786895  0.58725725  0.75228810  1
  Mg  Mg61  1  0.00456492  0.91702629  0.25359795  1
  Mg  Mg62  1  0.33389787  0.41652709  0.74908675  1
  Mg  Mg63  1  0.33301988  0.08567429  0.24576815  1
  Mg  Mg64  1  0.16464108  0.16608125  0.25006370  1
  Mg  Mg65  1  -0.00279088  0.08343721  0.74727330  1
  Mg  Mg66  1  0.49929699  0.83490275  0.24765784  1
  Mg  Mg67  1  0.33448807  0.58321910  0.25157545  1
  Mg  Mg68  1  0.00106431  0.08708385  0.25111373  1
  Mg  Mg69  1  0.66485861  0.91858607  0.24679098  1
  Mg  Mg70  1  -0.00123494  0.58316716  0.25023629  1
  Mg  Mg71  1  0.66891138  0.91432661  0.75383436  1
  Mg  Mg72  1  0.16419699  0.83115793  0.75041009  1
  Mg  Mg73  1  0.16546346  0.33581465  0.74832443  1
  Mg  Mg74  1  0.50283485  0.83199325  0.75381284  1
  Mg  Mg75  1  0.83259305  0.33297562  0.74783395  1
  Mg  Mg76  1  0.83473192  0.83354714  0.25064204  1
  Mg  Mg77  1  0.50059069  0.33168867  0.74627536  1
  Mg  Mg78  1  -0.00341186  0.91200290  0.74735011  1
  Mg  Mg79  1  0.66558852  0.41329086  0.74747259  1
  Mg  Mg80  1  0.83162173  0.16647452  0.75093078  1
  Mg  Mg81  1  -0.00608899  0.41391446  0.24712421  1
  Mg  Mg82  1  -0.00276924  0.41665372  0.74750139  1
  Mg  Mg83  1  0.33502953  0.41631265  0.25062816  1
  Mg  Mg84  1  0.16449289  0.16545224  0.74680845  1
  Mg  Mg85  1  0.17164122  0.83696366  0.25561970  1
  Mg  Mg86  1  0.66696388  0.58145886  0.25318509  1
  Mg  Mg87  1  0.66893155  0.08517855  0.75155090  1
  Mg  Mg88  1  0.83283811  0.66553538  0.25219699  1
  Mg  Mg89  1  0.16280943  0.33368400  0.24848100  1
  Mg  Mg90  1  0.50085224  0.66513723  0.25078388  1
  Mg  Mg91  1  0.16805228  0.66598978  0.25272641  1
  Mg  Mg92  1  0.33185853  0.08509089  0.74637887  1
  Mg  Mg93  1  0.49998486  0.16742173  0.74640873  1
  Mg  Mg94  1  0.83449821  0.83260735  0.74891665  1
  Mg  Mg95  1  0.50569232  0.33377477  0.25127050  1
  Fe  Fe96  1  0.81196521  0.08453781  0.89068904  1
  Fe  Fe97  1  0.64139539  0.83826416  0.89442230  1
  Fe  Fe98  1  0.52629833  0.09046361  0.10372916  1
  Fe  Fe99  1  0.14698490  0.91634256  0.39614968  1
  Fe  Fe100  1  0.30950807  0.67058373  0.89184126  1
  Fe  Fe101  1  0.85863826  0.92058869  0.60790886  1
  Fe  Fe102  1  0.63852219  0.66254552  0.89250496  1
  Fe  Fe103  1  0.97984130  0.33380919  0.88771782  1
  Fe  Fe104  1  0.01955275  0.33261982  0.10734867  1
  Fe  Fe105  1  0.85495350  0.41531795  0.60667335  1
  Fe  Fe106  1  0.85459011  0.07360919  0.11088509  1
  Fe  Fe107  1  0.02251405  0.15871406  0.10736104  1
  Fe  Fe108  1  0.52616570  0.91388888  0.10386757  1
  Fe  Fe109  1  0.35553758  0.16509147  0.60627078  1
  Fe  Fe110  1  0.64347559  0.32663795  0.39301975  1
  Fe  Fe111  1  0.14443706  0.09132658  0.39351076  1
  Fe  Fe112  1  0.52365730  0.58360623  0.61010324  1
  Si  Si113  1  0.31599145  0.17424973  0.38723896  1
  Si  Si114  1  0.14203363  0.58057959  0.38698920  1
  Si  Si115  1  0.80565522  0.41233224  0.88519148  1
  Si  Si116  1  0.35705700  0.66229866  0.11573424  1
  Si  Si117  1  0.85815360  0.90556564  0.11552482  1
  Si  Si118  1  0.02698022  0.66587865  0.61522002  1
  Si  Si119  1  0.68875904  0.83313938  0.61329006  1
  Si  Si120  1  0.52402909  0.41654561  0.11679039  1
  Si  Si121  1  0.96810833  0.17258257  0.38970233  1
  Si  Si122  1  0.68688431  0.32843411  0.61307691  1
  Si  Si123  1  0.97166740  0.66136535  0.88350653  1
  Si  Si124  1  0.29935125  0.16524641  0.88306341  1
  Si  Si125  1  0.64210240  0.67039878  0.38731384  1
  Si  Si126  1  0.97323732  0.83008619  0.38983159  1
  Si  Si127  1  0.98125326  0.16790737  0.88475856  1
  Si  Si128  1  0.63683471  0.16687368  0.88445025  1
  Si  Si129  1  0.14098971  0.41448433  0.38635625  1
  Si  Si130  1  0.68885887  0.66490823  0.11842916  1
  Si  Si131  1  0.47460177  0.41858248  0.38863145  1
  Si  Si132  1  0.30380499  0.33046208  0.88326416  1
  Si  Si133  1  0.19429669  0.91494682  0.11622189  1
  Si  Si134  1  0.52118435  0.41256392  0.61183523  1
  Si  Si135  1  0.80877352  0.57832145  0.88660153  1
  Si  Si136  1  0.19032978  0.58245478  0.11621123  1
  Si  Si137  1  0.64411235  0.15651446  0.38745045  1
  Si  Si138  1  0.52343419  0.91543530  0.61621044  1
  Si  Si139  1  0.85798109  0.58784207  0.61180052  1
  Si  Si140  1  0.18632483  0.07702338  0.61190124  1
  Si  Si141  1  0.47283445  0.40768156  0.88443159  1
  Si  Si142  1  0.69837641  0.17602428  0.10942082  1
  Si  Si143  1  0.85522227  0.42678004  0.11135929  1
  Si  Si144  1  0.19150644  0.91347110  0.61671206  1
  Si  Si145  1  0.03342700  0.33513489  0.61014176  1
  Si  Si146  1  0.97512063  0.82630531  0.88352613  1
  Si  Si147  1  0.69123727  0.16507990  0.61580853  1
  Si  Si148  1  0.52915369  0.08064031  0.61180372  1
  Si  Si149  1  0.02701656  0.16904108  0.61282846  1
  Si  Si150  1  0.14562635  0.42376816  0.88552162  1
  Si  Si151  1  0.19786759  0.08198771  0.11092028  1
  Si  Si152  1  0.30944140  0.33913435  0.38457412  1
  Si  Si153  1  0.31415805  0.82503059  0.39221592  1
  Si  Si154  1  0.13980410  0.58794017  0.88652810  1
  Si  Si155  1  0.02915621  0.83125749  0.61239687  1
  Si  Si156  1  0.69679173  0.82792748  0.11518049  1
  Si  Si157  1  0.85786866  0.09135779  0.60996912  1
  Si  Si158  1  0.63953690  0.33242418  0.88191393  1
  Si  Si159  1  0.13804608  0.91241003  0.88362433  1
  Si  Si160  1  0.02680408  0.66889602  0.11639654  1
  Si  Si161  1  0.46863262  0.57242129  0.89264135  1
  Si  Si162  1  0.52438706  0.58085927  0.11658383  1
  Si  Si163  1  0.97579093  0.66389615  0.38742962  1
  Si  Si164  1  0.47052930  0.07895835  0.38377935  1
  Si  Si165  1  0.80713328  0.58559315  0.38797033  1
  Si  Si166  1  0.80849775  0.91446046  0.38398889  1
  Si  Si167  1  0.64145119  0.83600575  0.38713746  1
  Si  Si168  1  0.69422521  0.66761023  0.61256894  1
  Si  Si169  1  0.35790814  0.33832636  0.11491891  1
  Si  Si170  1  0.47863133  0.58322221  0.38647132  1
  Si  Si171  1  0.19105762  0.58608500  0.61405871  1
  Si  Si172  1  0.85737996  0.58996617  0.11587083  1
  Si  Si173  1  0.31082388  0.66119606  0.38766034  1
  Si  Si174  1  0.13776074  0.07738336  0.88238715  1
  Si  Si175  1  0.30915435  0.83986727  0.88698070  1
  Si  Si176  1  0.35464081  0.67108922  0.61262453  1
  Si  Si177  1  0.81763850  0.91591154  0.89018815  1
  Si  Si178  1  0.47571795  0.91267326  0.38776474  1
  Si  Si179  1  0.35446449  0.17498364  0.11159647  1
  Si  Si180  1  0.19372128  0.41812818  0.11321449  1
  Si  Si181  1  0.46871848  0.92588874  0.88702055  1
  Si  Si182  1  0.02905097  0.83443276  0.11622960  1
  Si  Si183  1  0.80841822  0.07974847  0.38480517  1
  Si  Si184  1  0.35438249  0.33418918  0.61162885  1
  Si  Si185  1  0.19625604  0.42163706  0.61400639  1
  Si  Si186  1  0.35725233  0.83635412  0.61700193  1
  Si  Si187  1  0.35724288  0.82500368  0.11150463  1
  Si  Si188  1  0.46984351  0.09087588  0.88299014  1
  Si  Si189  1  0.80966709  0.42120349  0.38867141  1
  Si  Si190  1  0.97229463  0.33816695  0.38584922  1
  Si  Si191  1  0.69367548  0.34144599  0.11765273  1
  O  O192  1  0.27708041  0.11921098  0.08105363  1
  O  O193  1  0.26355736  0.10257445  0.57740386  1
  O  O194  1  0.27342455  0.61223741  0.08809288  1
  O  O195  1  0.26666071  0.62485773  0.58262176  1
  O  O196  1  0.61583775  0.13448330  0.06998981  1
  O  O197  1  0.61597840  0.10751590  0.58577492  1
  O  O198  1  0.60715756  0.61359730  0.08934957  1
  O  O199  1  0.61966907  0.61599792  0.57583515  1
  O  O200  1  0.94810385  0.08741131  0.07337669  1
  O  O201  1  0.93604681  0.13322306  0.58228461  1
  O  O202  1  0.93834950  0.62637983  0.08761563  1
  O  O203  1  0.94185425  0.62038378  0.58431231  1
  O  O204  1  0.11969807  0.36682630  0.07816142  1
  O  O205  1  0.11675966  0.36981067  0.58323741  1
  O  O206  1  0.10546318  0.87172632  0.08424189  1
  O  O207  1  0.11714794  0.85673518  0.58643815  1
  O  O208  1  0.44032558  0.36802463  0.08449355  1
  O  O209  1  0.43970145  0.35953405  0.58448218  1
  O  O210  1  0.42986390  0.85361735  0.07340499  1
  O  O211  1  0.43730343  0.86926805  0.58662499  1
  O  O212  1  0.76487659  0.38581871  0.08424255  1
  O  O213  1  0.76152496  0.35603679  0.57520715  1
  O  O214  1  0.79070530  0.83861300  0.09415236  1
  O  O215  1  0.75947977  0.86750119  0.57508905  1
  O  O216  1  0.28280968  0.39697598  0.08766927  1
  O  O217  1  0.28065693  0.39568102  0.58603572  1
  O  O218  1  0.26820430  0.87045735  0.08682033  1
  O  O219  1  0.27657801  0.88882992  0.58846621  1
  O  O220  1  0.60382969  0.38413730  0.08669125  1
  O  O221  1  0.60150120  0.37587915  0.58452255  1
  O  O222  1  0.62822199  0.88202837  0.07657208  1
  O  O223  1  0.59909968  0.87615731  0.58570741  1
  O  O224  1  0.92992017  0.39713833  0.07570141  1
  O  O225  1  0.95143967  0.37884949  0.57488879  1
  O  O226  1  0.94347835  0.87887922  0.08654955  1
  O  O227  1  0.95052620  0.87803436  0.57480669  1
  O  O228  1  0.11638185  0.12342683  0.07200100  1
  O  O229  1  0.10060190  0.12423136  0.58419364  1
  O  O230  1  0.10611768  0.63127298  0.08785280  1
  O  O231  1  0.10425881  0.62948732  0.58280367  1
  O  O232  1  0.43430880  0.15531447  0.07760633  1
  O  O233  1  0.45190919  0.12985681  0.57553381  1
  O  O234  1  0.43902183  0.62829244  0.08816516  1
  O  O235  1  0.42743981  0.64103346  0.57467826  1
  O  O236  1  0.77978416  0.14796950  0.07980611  1
  O  O237  1  0.77479656  0.14270348  0.58411535  1
  O  O238  1  0.77294803  0.63868547  0.08924964  1
  O  O239  1  0.78279228  0.64668715  0.58590840  1
  O  O240  1  0.05384873  0.13596798  0.42770371  1
  O  O241  1  0.05524327  0.10574262  0.91002837  1
  O  O242  1  0.06390564  0.61959520  0.41612719  1
  O  O243  1  0.05074721  0.60743485  0.91283786  1
  O  O244  1  0.40192682  0.12705906  0.41754340  1
  O  O245  1  0.38687528  0.12236767  0.91120887  1
  O  O246  1  0.39538005  0.61301119  0.41509426  1
  O  O247  1  0.38781523  0.59927051  0.92469998  1
  O  O248  1  0.72745079  0.10519259  0.41753946  1
  O  O249  1  0.71134604  0.11455522  0.91947219  1
  O  O250  1  0.73103959  0.62851511  0.41656633  1
  O  O251  1  0.73466377  0.60405687  0.92444840  1
  O  O252  1  0.22732410  0.36925756  0.41534605  1
  O  O253  1  0.23143354  0.37524680  0.91316401  1
  O  O254  1  0.24185778  0.85691277  0.42920378  1
  O  O255  1  0.22214283  0.86596371  0.91395599  1
  O  O256  1  0.54985957  0.36898644  0.42539783  1
  O  O257  1  0.55776590  0.36123361  0.91377199  1
  O  O258  1  0.56823987  0.87555155  0.42113423  1
  O  O259  1  0.54385002  0.87620053  0.92343707  1
  O  O260  1  0.90526068  0.38820184  0.41727269  1
  O  O261  1  0.88038516  0.35944420  0.91893477  1
  O  O262  1  0.88723182  0.86099346  0.41418423  1
  O  O263  1  0.89542777  0.85608529  0.91526562  1
  O  O264  1  0.06561440  0.37494559  0.41715596  1
  O  O265  1  0.06795407  0.39931557  0.91988691  1
  O  O266  1  0.05335215  0.87309995  0.42770827  1
  O  O267  1  0.06022567  0.87485785  0.91401944  1
  O  O268  1  0.38493866  0.39640115  0.41330474  1
  O  O269  1  0.39502247  0.36734769  0.91315405  1
  O  O270  1  0.40477146  0.86643271  0.42000716  1
  O  O271  1  0.37803826  0.90466204  0.90996141  1
  O  O272  1  0.74274848  0.37996943  0.42548697  1
  O  O273  1  0.71834637  0.38631521  0.91201718  1
  O  O274  1  0.72850858  0.88121640  0.41486251  1
  O  O275  1  0.73901604  0.89327940  0.92546037  1
  O  O276  1  0.24090205  0.14889462  0.42465145  1
  O  O277  1  0.22229028  0.12515064  0.91211233  1
  O  O278  1  0.23043300  0.62376573  0.41596287  1
  O  O279  1  0.20802033  0.64568818  0.92171913  1
  O  O280  1  0.56466760  0.11282875  0.41214283  1
  O  O281  1  0.54812805  0.14451393  0.91161986  1
  O  O282  1  0.56190496  0.63300200  0.41512654  1
  O  O283  1  0.55177574  0.61546691  0.92770707  1
  O  O284  1  0.88854010  0.13122860  0.41661190  1
  O  O285  1  0.89887733  0.15152233  0.91723453  1
  O  O286  1  0.89796656  0.62582929  0.41681689  1
  O  O287  1  0.89248830  0.62939213  0.91553804  1
  O  O288  1  0.19200142  -0.00378574  0.08464132  1
  O  O289  1  0.16117918  -0.00660106  0.58924321  1
  O  O290  1  0.17187311  0.50177316  0.08640519  1
  O  O291  1  0.17739129  0.50349715  0.58427300  1
  O  O292  1  0.50052756  0.00157950  0.06336780  1
  O  O293  1  0.51268927  -0.00325527  0.58459912  1
  O  O294  1  0.50730905  0.49949078  0.08608663  1
  O  O295  1  0.50067592  0.48925249  0.57554336  1
  O  O296  1  0.81926934  -0.02132978  0.08207133  1
  O  O297  1  0.84247958  0.01463660  0.57264433  1
  O  O298  1  0.83843749  0.51113570  0.08283732  1
  O  O299  1  0.83597276  0.51140280  0.57509641  1
  O  O300  1  -0.00742386  0.24648773  0.06607412  1
  O  O301  1  0.02932093  0.25093210  0.58362294  1
  O  O302  1  0.01926975  0.75096718  0.08693946  1
  O  O303  1  0.01489666  0.74742430  0.58464320  1
  O  O304  1  0.32719837  0.25927454  0.08475974  1
  O  O305  1  0.32156762  0.25895102  0.57726811  1
  O  O306  1  0.33330474  0.74127207  0.08397224  1
  O  O307  1  0.33434696  0.75569806  0.58646934  1
  O  O308  1  0.68435287  0.26160630  0.08346676  1
  O  O309  1  0.66165572  0.24522104  0.58763403  1
  O  O310  1  0.66603332  0.74543636  0.09062069  1
  O  O311  1  0.67135440  0.75028179  0.58516112  1
  O  O312  1  0.16471272  0.00402160  0.43758543  1
  O  O313  1  0.15353705  -0.00491532  0.91180779  1
  O  O314  1  0.15177520  0.49805933  0.41620375  1
  O  O315  1  0.17129338  0.50635979  0.91203206  1
  O  O316  1  0.47370866  -0.00404433  0.41621026  1
  O  O317  1  0.48791334  0.00977072  0.91222049  1
  O  O318  1  0.49513627  0.50230469  0.41603291  1
  O  O319  1  0.48380426  0.48663470  0.91890279  1
  O  O320  1  0.82973600  -0.00379204  0.41257940  1
  O  O321  1  0.85525951  -0.00669699  0.91779343  1
  O  O322  1  0.81570767  0.50532316  0.41930627  1
  O  O323  1  0.83182085  0.49473548  0.91212651  1
  O  O324  1  0.33805300  0.25913466  0.41273721  1
  O  O325  1  0.30492152  0.24787937  0.91195621  1
  O  O326  1  0.32986409  0.74037735  0.42035530  1
  O  O327  1  0.33987230  0.76505899  0.92301049  1
  O  O328  1  0.65553458  0.23189993  0.42823910  1
  O  O329  1  0.65805292  0.25069622  0.91116834  1
  O  O330  1  0.65201012  0.75278721  0.41737815  1
  O  O331  1  0.65812256  0.74997209  0.93614114  1
  O  O332  1  0.96798205  0.25712861  0.41736076  1
  O  O333  1  1.02511139  0.24317140  0.91194324  1
  O  O334  1  0.98436034  0.74533439  0.41712727  1
  O  O335  1  0.99422676  0.74358524  0.91294345  1
  O  O336  1  0.20809949  0.08539354  0.19134673  1
  O  O337  1  0.20660919  0.08196882  0.69298376  1
  O  O338  1  0.20876447  0.58385272  0.19698069  1
  O  O339  1  0.20890260  0.58397032  0.69413331  1
  O  O340  1  0.55907938  0.08310879  0.19080314  1
  O  O341  1  0.54264377  0.08206708  0.69270199  1
  O  O342  1  0.54253358  0.58275121  0.19706618  1
  O  O343  1  0.54307200  0.58020070  0.70028034  1
  O  O344  1  0.88057998  0.08219040  0.20304487  1
  O  O345  1  0.87826843  0.08517876  0.69060457  1
  O  O346  1  0.87759334  0.58775375  0.19641082  1
  O  O347  1  0.87619206  0.58385869  0.69265233  1
  O  O348  1  0.04401027  0.33617884  0.19985780  1
  O  O349  1  0.04774637  0.33578673  0.69095053  1
  O  O350  1  0.04556409  0.83041540  0.19666891  1
  O  O351  1  0.04552332  0.83555427  0.69229755  1
  O  O352  1  0.37676053  0.33789385  0.19527209  1
  O  O353  1  0.37237141  0.33374495  0.69286541  1
  O  O354  1  0.37985364  0.82228812  0.19154291  1
  O  O355  1  0.37623191  0.83549142  0.69723475  1
  O  O356  1  0.71223370  0.33754002  0.19622958  1
  O  O357  1  0.71061405  0.33493064  0.69275492  1
  O  O358  1  0.71275245  0.83014831  0.19664858  1
  O  O359  1  0.71042768  0.83457530  0.69375825  1
  O  O360  1  0.21050120  0.41909117  0.19454658  1
  O  O361  1  0.21064673  0.41937091  0.69451769  1
  O  O362  1  0.20272524  0.91473071  0.19512165  1
  O  O363  1  0.21022359  0.91467625  0.69725020  1
  O  O364  1  0.53627340  0.42000079  0.19584951  1
  O  O365  1  0.53939103  0.41553850  0.69285212  1
  O  O366  1  0.55036020  0.90460789  0.19455500  1
  O  O367  1  0.54056462  0.91785772  0.69618555  1
  O  O368  1  0.87793501  0.42731518  0.19134307  1
  O  O369  1  0.87625251  0.41845485  0.69769438  1
  O  O370  1  0.88177636  0.91089539  0.19684089  1
  O  O371  1  0.87690855  0.91708061  0.69936680  1
  O  O372  1  0.04402926  0.16945917  0.19988462  1
  O  O373  1  0.04375692  0.16736025  0.69348187  1
  O  O374  1  0.04475740  0.66677873  0.19714872  1
  O  O375  1  0.04718632  0.66352322  0.69469122  1
  O  O376  1  0.36504927  0.17398701  0.19116702  1
  O  O377  1  0.37532825  0.16649091  0.69810328  1
  O  O378  1  0.37568485  0.66319998  0.19648137  1
  O  O379  1  0.37208843  0.66753478  0.69241934  1
  O  O380  1  0.71267069  0.17069661  0.19074116  1
  O  O381  1  0.71081329  0.16315727  0.69515053  1
  O  O382  1  0.70927971  0.66513733  0.19902333  1
  O  O383  1  0.71030250  0.66573500  0.69326456  1
  O  O384  1  0.12178886  0.08454729  0.30172540  1
  O  O385  1  0.12298386  0.08076339  0.80176177  1
  O  O386  1  0.12370650  0.58278725  0.30648418  1
  O  O387  1  0.12301899  0.58593278  0.80538101  1
  O  O388  1  0.44497500  0.08051891  0.30593276  1
  O  O389  1  0.45325186  0.08607070  0.80252949  1
  O  O390  1  0.45783747  0.58443021  0.30606951  1
  O  O391  1  0.45157183  0.57367027  0.81203455  1
  O  O392  1  0.79252087  0.08189113  0.30500211  1
  O  O393  1  0.79058142  0.08236457  0.79856312  1
  O  O394  1  0.79080187  0.58621087  0.30765614  1
  O  O395  1  0.79058536  0.58182401  0.80552277  1
  O  O396  1  0.28747818  0.33899805  0.30417703  1
  O  O397  1  0.28769099  0.33227347  0.80262857  1
  O  O398  1  0.29010780  0.82313906  0.31215428  1
  O  O399  1  0.28870834  0.83513428  0.80597255  1
  O  O400  1  0.62246912  0.33126191  0.30335200  1
  O  O401  1  0.61897141  0.33511334  0.80232605  1
  O  O402  1  0.62532369  0.83133290  0.30730206  1
  O  O403  1  0.62277797  0.83449364  0.80173829  1
  O  O404  1  0.95920707  0.33721292  0.30665519  1
  O  O405  1  0.95765168  0.33373204  0.79604400  1
  O  O406  1  0.95866652  0.83025919  0.30868409  1
  O  O407  1  0.95737802  0.83142284  0.80418216  1
  O  O408  1  0.12386636  0.41924637  0.30626054  1
  O  O409  1  0.12608942  0.41907557  0.80429261  1
  O  O410  1  0.12390444  0.91536208  0.30371789  1
  O  O411  1  0.12081880  0.91482422  0.80330673  1
  O  O412  1  0.45676368  0.41968532  0.30775371  1
  O  O413  1  0.45440919  0.41182257  0.80400835  1
  O  O414  1  0.46350126  0.90591498  0.30980432  1
  O  O415  1  0.45514623  0.92094487  0.80582865  1
  O  O416  1  0.79246366  0.42306691  0.30954060  1
  O  O417  1  0.78767205  0.41441720  0.80442484  1
  O  O418  1  0.79184008  0.91349287  0.30387494  1
  O  O419  1  0.79329436  0.91418829  0.80848903  1
  O  O420  1  0.29184884  0.17182778  0.30669568  1
  O  O421  1  0.28367659  0.16627894  0.80259305  1
  O  O422  1  0.29065222  0.66277750  0.30708616  1
  O  O423  1  0.28849870  0.66731379  0.79997928  1
  O  O424  1  0.63628909  0.16518863  0.30857080  1
  O  O425  1  0.61817294  0.16341157  0.80419193  1
  O  O426  1  0.62431618  0.66825215  0.30695662  1
  O  O427  1  0.62579262  0.66729345  0.80179543  1
  O  O428  1  0.95597047  0.17061866  0.30956831  1
  O  O429  1  0.96011567  0.16558946  0.80284778  1
  O  O430  1  0.95873735  0.66447220  0.30695648  1
  O  O431  1  0.95243118  0.66221622  0.80387307  1
  F  F432  1  0.04364320  -0.00152455  0.20277806  1
  F  F433  1  0.04455955  -0.00083340  0.69975574  1
  F  F434  1  0.04619911  0.50327638  0.20239936  1
  F  F435  1  0.04693846  0.50155352  0.70152660  1
  F  F436  1  0.36427974  0.01203963  0.18580178  1
  F  F437  1  0.37706000  -0.00061481  0.70167608  1
  F  F438  1  0.37949915  0.50190969  0.20459707  1
  F  F439  1  0.37717173  0.50007275  0.70254960  1
  F  F440  1  0.71869939  -0.00222536  0.20110529  1
  F  F441  1  0.71022331  -0.00361874  0.70254814  1
  F  F442  1  0.71324690  0.50854675  0.20139457  1
  F  F443  1  0.71068054  0.49993555  0.70287863  1
  F  F444  1  0.21164008  0.25297505  0.20387918  1
  F  F445  1  0.20980826  0.25065162  0.69948577  1
  F  F446  1  0.21216617  0.74793483  0.20529691  1
  F  F447  1  0.21206563  0.75205130  0.70054041  1
  F  F448  1  0.55008654  0.26084128  0.19599426  1
  F  F449  1  0.53752144  0.24950571  0.69799216  1
  F  F450  1  0.54648310  0.74502493  0.20341030  1
  F  F451  1  0.54396395  0.75671917  0.69713337  1
  F  F452  1  0.88133297  0.25065466  0.20229157  1
  F  F453  1  0.87905100  0.24724649  0.69807354  1
  F  F454  1  0.88207570  0.74716593  0.20600486  1
  F  F455  1  0.87421735  0.74906524  0.69955157  1
  F  F456  1  0.28221989  0.01133364  0.30063156  1
  F  F457  1  0.28542174  0.00209071  0.79610532  1
  F  F458  1  0.28692505  0.50126681  0.29880063  1
  F  F459  1  0.28727616  0.49888982  0.79716410  1
  F  F460  1  0.63863864  -0.00106596  0.30183381  1
  F  F461  1  0.62019998  0.00056752  0.79738322  1
  F  F462  1  0.61926672  0.50902598  0.30531622  1
  F  F463  1  0.62175566  0.49505239  0.79890467  1
  F  F464  1  0.95650921  -0.00404619  0.30222619  1
  F  F465  1  0.95847506  0.00032602  0.79616829  1
  F  F466  1  0.95515620  0.50241302  0.29833582  1
  F  F467  1  0.95603661  0.50207367  0.79662114  1
  F  F468  1  0.12390659  0.25297448  0.30180181  1
  F  F469  1  0.12269064  0.25050564  0.79429155  1
  F  F470  1  0.12209925  0.74663643  0.30155602  1
  F  F471  1  0.12415076  0.75071678  0.79889452  1
  F  F472  1  0.44960719  0.26201728  0.30101198  1
  F  F473  1  0.45173447  0.25180663  0.79733768  1
  F  F474  1  0.45598843  0.74559608  0.29919348  1
  F  F475  1  0.45244115  0.75417758  0.80003630  1
  F  F476  1  0.78852851  0.24692678  0.29909486  1
  F  F477  1  0.79234557  0.25076935  0.79634969  1
  F  F478  1  0.78942541  0.74882798  0.30014965  1
  F  F479  1  0.78755336  0.74968399  0.79655228  1
