# generated using pymatgen
data_K24Na3Li5Mg64Fe17Si79(O5F)48
_symmetry_space_group_name_H-M   'P 1'
_cell_length_a   16.09551773
_cell_length_b   18.61204425
_cell_length_c   20.56571656
_cell_angle_alpha   90.00391400
_cell_angle_beta   100.03770396
_cell_angle_gamma   90.00188434
_symmetry_Int_Tables_number   1
_chemical_formula_structural   K24Na3Li5Mg64Fe17Si79(O5F)48
_chemical_formula_sum   'K24 Na3 Li5 Mg64 Fe17 Si79 O240 F48'
_cell_volume   6066.57877141
_cell_formula_units_Z   1
loop_
 _symmetry_equiv_pos_site_id
 _symmetry_equiv_pos_as_xyz
  1  'x, y, z'
loop_
 _atom_site_type_symbol
 _atom_site_label
 _atom_site_symmetry_multiplicity
 _atom_site_fract_x
 _atom_site_fract_y
 _atom_site_fract_z
 _atom_site_occupancy
  K  K0  1  0.00264191  0.00281102  0.01150248  1
  K  K1  1  0.00611283  0.01154043  0.49369742  1
  K  K2  1  0.00164425  0.49980757  0.00025141  1
  K  K3  1  0.00281065  0.50615940  0.49843690  1
  K  K4  1  0.33033223  0.00646701  0.00213886  1
  K  K5  1  0.32412759  -0.00459156  0.49256414  1
  K  K6  1  0.32902761  0.49455653  -0.00152888  1
  K  K7  1  0.33342306  0.49831782  0.50015318  1
  K  K8  1  0.66887285  -0.00242288  0.00621084  1
  K  K9  1  0.66474312  0.00634973  0.49062668  1
  K  K10  1  0.66713037  0.50023592  -0.00347234  1
  K  K11  1  0.67384998  0.49853440  0.49689381  1
  K  K12  1  0.16009787  0.25500157  0.00332880  1
  K  K13  1  0.17650811  0.25799306  0.50361875  1
  K  K14  1  0.16892695  0.74004217  0.00792724  1
  K  K15  1  0.17023821  0.73643860  0.48856168  1
  K  K16  1  0.48890033  0.25681692  -0.00236797  1
  K  K17  1  0.50136061  0.24916070  0.50251494  1
  K  K18  1  0.49696688  0.74629974  0.00142279  1
  K  K19  1  0.48247373  0.74298041  0.49314277  1
  K  K20  1  0.82768460  0.25559796  -0.00163456  1
  K  K21  1  0.82811675  0.26049436  0.50097660  1
  K  K22  1  0.84509379  0.74447758  0.01420458  1
  K  K23  1  0.83046498  0.74352209  0.49672595  1
  Na  Na24  1  0.00107293  0.74717271  0.24827248  1
  Na  Na25  1  0.66771058  0.08016596  0.24995647  1
  Na  Na26  1  0.16682299  0.16958528  0.24128848  1
  Li  Li27  1  0.50171805  0.49382218  0.75170591  1
  Li  Li28  1  0.17319289  0.50162883  0.25316183  1
  Li  Li29  1  0.32926543  0.57779372  0.25559279  1
  Li  Li30  1  0.83123081  0.34163339  0.75076896  1
  Li  Li31  1  0.00087491  0.57856788  0.75265189  1
  Mg  Mg32  1  0.50122915  -0.00037042  0.25216624  1
  Mg  Mg33  1  0.16471668  0.49892477  0.75219185  1
  Mg  Mg34  1  0.33257554  0.75005162  0.75428161  1
  Mg  Mg35  1  0.66495824  0.24963885  0.25167969  1
  Mg  Mg36  1  0.66621675  0.74837055  0.75178354  1
  Mg  Mg37  1  -0.00024509  0.25132696  0.24563980  1
  Mg  Mg38  1  0.83238531  0.00083265  0.74934532  1
  Mg  Mg39  1  0.66899262  0.25418248  0.75335876  1
  Mg  Mg40  1  0.33218703  0.74545754  0.25255343  1
  Mg  Mg41  1  0.83478109  -0.00192626  0.24281761  1
  Mg  Mg42  1  0.66774973  0.74919282  0.24939518  1
  Mg  Mg43  1  0.33422687  0.25304691  0.75006451  1
  Mg  Mg44  1  0.49911111  -0.00088624  0.75359884  1
  Mg  Mg45  1  0.49626843  0.50007556  0.25338973  1
  Mg  Mg46  1  0.83282632  0.50265774  0.25155731  1
  Mg  Mg47  1  0.83592355  0.49877933  0.75129891  1
  Mg  Mg48  1  -0.00298380  0.25374530  0.74952197  1
  Mg  Mg49  1  0.16596614  0.00131595  0.74675322  1
  Mg  Mg50  1  0.16789507  -0.00003493  0.24537963  1
  Mg  Mg51  1  0.33179833  0.25238973  0.24738820  1
  Mg  Mg52  1  -0.00086270  0.74790023  0.75136247  1
  Mg  Mg53  1  0.50102076  0.33571180  0.25366703  1
  Mg  Mg54  1  0.33553575  0.41743817  0.74913721  1
  Mg  Mg55  1  -0.00044819  0.41835925  0.75300936  1
  Mg  Mg56  1  0.33186440  0.08390902  0.24626615  1
  Mg  Mg57  1  0.33370166  0.91646166  0.75286663  1
  Mg  Mg58  1  0.16543034  0.83413503  0.75090314  1
  Mg  Mg59  1  0.83635206  0.83276547  0.24664462  1
  Mg  Mg60  1  0.16608599  0.16686606  0.74628409  1
  Mg  Mg61  1  0.66636174  0.41562971  0.25445519  1
  Mg  Mg62  1  0.16722794  0.33749890  0.75174681  1
  Mg  Mg63  1  0.66748380  0.41648742  0.75235509  1
  Mg  Mg64  1  0.49997439  0.83366516  0.25197160  1
  Mg  Mg65  1  0.49922386  0.83464444  0.75471555  1
  Mg  Mg66  1  0.83565235  0.66416514  0.75189875  1
  Mg  Mg67  1  0.16673630  0.33634560  0.24852541  1
  Mg  Mg68  1  0.49986630  0.66384909  0.75262724  1
  Mg  Mg69  1  -0.00070014  0.08559332  0.74668245  1
  Mg  Mg70  1  0.49909457  0.16670138  0.74872410  1
  Mg  Mg71  1  0.83220335  0.16550760  0.24566303  1
  Mg  Mg72  1  0.00096849  0.91455131  0.24595601  1
  Mg  Mg73  1  0.00132440  0.58186521  0.25006133  1
  Mg  Mg74  1  0.66564800  0.91492578  0.75229301  1
  Mg  Mg75  1  0.16941106  0.66002299  0.25231061  1
  Mg  Mg76  1  0.33474499  0.58228741  0.75290304  1
  Mg  Mg77  1  0.00095071  0.08501886  0.24168134  1
  Mg  Mg78  1  0.16371349  0.66417054  0.75297199  1
  Mg  Mg79  1  0.33235992  0.91401215  0.24913822  1
  Mg  Mg80  1  -0.00045345  0.41793661  0.24651184  1
  Mg  Mg81  1  0.83158894  0.16916487  0.74870858  1
  Mg  Mg82  1  0.49947571  0.33884678  0.75066737  1
  Mg  Mg83  1  0.49891246  0.66493036  0.25325832  1
  Mg  Mg84  1  0.66811723  0.91600608  0.24809947  1
  Mg  Mg85  1  0.83264169  0.83366238  0.75049397  1
  Mg  Mg86  1  0.16842236  0.83060348  0.24798272  1
  Mg  Mg87  1  0.83582271  0.66409728  0.24953982  1
  Mg  Mg88  1  -0.00117986  0.91618334  0.74945925  1
  Mg  Mg89  1  0.66756508  0.58422264  0.25168477  1
  Mg  Mg90  1  0.83124906  0.33473515  0.24986281  1
  Mg  Mg91  1  0.33136198  0.08445180  0.74733079  1
  Mg  Mg92  1  0.50022003  0.16650852  0.24948520  1
  Mg  Mg93  1  0.66649318  0.08450125  0.74961593  1
  Mg  Mg94  1  0.33315625  0.42104137  0.25287765  1
  Mg  Mg95  1  0.66544388  0.58127385  0.75125763  1
  Fe  Fe96  1  0.18732285  0.08260411  0.60714223  1
  Fe  Fe97  1  0.47101133  0.41781500  0.89285580  1
  Fe  Fe98  1  0.98338963  0.67042927  0.39340600  1
  Fe  Fe99  1  0.47142220  0.41796802  0.39367342  1
  Fe  Fe100  1  0.36353528  0.32876797  0.60767351  1
  Fe  Fe101  1  0.18846282  0.08195074  0.10413208  1
  Fe  Fe102  1  0.13430260  0.41631727  0.89345093  1
  Fe  Fe103  1  0.81165289  0.58726796  0.39213475  1
  Fe  Fe104  1  0.47530890  0.91668337  0.89404177  1
  Fe  Fe105  1  0.85560808  0.58330487  0.10739808  1
  Fe  Fe106  1  0.80623280  0.41691396  0.89078715  1
  Fe  Fe107  1  0.19397530  0.41846064  0.60990132  1
  Fe  Fe108  1  0.64283458  0.32818655  0.39257701  1
  Fe  Fe109  1  0.86061865  0.91523398  0.10455548  1
  Fe  Fe110  1  0.70002755  0.33365255  0.61251738  1
  Fe  Fe111  1  0.30432498  0.82965892  0.38938285  1
  Fe  Fe112  1  0.53272292  0.42264170  0.61086584  1
  Si  Si113  1  0.85856725  0.91694818  0.61445621  1
  Si  Si114  1  0.68512485  0.67004327  0.11225027  1
  Si  Si115  1  0.64377937  0.16771242  0.88468297  1
  Si  Si116  1  0.47870891  0.08652813  0.88762615  1
  Si  Si117  1  0.47622792  0.59055425  0.89018435  1
  Si  Si118  1  0.14441831  0.57470124  0.38777431  1
  Si  Si119  1  0.64387938  0.83796613  0.38458299  1
  Si  Si120  1  0.30883959  0.16459651  0.88415608  1
  Si  Si121  1  0.86882932  0.41940683  0.61492438  1
  Si  Si122  1  0.64584965  0.66721649  0.88686821  1
  Si  Si123  1  0.18553978  0.91217943  0.61322773  1
  Si  Si124  1  0.36058148  0.33600743  0.11519458  1
  Si  Si125  1  0.19660382  0.91132759  0.10850380  1
  Si  Si126  1  0.81244878  0.41668137  0.38809290  1
  Si  Si127  1  0.81480393  0.07936005  0.38074388  1
  Si  Si128  1  0.30102993  0.83579801  0.88932404  1
  Si  Si129  1  0.81108336  0.91588479  0.38377789  1
  Si  Si130  1  0.14182742  0.58772782  0.88988067  1
  Si  Si131  1  0.97236565  0.83694282  0.88575719  1
  Si  Si132  1  0.52435885  0.91837009  0.11493009  1
  Si  Si133  1  0.85882706  0.58285110  0.61764136  1
  Si  Si134  1  0.35985957  0.17033367  0.10936635  1
  Si  Si135  1  0.97587433  0.16224524  0.88397255  1
  Si  Si136  1  0.14313545  0.08545553  0.37927110  1
  Si  Si137  1  0.63770732  0.33117250  0.89207848  1
  Si  Si138  1  0.69235859  0.83357665  0.61534975  1
  Si  Si139  1  0.97145136  0.32979413  0.38199890  1
  Si  Si140  1  0.47600555  0.91749295  0.38791940  1
  Si  Si141  1  0.36122534  0.15729428  0.61006727  1
  Si  Si142  1  0.36414384  0.83015476  0.11425706  1
  Si  Si143  1  0.31250109  0.16813482  0.38231621  1
  Si  Si144  1  0.96956774  0.32676239  0.88895783  1
  Si  Si145  1  0.02642405  0.33382794  0.61438252  1
  Si  Si146  1  0.97447854  0.67326641  0.88670652  1
  Si  Si147  1  0.03366667  0.65988745  0.11205376  1
  Si  Si148  1  0.68615723  0.16868580  0.11385593  1
  Si  Si149  1  0.02183320  0.82987723  0.61564607  1
  Si  Si150  1  0.36242527  0.66600380  0.11695352  1
  Si  Si151  1  0.68690003  0.83339271  0.11212906  1
  Si  Si152  1  0.13761853  0.92274199  0.38427456  1
  Si  Si153  1  0.47642436  0.08407138  0.38529598  1
  Si  Si154  1  0.13457164  0.41027574  0.38160616  1
  Si  Si155  1  0.80768176  0.08271457  0.88406160  1
  Si  Si156  1  0.18886835  0.58933636  0.61559987  1
  Si  Si157  1  0.97671233  0.16545762  0.38087797  1
  Si  Si158  1  0.85181735  0.08974764  0.10580256  1
  Si  Si159  1  0.69374739  0.66789146  0.61546890  1
  Si  Si160  1  0.13649185  0.91750146  0.88415339  1
  Si  Si161  1  0.64528270  0.83054947  0.88923354  1
  Si  Si162  1  0.80672387  0.91764571  0.88525645  1
  Si  Si163  1  0.01561242  0.17285747  0.10617481  1
  Si  Si164  1  0.47989609  0.58653327  0.38770838  1
  Si  Si165  1  0.68830223  0.33121119  0.11462973  1
  Si  Si166  1  0.64696223  0.16180784  0.38624249  1
  Si  Si167  1  0.81278189  0.58656276  0.88874714  1
  Si  Si168  1  0.35522102  0.83489320  0.61742379  1
  Si  Si169  1  0.30196903  0.32890852  0.89184360  1
  Si  Si170  1  0.85284652  0.41307246  0.11189885  1
  Si  Si171  1  0.52335455  0.59240225  0.61450591  1
  Si  Si172  1  0.52119239  0.08344020  0.11488069  1
  Si  Si173  1  0.30920294  0.65899467  0.38800300  1
  Si  Si174  1  0.02472512  0.33845396  0.11166076  1
  Si  Si175  1  0.19928212  0.58233132  0.11727048  1
  Si  Si176  1  0.85826380  0.08215667  0.61330871  1
  Si  Si177  1  0.52641204  0.41863709  0.11605233  1
  Si  Si178  1  0.97728247  0.84128652  0.38565523  1
  Si  Si179  1  0.30096167  0.33270182  0.38572702  1
  Si  Si180  1  0.30761190  0.67011859  0.88859614  1
  Si  Si181  1  0.19525788  0.41776525  0.11621252  1
  Si  Si182  1  0.52875586  0.07768293  0.61570368  1
  Si  Si183  1  0.63863581  0.67230028  0.38786565  1
  Si  Si184  1  0.14147124  0.08165101  0.88293089  1
  Si  Si185  1  0.69074773  0.16148254  0.61238483  1
  Si  Si186  1  0.01874377  0.17163615  0.61103665  1
  Si  Si187  1  0.52433925  0.91300661  0.61643833  1
  Si  Si188  1  0.35659618  0.67116024  0.61791422  1
  Si  Si189  1  0.03444052  0.82924246  0.11033021  1
  Si  Si190  1  0.02313171  0.66806855  0.61850349  1
  Si  Si191  1  0.52555968  0.58270810  0.11622153  1
  O  O192  1  0.27583338  0.13135573  0.07087356  1
  O  O193  1  0.29115290  0.09689941  0.57996080  1
  O  O194  1  0.27623465  0.62216798  0.08568611  1
  O  O195  1  0.27136766  0.62565651  0.58813214  1
  O  O196  1  0.60338880  0.11727739  0.08771281  1
  O  O197  1  0.61251005  0.10359957  0.58679343  1
  O  O198  1  0.60093488  0.62010718  0.08395205  1
  O  O199  1  0.60362830  0.63058555  0.58454036  1
  O  O200  1  0.92162924  0.13884561  0.07544736  1
  O  O201  1  0.93641869  0.11800650  0.58378163  1
  O  O202  1  0.94976756  0.61930953  0.07398175  1
  O  O203  1  0.94035779  0.61856757  0.59017194  1
  O  O204  1  0.10399354  0.37864929  0.08496921  1
  O  O205  1  0.10789610  0.34933126  0.58092210  1
  O  O206  1  0.11782406  0.85707056  0.07978517  1
  O  O207  1  0.10682146  0.85519713  0.58824327  1
  O  O208  1  0.43767545  0.37687469  0.08591625  1
  O  O209  1  0.45973659  0.35091427  0.57559559  1
  O  O210  1  0.44238678  0.86839439  0.08462997  1
  O  O211  1  0.43754860  0.86772795  0.58899967  1
  O  O212  1  0.77196910  0.35784240  0.08568925  1
  O  O213  1  0.79874478  0.36277545  0.58132248  1
  O  O214  1  0.76186659  0.86002391  0.07472917  1
  O  O215  1  0.76978194  0.87414162  0.58619230  1
  O  O216  1  0.27076000  0.37613854  0.08461565  1
  O  O217  1  0.27983566  0.39053333  0.56719014  1
  O  O218  1  0.27900229  0.87407844  0.08240842  1
  O  O219  1  0.27167031  0.88264824  0.58746208  1
  O  O220  1  0.60482836  0.38100714  0.08594270  1
  O  O221  1  0.62837080  0.40507830  0.57584853  1
  O  O222  1  0.60479624  0.88671821  0.08538595  1
  O  O223  1  0.60332899  0.87581596  0.58655973  1
  O  O224  1  0.93580365  0.38012558  0.08327910  1
  O  O225  1  0.95594178  0.39601818  0.58722785  1
  O  O226  1  0.95242299  0.87286004  0.07189017  1
  O  O227  1  0.93848800  0.88034013  0.58674096  1
  O  O228  1  0.08479937  0.13001802  0.07264817  1
  O  O229  1  0.09515047  0.14479825  0.57490028  1
  O  O230  1  0.11432292  0.62587135  0.08092520  1
  O  O231  1  0.10772264  0.64431105  0.58953649  1
  O  O232  1  0.44018448  0.13206367  0.08090149  1
  O  O233  1  0.45019121  0.12916352  0.58550335  1
  O  O234  1  0.43876730  0.62679109  0.08580557  1
  O  O235  1  0.44030250  0.64608202  0.58885394  1
  O  O236  1  0.76191077  0.13335568  0.08009627  1
  O  O237  1  0.77083893  0.12342831  0.58309473  1
  O  O238  1  0.76121047  0.64406519  0.07628403  1
  O  O239  1  0.77295744  0.63062640  0.58694161  1
  O  O240  1  0.06409182  0.12148352  0.41028834  1
  O  O241  1  0.05979164  0.11227923  0.91252124  1
  O  O242  1  0.07703744  0.61084827  0.42803558  1
  O  O243  1  0.06184842  0.63002677  0.91612172  1
  O  O244  1  0.39842734  0.12195603  0.41543029  1
  O  O245  1  0.39383702  0.11747374  0.91406281  1
  O  O246  1  0.39651580  0.61471866  0.41676119  1
  O  O247  1  0.39671788  0.63031527  0.91991805  1
  O  O248  1  0.72860176  0.10537845  0.40667041  1
  O  O249  1  0.72654237  0.11545440  0.91309257  1
  O  O250  1  0.71393183  0.62216290  0.42421861  1
  O  O251  1  0.72738479  0.61702113  0.91593773  1
  O  O252  1  0.21051317  0.35321763  0.40917021  1
  O  O253  1  0.21943077  0.34909406  0.92378590  1
  O  O254  1  0.21327024  0.87278475  0.42218688  1
  O  O255  1  0.21302307  0.86277977  0.91379428  1
  O  O256  1  0.54815066  0.34812788  0.42712911  1
  O  O257  1  0.55473519  0.34842065  0.92437069  1
  O  O258  1  0.56824856  0.87804481  0.41520095  1
  O  O259  1  0.56795896  0.85522613  0.92442569  1
  O  O260  1  0.88935717  0.35666621  0.41166196  1
  O  O261  1  0.88419565  0.34302440  0.91807298  1
  O  O262  1  0.89183732  0.86683673  0.41636451  1
  O  O263  1  0.89125390  0.87051420  0.91389437  1
  O  O264  1  0.05267738  0.37973642  0.41244046  1
  O  O265  1  0.04319053  0.37856249  0.92831347  1
  O  O266  1  0.04805167  0.90524461  0.41010153  1
  O  O267  1  0.05258447  0.89012664  0.91283854  1
  O  O268  1  0.37028824  0.38848362  0.42120289  1
  O  O269  1  0.37859973  0.37976826  0.92759501  1
  O  O270  1  0.40593672  0.88069774  0.42446963  1
  O  O271  1  0.37632402  0.88693203  0.92483574  1
  O  O272  1  0.73316106  0.39127715  0.42116085  1
  O  O273  1  0.71190037  0.38515692  0.92614120  1
  O  O274  1  0.72921481  0.88514097  0.41403476  1
  O  O275  1  0.72742880  0.88374687  0.91456722  1
  O  O276  1  0.22983464  0.13130906  0.40729084  1
  O  O277  1  0.22772755  0.12679438  0.91141795  1
  O  O278  1  0.23607274  0.61329938  0.41682968  1
  O  O279  1  0.22795766  0.63678735  0.91883630  1
  O  O280  1  0.56661992  0.12340784  0.41547631  1
  O  O281  1  0.56011080  0.14010550  0.91393286  1
  O  O282  1  0.55068918  0.65053367  0.41346154  1
  O  O283  1  0.56157298  0.64215211  0.91622956  1
  O  O284  1  0.89922175  0.12731348  0.41256104  1
  O  O285  1  0.89501228  0.12658256  0.91292702  1
  O  O286  1  0.89555639  0.64561628  0.43642510  1
  O  O287  1  0.89207324  0.64353202  0.91574352  1
  O  O288  1  0.17972383  -0.01308309  0.06927996  1
  O  O289  1  0.15641436  -0.01252750  0.57818965  1
  O  O290  1  0.19205375  0.49984190  0.08603655  1
  O  O291  1  0.16489282  0.51390363  0.57978540  1
  O  O292  1  0.50718506  0.00053664  0.08538021  1
  O  O293  1  0.51067416  -0.00526278  0.58690778  1
  O  O294  1  0.51526205  0.50064365  0.08627346  1
  O  O295  1  0.49858650  0.51683004  0.57978807  1
  O  O296  1  0.84462024  0.01128822  0.07096727  1
  O  O297  1  0.84751176  -0.00133834  0.58467767  1
  O  O298  1  0.82792602  0.48892479  0.07630853  1
  O  O299  1  0.84593775  0.50242421  0.58559846  1
  O  O300  1  0.01518927  0.25727930  0.07954547  1
  O  O301  1  -0.01190033  0.25328888  0.58764947  1
  O  O302  1  0.02509762  0.74462968  0.08595557  1
  O  O303  1  -0.00295895  0.74927764  0.58793972  1
  O  O304  1  0.35797303  0.25474464  0.08347559  1
  O  O305  1  0.33479896  0.23356510  0.57615150  1
  O  O306  1  0.35454325  0.74797849  0.08379428  1
  O  O307  1  0.33837655  0.75357464  0.58849275  1
  O  O308  1  0.66535933  0.25010701  0.08329069  1
  O  O309  1  0.67008492  0.23809371  0.57880666  1
  O  O310  1  0.65550098  0.75219315  0.08631188  1
  O  O311  1  0.68782062  0.75176858  0.58633439  1
  O  O312  1  0.15972626  0.00558678  0.41280101  1
  O  O313  1  0.15857800  -0.00085309  0.91188551  1
  O  O314  1  0.15705167  0.48987896  0.41338289  1
  O  O315  1  0.15548375  0.51144379  0.92738443  1
  O  O316  1  0.48773981  0.00170388  0.41476716  1
  O  O317  1  0.50329771  0.01054530  0.92436081  1
  O  O318  1  0.51078092  0.51120093  0.42236297  1
  O  O319  1  0.49348960  0.51379453  0.92613026  1
  O  O320  1  0.83139488  -0.00196404  0.41302264  1
  O  O321  1  0.82193479  0.00002764  0.91296587  1
  O  O322  1  0.84660430  0.49326828  0.41897236  1
  O  O323  1  0.83890439  0.51081692  0.92380299  1
  O  O324  1  0.32242464  0.24920367  0.41353483  1
  O  O325  1  0.32513783  0.24378246  0.91700880  1
  O  O326  1  0.31826867  0.73674383  0.42599704  1
  O  O327  1  0.31775410  0.75318542  0.91711143  1
  O  O328  1  0.67591436  0.23449136  0.42529273  1
  O  O329  1  0.66836801  0.24675474  0.91570381  1
  O  O330  1  0.65751697  0.75676957  0.41496037  1
  O  O331  1  0.67312826  0.74866109  0.91435179  1
  O  O332  1  0.98970886  0.24707938  0.41049056  1
  O  O333  1  0.99624497  0.24177760  0.91446358  1
  O  O334  1  1.01228757  0.76746543  0.42059428  1
  O  O335  1  0.99128748  0.75655656  0.91659377  1
  O  O336  1  0.21681791  0.07481023  0.19366379  1
  O  O337  1  0.20905571  0.08266274  0.69921969  1
  O  O338  1  0.21404869  0.58437954  0.19580434  1
  O  O339  1  0.20938864  0.58804446  0.69659363  1
  O  O340  1  0.53242909  0.08208592  0.19407347  1
  O  O341  1  0.54474905  0.07836765  0.69642690  1
  O  O342  1  0.54366174  0.58423966  0.19633905  1
  O  O343  1  0.54660697  0.59368562  0.69453214  1
  O  O344  1  0.87313995  0.08561995  0.18661193  1
  O  O345  1  0.87559781  0.08070511  0.69385994  1
  O  O346  1  0.87661119  0.58107377  0.19784697  1
  O  O347  1  0.87309371  0.58538113  0.69711217  1
  O  O348  1  0.04129736  0.33485616  0.19157167  1
  O  O349  1  0.04325958  0.33215603  0.69527731  1
  O  O350  1  0.05090041  0.83958042  0.18978789  1
  O  O351  1  0.03977501  0.83381989  0.69637267  1
  O  O352  1  0.37839725  0.33431106  0.19494128  1
  O  O353  1  0.37730959  0.33148482  0.70047486  1
  O  O354  1  0.38130405  0.83239968  0.19427774  1
  O  O355  1  0.37408790  0.83387461  0.69782902  1
  O  O356  1  0.70843353  0.33238834  0.19475817  1
  O  O357  1  0.71036192  0.33134369  0.70304331  1
  O  O358  1  0.70718188  0.83384669  0.19303011  1
  O  O359  1  0.70977047  0.83470233  0.69588826  1
  O  O360  1  0.21334486  0.41500896  0.19526492  1
  O  O361  1  0.21373567  0.41792726  0.70221024  1
  O  O362  1  0.21268001  0.91526277  0.18928678  1
  O  O363  1  0.20658188  0.91456434  0.69463918  1
  O  O364  1  0.54476894  0.41794593  0.19565659  1
  O  O365  1  0.54933461  0.41654866  0.70160689  1
  O  O366  1  0.54175802  0.91664310  0.19522093  1
  O  O367  1  0.54512063  0.91404911  0.69674731  1
  O  O368  1  0.87272026  0.41412033  0.19269442  1
  O  O369  1  0.88345715  0.42202422  0.69479770  1
  O  O370  1  0.87935766  0.91541215  0.19579865  1
  O  O371  1  0.87502396  0.91646115  0.69504819  1
  O  O372  1  0.02917618  0.16971790  0.18605840  1
  O  O373  1  0.04073476  0.16553536  0.69198192  1
  O  O374  1  0.05158190  0.65557169  0.19144514  1
  O  O375  1  0.04418274  0.67150032  0.69813474  1
  O  O376  1  0.37608416  0.16709244  0.19008699  1
  O  O377  1  0.37859952  0.16091325  0.69196414  1
  O  O378  1  0.38205384  0.67114157  0.19596572  1
  O  O379  1  0.37515749  0.67038688  0.69844143  1
  O  O380  1  0.71155296  0.17285340  0.19286814  1
  O  O381  1  0.71048621  0.16078447  0.69323444  1
  O  O382  1  0.70404092  0.66755255  0.19292206  1
  O  O383  1  0.71114493  0.66992887  0.69600406  1
  O  O384  1  0.11878753  0.07929689  0.30039746  1
  O  O385  1  0.12053502  0.08175901  0.80271813  1
  O  O386  1  0.12188747  0.58221444  0.30812313  1
  O  O387  1  0.12801945  0.58596069  0.80999160  1
  O  O388  1  0.45763251  0.08329167  0.30490676  1
  O  O389  1  0.45848688  0.08282368  0.80651719  1
  O  O390  1  0.46337093  0.58450101  0.30744517  1
  O  O391  1  0.45395163  0.59218086  0.81027640  1
  O  O392  1  0.80385588  0.08017373  0.30158821  1
  O  O393  1  0.78989731  0.08058508  0.80361095  1
  O  O394  1  0.78508549  0.58499036  0.30005150  1
  O  O395  1  0.79171909  0.58796988  0.80800218  1
  O  O396  1  0.28895172  0.33203492  0.30496237  1
  O  O397  1  0.28764469  0.32938900  0.81087229  1
  O  O398  1  0.29035001  0.83292550  0.29799652  1
  O  O399  1  0.28726494  0.83556355  0.80809934  1
  O  O400  1  0.62255638  0.33189521  0.29988026  1
  O  O401  1  0.62136267  0.33086644  0.81121356  1
  O  O402  1  0.62450663  0.83501555  0.30423860  1
  O  O403  1  0.62540946  0.83345485  0.80783084  1
  O  O404  1  0.95404351  0.33128942  0.30150175  1
  O  O405  1  0.96088973  0.33036114  0.80867245  1
  O  O406  1  0.95374522  0.84159074  0.30583929  1
  O  O407  1  0.95471926  0.83609539  0.80506238  1
  O  O408  1  0.11666329  0.41200699  0.30215764  1
  O  O409  1  0.12001590  0.41682985  0.80246450  1
  O  O410  1  0.12491683  0.91831843  0.30331986  1
  O  O411  1  0.12001581  0.91729283  0.80348606  1
  O  O412  1  0.45541988  0.41639775  0.30127723  1
  O  O413  1  0.45192954  0.41681768  0.80311906  1
  O  O414  1  0.45703685  0.91562110  0.30701902  1
  O  O415  1  0.45530408  0.91645737  0.80187279  1
  O  O416  1  0.79106565  0.41573334  0.30608577  1
  O  O417  1  0.78723582  0.42255600  0.80104272  1
  O  O418  1  0.79002966  0.91639075  0.30376894  1
  O  O419  1  0.78995268  0.91661513  0.80444896  1
  O  O420  1  0.30248701  0.16743402  0.30316297  1
  O  O421  1  0.29072422  0.16514842  0.80387547  1
  O  O422  1  0.29127455  0.66672576  0.30834322  1
  O  O423  1  0.28926461  0.66917913  0.80812379  1
  O  O424  1  0.61949732  0.17048690  0.30707078  1
  O  O425  1  0.62385040  0.16353750  0.80438538  1
  O  O426  1  0.62379172  0.67034111  0.30669926  1
  O  O427  1  0.62511488  0.66797140  0.80624542  1
  O  O428  1  0.95700989  0.16569035  0.30058610  1
  O  O429  1  0.95630470  0.16182908  0.80365154  1
  O  O430  1  0.95219952  0.65850749  0.30413918  1
  O  O431  1  0.95406806  0.67476382  0.80718417  1
  F  F432  1  0.04560703  0.00004636  0.19566215  1
  F  F433  1  0.04170808  -0.00147944  0.70020090  1
  F  F434  1  0.03754360  0.49835240  0.19808864  1
  F  F435  1  0.04639299  0.50189926  0.70361247  1
  F  F436  1  0.38165152  -0.00299923  0.20286421  1
  F  F437  1  0.37837963  -0.00135353  0.70280881  1
  F  F438  1  0.38109406  0.49802265  0.19866777  1
  F  F439  1  0.37288636  0.50531272  0.70196953  1
  F  F440  1  0.71498849  -0.00949489  0.19533769  1
  F  F441  1  0.71122590  -0.00311258  0.70175663  1
  F  F442  1  0.70876343  0.49731971  0.20225960  1
  F  F443  1  0.71403045  0.50694896  0.70116539  1
  F  F444  1  0.21661977  0.26163407  0.19429145  1
  F  F445  1  0.21238133  0.24990895  0.70343186  1
  F  F446  1  0.21492038  0.74646423  0.19837735  1
  F  F447  1  0.21152579  0.75143844  0.70594119  1
  F  F448  1  0.54365758  0.24810776  0.19948825  1
  F  F449  1  0.54728039  0.24758586  0.70540024  1
  F  F450  1  0.54471519  0.75082709  0.20397198  1
  F  F451  1  0.54491279  0.75348865  0.70521783  1
  F  F452  1  0.87601169  0.25109226  0.19998844  1
  F  F453  1  0.88057933  0.24282252  0.70092263  1
  F  F454  1  0.86450275  0.74919574  0.19584993  1
  F  F455  1  0.87696009  0.75295951  0.70171374  1
  F  F456  1  0.29053594  -0.00198928  0.29803825  1
  F  F457  1  0.28635500  -0.00130304  0.79855277  1
  F  F458  1  0.29031213  0.49690811  0.30226490  1
  F  F459  1  0.28757700  0.50464033  0.80205097  1
  F  F460  1  0.61807305  -0.01049537  0.30155164  1
  F  F461  1  0.62358518  -0.00121539  0.79920693  1
  F  F462  1  0.62081041  0.50117657  0.29806446  1
  F  F463  1  0.62702085  0.50378372  0.80166211  1
  F  F464  1  0.95627681  0.00370521  0.29092498  1
  F  F465  1  0.95373221  -0.00041494  0.79679658  1
  F  F466  1  0.95364455  0.49450726  0.29804677  1
  F  F467  1  0.95428854  0.49968308  0.80222607  1
  F  F468  1  0.11534523  0.25664065  0.29563144  1
  F  F469  1  0.11948482  0.24556367  0.79614881  1
  F  F470  1  0.13580946  0.74862127  0.29888488  1
  F  F471  1  0.12020753  0.75336010  0.80052236  1
  F  F472  1  0.45340652  0.24856423  0.29503467  1
  F  F473  1  0.45382025  0.24388922  0.79908187  1
  F  F474  1  0.45616619  0.75174185  0.30037295  1
  F  F475  1  0.45443646  0.75167081  0.80074962  1
  F  F476  1  0.78954833  0.24767109  0.29711404  1
  F  F477  1  0.78425601  0.23562737  0.80422873  1
  F  F478  1  0.78647843  0.75277184  0.29699576  1
  F  F479  1  0.78795500  0.75282017  0.79823534  1
