# generated using pymatgen
data_K24Na3Li5Mg64Fe17Si79(O5F)48
_symmetry_space_group_name_H-M   'P 1'
_cell_length_a   16.10247477
_cell_length_b   18.60468992
_cell_length_c   20.56141088
_cell_angle_alpha   90.01462445
_cell_angle_beta   100.02638943
_cell_angle_gamma   89.97678254
_symmetry_Int_Tables_number   1
_chemical_formula_structural   K24Na3Li5Mg64Fe17Si79(O5F)48
_chemical_formula_sum   'K24 Na3 Li5 Mg64 Fe17 Si79 O240 F48'
_cell_volume   6065.74393911
_cell_formula_units_Z   1
loop_
 _symmetry_equiv_pos_site_id
 _symmetry_equiv_pos_as_xyz
  1  'x, y, z'
loop_
 _atom_site_type_symbol
 _atom_site_label
 _atom_site_symmetry_multiplicity
 _atom_site_fract_x
 _atom_site_fract_y
 _atom_site_fract_z
 _atom_site_occupancy
  K  K0  1  0.00698742  -0.01157316  0.00958501  1
  K  K1  1  0.00249018  -0.00103881  0.49308086  1
  K  K2  1  0.01314644  0.49413497  0.02484028  1
  K  K3  1  0.00964484  0.49036130  0.48854336  1
  K  K4  1  0.33681860  0.00044314  0.00370033  1
  K  K5  1  0.33441248  -0.00661248  0.49853695  1
  K  K6  1  0.34135836  0.49640195  0.02911001  1
  K  K7  1  0.33626139  0.50121559  0.48765973  1
  K  K8  1  0.66762898  -0.00695882  0.00726604  1
  K  K9  1  0.66045318  0.00171492  0.49426059  1
  K  K10  1  0.65589717  0.49970106  0.01672454  1
  K  K11  1  0.65833328  0.50606399  0.47478613  1
  K  K12  1  0.17688360  0.25530173  0.01699072  1
  K  K13  1  0.16856828  0.24444634  0.49587158  1
  K  K14  1  0.17175955  0.75221432  0.01989671  1
  K  K15  1  0.16508170  0.75887545  0.48441314  1
  K  K16  1  0.49437225  0.25963909  0.00474545  1
  K  K17  1  0.50174308  0.25129735  0.49154587  1
  K  K18  1  0.49700782  0.74409615  0.01854931  1
  K  K19  1  0.49418340  0.75330414  0.48962177  1
  K  K20  1  0.82889429  0.25329022  0.00845052  1
  K  K21  1  0.83324489  0.24272644  0.49070867  1
  K  K22  1  0.83789200  0.75679521  0.01740679  1
  K  K23  1  0.84000173  0.74821684  0.49068577  1
  Na  Na24  1  0.49926039  0.00112404  0.73978512  1
  Na  Na25  1  0.00694419  0.41721310  0.24996502  1
  Na  Na26  1  0.66320322  0.58034868  0.25298136  1
  Li  Li27  1  0.00226467  0.75371275  0.25111815  1
  Li  Li28  1  0.49978870  0.50379607  0.25378483  1
  Li  Li29  1  0.16781389  0.17504582  0.24850029  1
  Li  Li30  1  0.16644752  0.33093381  0.25000014  1
  Li  Li31  1  0.66788105  0.91441842  0.24964383  1
  Mg  Mg32  1  0.66670551  0.75066914  0.24825177  1
  Mg  Mg33  1  0.66499324  0.75340488  0.74805309  1
  Mg  Mg34  1  0.66707933  0.24929672  0.75225500  1
  Mg  Mg35  1  0.33365568  0.75200386  0.74769767  1
  Mg  Mg36  1  0.16521382  0.00212774  0.24790189  1
  Mg  Mg37  1  0.00079060  0.25064350  0.74639897  1
  Mg  Mg38  1  0.16614025  0.49863769  0.75164259  1
  Mg  Mg39  1  0.66639728  0.24828954  0.25265043  1
  Mg  Mg40  1  0.50151527  -0.00145067  0.24839274  1
  Mg  Mg41  1  0.16659908  0.49754966  0.25138839  1
  Mg  Mg42  1  0.33233428  0.75098303  0.24766197  1
  Mg  Mg43  1  0.83370505  0.50039946  0.25037442  1
  Mg  Mg44  1  0.33396437  0.24795046  0.74937536  1
  Mg  Mg45  1  -0.00037818  0.74995180  0.74991330  1
  Mg  Mg46  1  0.32902649  0.25095835  0.24785261  1
  Mg  Mg47  1  0.00496641  0.25209196  0.24951673  1
  Mg  Mg48  1  0.16845342  0.00026704  0.74491790  1
  Mg  Mg49  1  0.83177667  0.50046852  0.75159834  1
  Mg  Mg50  1  0.83215794  -0.00247202  0.24972651  1
  Mg  Mg51  1  0.49854013  0.49930439  0.75675698  1
  Mg  Mg52  1  0.83524324  -0.00145235  0.74633321  1
  Mg  Mg53  1  -0.00102433  0.41540955  0.74944825  1
  Mg  Mg54  1  0.49754206  0.66660799  0.75126890  1
  Mg  Mg55  1  0.49717974  0.16532908  0.74554893  1
  Mg  Mg56  1  0.66502883  0.41782054  0.25315078  1
  Mg  Mg57  1  0.66437579  0.58513382  0.75342479  1
  Mg  Mg58  1  0.32964415  0.08476722  0.24763020  1
  Mg  Mg59  1  0.33364251  0.91572603  0.74453660  1
  Mg  Mg60  1  0.49752195  0.83672888  0.74491538  1
  Mg  Mg61  1  0.00200815  0.91439552  0.24940367  1
  Mg  Mg62  1  0.50149294  0.16539596  0.25165809  1
  Mg  Mg63  1  0.16363086  0.66664996  0.25124137  1
  Mg  Mg64  1  0.83647961  0.66768996  0.25107863  1
  Mg  Mg65  1  0.66548009  0.91726918  0.74511030  1
  Mg  Mg66  1  0.66778719  0.08119194  0.25199972  1
  Mg  Mg67  1  0.49829289  0.33494080  0.75455679  1
  Mg  Mg68  1  0.66545938  0.41553322  0.75514341  1
  Mg  Mg69  1  0.33444076  0.41473319  0.75439255  1
  Mg  Mg70  1  0.33266682  0.58451498  0.75349709  1
  Mg  Mg71  1  0.33037010  0.91604437  0.24695436  1
  Mg  Mg72  1  -0.00127753  0.58385717  0.75255134  1
  Mg  Mg73  1  0.00014213  0.08405926  0.74649064  1
  Mg  Mg74  1  0.83309946  0.83488152  0.74547443  1
  Mg  Mg75  1  0.49883851  0.66577208  0.24882973  1
  Mg  Mg76  1  0.83574115  0.83266935  0.24939681  1
  Mg  Mg77  1  0.49988742  0.83462586  0.24553589  1
  Mg  Mg78  1  0.33500905  0.58248678  0.24764152  1
  Mg  Mg79  1  0.16653850  0.83414389  0.74783540  1
  Mg  Mg80  1  0.33279901  0.41657032  0.25219639  1
  Mg  Mg81  1  0.83109973  0.66672447  0.75257490  1
  Mg  Mg82  1  0.00249266  0.58440727  0.25227228  1
  Mg  Mg83  1  0.83313127  0.33528225  0.75051788  1
  Mg  Mg84  1  0.16594591  0.16469017  0.74601120  1
  Mg  Mg85  1  -0.00098918  0.91559434  0.74713205  1
  Mg  Mg86  1  0.16500955  0.33321393  0.75078758  1
  Mg  Mg87  1  0.83493863  0.16608605  0.74902388  1
  Mg  Mg88  1  0.50040194  0.33572664  0.25243568  1
  Mg  Mg89  1  0.83478853  0.16549915  0.25176087  1
  Mg  Mg90  1  0.66606997  0.08317652  0.74651112  1
  Mg  Mg91  1  0.33187190  0.08414956  0.74477111  1
  Mg  Mg92  1  0.16605517  0.66564465  0.75236429  1
  Mg  Mg93  1  0.16378811  0.83591290  0.25008929  1
  Mg  Mg94  1  0.00340234  0.08535605  0.25032039  1
  Mg  Mg95  1  0.83545341  0.33386439  0.25131314  1
  Fe  Fe96  1  0.47693395  0.58588121  0.38958245  1
  Fe  Fe97  1  0.35952225  0.83895177  0.10659368  1
  Fe  Fe98  1  0.52557989  0.58327924  0.11036904  1
  Fe  Fe99  1  0.02233600  0.33483754  0.60945389  1
  Fe  Fe100  1  0.02251525  0.82951058  0.10725431  1
  Fe  Fe101  1  0.18782682  0.07993438  0.60567832  1
  Fe  Fe102  1  0.64251983  0.16395602  0.39098232  1
  Fe  Fe103  1  0.47541316  0.41729584  0.89630633  1
  Fe  Fe104  1  0.18742312  0.40893304  0.11328173  1
  Fe  Fe105  1  0.97355226  0.83001205  0.39047313  1
  Fe  Fe106  1  0.53242345  0.91844591  0.60316620  1
  Fe  Fe107  1  0.35850565  0.83088882  0.60478431  1
  Fe  Fe108  1  0.86090717  0.91367401  0.60688617  1
  Fe  Fe109  1  0.14453932  0.57638610  0.39138440  1
  Fe  Fe110  1  0.36000135  0.17008028  0.60509200  1
  Fe  Fe111  1  0.18810081  0.92446083  0.10454785  1
  Fe  Fe112  1  0.14360751  0.92272199  0.39182428  1
  Si  Si113  1  0.01415544  0.32954137  0.10911222  1
  Si  Si114  1  0.18774303  0.91276478  0.61238866  1
  Si  Si115  1  0.64181604  0.83741886  0.88498310  1
  Si  Si116  1  0.81355919  0.07915994  0.38770153  1
  Si  Si117  1  0.81022154  0.08203883  0.88373690  1
  Si  Si118  1  0.47727120  0.41395673  0.38829933  1
  Si  Si119  1  0.30932204  0.16626402  0.38164313  1
  Si  Si120  1  0.64281466  0.16195515  0.88532943  1
  Si  Si121  1  0.85165008  0.41634394  0.11494421  1
  Si  Si122  1  0.14155302  0.58320597  0.88823440  1
  Si  Si123  1  0.68693204  0.66635173  0.61727170  1
  Si  Si124  1  0.64605807  0.32854737  0.89118504  1
  Si  Si125  1  0.15098630  0.40823077  0.39020917  1
  Si  Si126  1  0.97450893  0.65929215  0.39025645  1
  Si  Si127  1  0.30590124  0.83601801  0.88483204  1
  Si  Si128  1  0.69265286  0.33620904  0.61772505  1
  Si  Si129  1  0.80774929  0.58533308  0.38462166  1
  Si  Si130  1  0.64701243  0.33401419  0.38888780  1
  Si  Si131  1  0.30249663  0.32922964  0.88992299  1
  Si  Si132  1  0.85736222  0.08359791  0.11419145  1
  Si  Si133  1  0.31104505  0.83370960  0.38456279  1
  Si  Si134  1  0.01779422  0.16916028  0.11326404  1
  Si  Si135  1  0.19507976  0.41721928  0.61686046  1
  Si  Si136  1  0.14343857  0.09086977  0.38460359  1
  Si  Si137  1  0.13810658  0.91675431  0.88309308  1
  Si  Si138  1  0.64245678  0.67237168  0.88713669  1
  Si  Si139  1  0.69250073  0.33014892  0.11682100  1
  Si  Si140  1  0.35679780  0.33985251  0.61552122  1
  Si  Si141  1  0.52673514  0.41596340  0.61927532  1
  Si  Si142  1  0.85834456  0.58082662  0.11493572  1
  Si  Si143  1  0.80535342  0.91505183  0.38355717  1
  Si  Si144  1  0.13912295  0.41709287  0.88727704  1
  Si  Si145  1  0.97463975  0.16827261  0.88471190  1
  Si  Si146  1  0.30567682  0.16332040  0.88622921  1
  Si  Si147  1  0.31568778  0.32780191  0.38668898  1
  Si  Si148  1  0.69345410  0.16644357  0.11526875  1
  Si  Si149  1  0.36125264  0.16353179  0.11419626  1
  Si  Si150  1  0.80615554  0.58380854  0.88854208  1
  Si  Si151  1  0.53414174  0.09466534  0.60789705  1
  Si  Si152  1  0.46953709  0.08070811  0.38556503  1
  Si  Si153  1  0.01905486  0.16724822  0.61040004  1
  Si  Si154  1  0.13828389  0.08246925  0.88420064  1
  Si  Si155  1  0.18801541  0.58022641  0.61842818  1
  Si  Si156  1  0.52820374  0.41098038  0.11608002  1
  Si  Si157  1  0.81106833  0.41940775  0.38630730  1
  Si  Si158  1  0.97362826  0.83127395  0.88483046  1
  Si  Si159  1  0.69812207  0.67067985  0.11195338  1
  Si  Si160  1  0.18667793  0.09246155  0.11172260  1
  Si  Si161  1  0.97404031  0.66535774  0.88807745  1
  Si  Si162  1  0.47543186  0.91614820  0.38189843  1
  Si  Si163  1  0.85452354  0.42331361  0.61428011  1
  Si  Si164  1  0.64372432  0.67523494  0.38716443  1
  Si  Si165  1  0.35337441  0.65975007  0.61437133  1
  Si  Si166  1  0.70057964  0.17155169  0.61563225  1
  Si  Si167  1  0.02177715  0.66093837  0.11385661  1
  Si  Si168  1  0.80833804  0.41689348  0.88840005  1
  Si  Si169  1  0.47574975  0.59094876  0.89049148  1
  Si  Si170  1  0.69688307  0.83433482  0.11499941  1
  Si  Si171  1  0.47285313  0.08396248  0.88420178  1
  Si  Si172  1  0.52756951  0.08281101  0.11332446  1
  Si  Si173  1  0.69858616  0.82837787  0.61038152  1
  Si  Si174  1  0.47231114  0.91638704  0.88400514  1
  Si  Si175  1  0.30697944  0.66904341  0.38697965  1
  Si  Si176  1  0.53121742  0.91777345  0.11028616  1
  Si  Si177  1  0.97320235  0.33467776  0.88631451  1
  Si  Si178  1  0.30570734  0.67032202  0.88701015  1
  Si  Si179  1  0.18935814  0.58161586  0.11371550  1
  Si  Si180  1  0.85340327  0.58660751  0.61763123  1
  Si  Si181  1  0.35220537  0.66699650  0.10840412  1
  Si  Si182  1  0.03101047  0.82843542  0.61385907  1
  Si  Si183  1  0.02279926  0.66392708  0.61712829  1
  Si  Si184  1  0.97469274  0.16836811  0.38534359  1
  Si  Si185  1  0.97542103  0.33199541  0.38577917  1
  Si  Si186  1  0.85785376  0.08347788  0.61288346  1
  Si  Si187  1  0.36264613  0.32852059  0.11431202  1
  Si  Si188  1  0.52410950  0.58052386  0.61898596  1
  Si  Si189  1  0.80870293  0.91672560  0.88351166  1
  Si  Si190  1  0.85728466  0.92008675  0.11106945  1
  Si  Si191  1  0.64065707  0.83731202  0.38114397  1
  O  O192  1  0.26878036  0.12959537  0.08314360  1
  O  O193  1  0.28082478  0.10337456  0.56812182  1
  O  O194  1  0.26339825  0.62250981  0.08162764  1
  O  O195  1  0.27339660  0.60345935  0.59104161  1
  O  O196  1  0.60303333  0.12724679  0.08452666  1
  O  O197  1  0.62497450  0.11850492  0.58320462  1
  O  O198  1  0.61521090  0.62823891  0.07546489  1
  O  O199  1  0.60658495  0.61286417  0.59132912  1
  O  O200  1  0.93654366  0.11603236  0.08185084  1
  O  O201  1  0.94455602  0.10604621  0.58650054  1
  O  O202  1  0.94147111  0.60562702  0.08485889  1
  O  O203  1  0.93756942  0.61538588  0.59034115  1
  O  O204  1  0.08613726  0.36175868  0.07096946  1
  O  O205  1  0.12478580  0.36098562  0.58214951  1
  O  O206  1  0.10083456  0.86732941  0.06098239  1
  O  O207  1  0.12267253  0.84304613  0.59265052  1
  O  O208  1  0.44224160  0.36525098  0.08585399  1
  O  O209  1  0.44384340  0.36842469  0.59031926  1
  O  O210  1  0.45175648  0.87541523  0.06973574  1
  O  O211  1  0.44806174  0.85627922  0.56484930  1
  O  O212  1  0.76523498  0.37106397  0.08307099  1
  O  O213  1  0.77092478  0.37272273  0.58851718  1
  O  O214  1  0.77007709  0.87526436  0.08197606  1
  O  O215  1  0.78837787  0.83476221  0.58485998  1
  O  O216  1  0.27675920  0.36537891  0.07700457  1
  O  O217  1  0.28663092  0.40453109  0.59328968  1
  O  O218  1  0.27645799  0.89825960  0.06324346  1
  O  O219  1  0.27005726  0.89672798  0.57990844  1
  O  O220  1  0.60295551  0.36692842  0.08520717  1
  O  O221  1  0.60702592  0.38220371  0.58994770  1
  O  O222  1  0.61345528  0.88201396  0.08399614  1
  O  O223  1  0.63393057  0.88814900  0.57509932  1
  O  O224  1  0.92674263  0.37834026  0.08184331  1
  O  O225  1  0.93361776  0.40139875  0.58068115  1
  O  O226  1  0.92714006  0.88799530  0.07204455  1
  O  O227  1  0.96176356  0.88525399  0.57963977  1
  O  O228  1  0.10415683  0.14628034  0.08570339  1
  O  O229  1  0.10078347  0.14845502  0.57832701  1
  O  O230  1  0.10191774  0.62626867  0.08380381  1
  O  O231  1  0.10503514  0.63044481  0.59044172  1
  O  O232  1  0.43532265  0.11937217  0.08287224  1
  O  O233  1  0.46563177  0.15559485  0.57836443  1
  O  O234  1  0.42313626  0.62713230  0.07319529  1
  O  O235  1  0.43767021  0.62397783  0.58989494  1
  O  O236  1  0.77057761  0.12955502  0.08350587  1
  O  O237  1  0.78745448  0.14817534  0.58986065  1
  O  O238  1  0.77949411  0.63352101  0.08298373  1
  O  O239  1  0.77185291  0.63800140  0.58987067  1
  O  O240  1  0.06401496  0.12939099  0.41425598  1
  O  O241  1  0.06355649  0.12667786  0.91395678  1
  O  O242  1  0.04639762  0.60192943  0.42286948  1
  O  O243  1  0.06244258  0.62231193  0.91621207  1
  O  O244  1  0.38283842  0.10726908  0.41158617  1
  O  O245  1  0.39693909  0.12404317  0.91671285  1
  O  O246  1  0.38405900  0.61896336  0.42427371  1
  O  O247  1  0.39681287  0.63332498  0.91590337  1
  O  O248  1  0.73983228  0.10999893  0.42448016  1
  O  O249  1  0.73010836  0.11633141  0.91372896  1
  O  O250  1  0.72785499  0.62309772  0.41228453  1
  O  O251  1  0.72898906  0.62554311  0.91597392  1
  O  O252  1  0.23366405  0.35505585  0.41828803  1
  O  O253  1  0.22076139  0.36747742  0.91579962  1
  O  O254  1  0.23905851  0.86458237  0.42218436  1
  O  O255  1  0.22903496  0.87879521  0.91208321  1
  O  O256  1  0.56566665  0.36847621  0.41685141  1
  O  O257  1  0.57484089  0.36302014  0.92730026  1
  O  O258  1  0.55824444  0.86688815  0.41148137  1
  O  O259  1  0.56400049  0.87670195  0.91425780  1
  O  O260  1  0.90051752  0.37708700  0.41605816  1
  O  O261  1  0.89766762  0.37572463  0.91670005  1
  O  O262  1  0.87343059  0.85883697  0.42076179  1
  O  O263  1  0.89506310  0.87079794  0.91282640  1
  O  O264  1  0.06666470  0.36935736  0.41516415  1
  O  O265  1  0.05898242  0.38007880  0.91474224  1
  O  O266  1  0.05875713  0.88816984  0.43324053  1
  O  O267  1  0.06193969  0.87417489  0.91163361  1
  O  O268  1  0.40027088  0.37432443  0.42024165  1
  O  O269  1  0.38660822  0.36886756  0.92675432  1
  O  O270  1  0.39682289  0.88186149  0.41118311  1
  O  O271  1  0.39568315  0.87644409  0.91496712  1
  O  O272  1  0.73227394  0.38359406  0.41645322  1
  O  O273  1  0.73655227  0.37129477  0.91800958  1
  O  O274  1  0.71493623  0.89580928  0.40832973  1
  O  O275  1  0.72923559  0.88249051  0.91434077  1
  O  O276  1  0.22254857  0.14696141  0.40856922  1
  O  O277  1  0.23060654  0.11826959  0.91454852  1
  O  O278  1  0.22529605  0.64776698  0.42010384  1
  O  O279  1  0.22913235  0.62731397  0.91522156  1
  O  O280  1  0.54656837  0.13011430  0.42227591  1
  O  O281  1  0.56421692  0.12421272  0.91481533  1
  O  O282  1  0.57234688  0.64342694  0.42612443  1
  O  O283  1  0.56157015  0.64007587  0.91559676  1
  O  O284  1  0.90021379  0.12595356  0.41549514  1
  O  O285  1  0.89613903  0.12873341  0.91320694  1
  O  O286  1  0.88925109  0.63106366  0.42034845  1
  O  O287  1  0.89604196  0.62498785  0.91633132  1
  O  O288  1  0.16366075  0.01935822  0.07055667  1
  O  O289  1  0.14213337  -0.01288998  0.58542010  1
  O  O290  1  0.17792711  0.50333293  0.07809372  1
  O  O291  1  0.16269044  0.49894684  0.59241898  1
  O  O292  1  0.52853872  0.00240304  0.08122036  1
  O  O293  1  0.50990493  0.01581445  0.57721811  1
  O  O294  1  0.52003544  0.48728349  0.07869834  1
  O  O295  1  0.51206061  0.49811173  0.59089297  1
  O  O296  1  0.83699010  0.00344896  0.08278371  1
  O  O297  1  0.82318799  0.00795644  0.58056795  1
  O  O298  1  0.83682795  0.49863685  0.08459097  1
  O  O299  1  0.82666287  0.50613535  0.59003568  1
  O  O300  1  -0.01121671  0.24734110  0.07826242  1
  O  O301  1  -0.02104910  0.24429250  0.58296640  1
  O  O302  1  -0.00273708  0.73533064  0.07417954  1
  O  O303  1  0.00357290  0.74508728  0.58918804  1
  O  O304  1  0.36276234  0.24503272  0.08453499  1
  O  O305  1  0.32540719  0.26639027  0.57879425  1
  O  O306  1  0.33745651  0.74553464  0.07339069  1
  O  O307  1  0.32795557  0.73446185  0.57835079  1
  O  O308  1  0.68737644  0.24826818  0.08489012  1
  O  O309  1  0.67893612  0.25437207  0.58906033  1
  O  O310  1  0.68966130  0.75393190  0.08041853  1
  O  O311  1  0.66120414  0.74582620  0.58852466  1
  O  O312  1  0.16690203  0.01714752  0.42471620  1
  O  O313  1  0.13892220  -0.00056823  0.91186260  1
  O  O314  1  0.16877046  0.48339153  0.43123001  1
  O  O315  1  0.15013570  0.50007601  0.91609833  1
  O  O316  1  0.48958472  -0.00235479  0.41256377  1
  O  O317  1  0.48031874  0.00025004  0.91268988  1
  O  O318  1  0.49225236  0.49126001  0.42450941  1
  O  O319  1  0.49095900  0.51359172  0.92527667  1
  O  O320  1  0.83323097  -0.00365286  0.41294423  1
  O  O321  1  0.82379585  -0.00056492  0.91258051  1
  O  O322  1  0.81833178  0.50205681  0.41562932  1
  O  O323  1  0.81248945  0.50034806  0.91623069  1
  O  O324  1  0.33825805  0.24524511  0.41456394  1
  O  O325  1  0.30554651  0.24489329  0.91726088  1
  O  O326  1  0.33569200  0.75201887  0.41111860  1
  O  O327  1  0.30824353  0.75334880  0.91433998  1
  O  O328  1  0.66658645  0.25718921  0.42537745  1
  O  O329  1  0.66101584  0.24356455  0.91595080  1
  O  O330  1  0.66791290  0.75837074  0.41564939  1
  O  O331  1  0.65700157  0.75511890  0.91515342  1
  O  O332  1  0.97725047  0.25001585  0.41752325  1
  O  O333  1  0.98102463  0.25137120  0.91399765  1
  O  O334  1  0.99701755  0.73693887  0.42529583  1
  O  O335  1  0.98120374  0.74864976  0.91483017  1
  O  O336  1  0.20966780  0.08404555  0.19102930  1
  O  O337  1  0.20948461  0.08423090  0.69924815  1
  O  O338  1  0.21088393  0.58346686  0.19389590  1
  O  O339  1  0.20713998  0.58284632  0.69952995  1
  O  O340  1  0.54361648  0.08333906  0.19302410  1
  O  O341  1  0.55252558  0.09619277  0.68915637  1
  O  O342  1  0.53554436  0.58436781  0.19729304  1
  O  O343  1  0.54276073  0.58178023  0.70006496  1
  O  O344  1  0.87471461  0.08504879  0.19411482  1
  O  O345  1  0.87676145  0.08401131  0.69477546  1
  O  O346  1  0.87484869  0.58211841  0.19458406  1
  O  O347  1  0.87376937  0.58480379  0.69874113  1
  O  O348  1  0.03728712  0.32582859  0.18740217  1
  O  O349  1  0.04384821  0.33542315  0.70220897  1
  O  O350  1  0.04577479  0.83630385  0.19644089  1
  O  O351  1  0.04282629  0.82965613  0.69569928  1
  O  O352  1  0.37929463  0.33079397  0.19448239  1
  O  O353  1  0.37592735  0.33495595  0.69701908  1
  O  O354  1  0.37775549  0.83557291  0.19834394  1
  O  O355  1  0.37745358  0.83077475  0.69835492  1
  O  O356  1  0.71118804  0.32929721  0.19670960  1
  O  O357  1  0.71056277  0.33594734  0.69882209  1
  O  O358  1  0.71366675  0.83197087  0.19405817  1
  O  O359  1  0.71275465  0.83042952  0.69286842  1
  O  O360  1  0.21252511  0.41570375  0.20224423  1
  O  O361  1  0.21021912  0.41654788  0.69868021  1
  O  O362  1  0.21084349  0.91936803  0.19643948  1
  O  O363  1  0.20830812  0.91372170  0.69476677  1
  O  O364  1  0.54811918  0.40954033  0.19566542  1
  O  O365  1  0.54630070  0.41716384  0.70007187  1
  O  O366  1  0.53958237  0.91868937  0.18974613  1
  O  O367  1  0.55187384  0.90727707  0.69442346  1
  O  O368  1  0.86710705  0.41500356  0.19381958  1
  O  O369  1  0.87371451  0.41978895  0.69607002  1
  O  O370  1  0.87572406  0.91964110  0.19112966  1
  O  O371  1  0.87996961  0.91606614  0.69997941  1
  O  O372  1  0.03135466  0.16725886  0.19227172  1
  O  O373  1  0.04000610  0.16704271  0.69299252  1
  O  O374  1  0.04115266  0.66482333  0.19334475  1
  O  O375  1  0.04134094  0.66385568  0.69827856  1
  O  O376  1  0.38071712  0.16361385  0.19397597  1
  O  O377  1  0.37738015  0.16879279  0.69876064  1
  O  O378  1  0.37221584  0.66895917  0.18936865  1
  O  O379  1  0.37425310  0.66315053  0.69609871  1
  O  O380  1  0.71191584  0.16587321  0.19501932  1
  O  O381  1  0.71455013  0.17064500  0.69673376  1
  O  O382  1  0.71486696  0.67299428  0.19137941  1
  O  O383  1  0.70848500  0.66491681  0.69836027  1
  O  O384  1  0.12119917  0.08324557  0.30488726  1
  O  O385  1  0.11999934  0.08435123  0.80416103  1
  O  O386  1  0.12358542  0.58168510  0.30021579  1
  O  O387  1  0.12169403  0.58319922  0.80753848  1
  O  O388  1  0.45664859  0.08272554  0.30470102  1
  O  O389  1  0.45370994  0.08921911  0.80532300  1
  O  O390  1  0.45228119  0.58790199  0.29986126  1
  O  O391  1  0.45692743  0.58653508  0.80915880  1
  O  O392  1  0.79221115  0.08362181  0.30671517  1
  O  O393  1  0.79299046  0.08414764  0.80357109  1
  O  O394  1  0.79730820  0.58326154  0.30569744  1
  O  O395  1  0.78904080  0.58361144  0.80779234  1
  O  O396  1  0.30070930  0.33081559  0.30754267  1
  O  O397  1  0.28818086  0.33203454  0.80886435  1
  O  O398  1  0.28993540  0.83495679  0.30406856  1
  O  O399  1  0.28751547  0.83290020  0.80464864  1
  O  O400  1  0.62743678  0.33044761  0.30815458  1
  O  O401  1  0.62701429  0.33267013  0.81018303  1
  O  O402  1  0.62015256  0.83280969  0.30159807  1
  O  O403  1  0.62553213  0.83376267  0.80507841  1
  O  O404  1  0.95225461  0.32686690  0.30686029  1
  O  O405  1  0.95334444  0.33531196  0.80602584  1
  O  O406  1  0.95309291  0.83761080  0.30039738  1
  O  O407  1  0.95602889  0.83006982  0.80459748  1
  O  O408  1  0.13552401  0.41754276  0.31198673  1
  O  O409  1  0.12164366  0.41885365  0.80686104  1
  O  O410  1  0.12174506  0.92147117  0.30010079  1
  O  O411  1  0.12096227  0.91570132  0.80273043  1
  O  O412  1  0.45595853  0.41171854  0.30842112  1
  O  O413  1  0.45556135  0.41682355  0.80394282  1
  O  O414  1  0.45818829  0.91825975  0.30181931  1
  O  O415  1  0.45287179  0.91163157  0.80519056  1
  O  O416  1  0.79237049  0.41531844  0.30641686  1
  O  O417  1  0.79028882  0.41769644  0.80766406  1
  O  O418  1  0.79304275  0.91678773  0.30345175  1
  O  O419  1  0.79025228  0.91560120  0.80351682  1
  O  O420  1  0.29670979  0.16736870  0.30220512  1
  O  O421  1  0.28837866  0.16634910  0.80645250  1
  O  O422  1  0.29048243  0.66678025  0.30550999  1
  O  O423  1  0.28800973  0.66711585  0.80636870  1
  O  O424  1  0.62317266  0.16490226  0.29939889  1
  O  O425  1  0.62534410  0.16535253  0.80518801  1
  O  O426  1  0.61926900  0.67732967  0.30779814  1
  O  O427  1  0.62507368  0.66867892  0.80662286  1
  O  O428  1  0.95539177  0.16749431  0.30510070  1
  O  O429  1  0.95664550  0.16825163  0.80423663  1
  O  O430  1  0.95483802  0.66184119  0.30980220  1
  O  O431  1  0.95536056  0.66460174  0.80743667  1
  F  F432  1  0.04203214  0.00431443  0.19810570  1
  F  F433  1  0.04436416  -0.00037046  0.70312220  1
  F  F434  1  0.04818607  0.50772873  0.19516216  1
  F  F435  1  0.04315140  0.50183308  0.70493560  1
  F  F436  1  0.37971622  0.00258053  0.20023511  1
  F  F437  1  0.36531023  0.00006584  0.69724564  1
  F  F438  1  0.37106229  0.49614224  0.19880801  1
  F  F439  1  0.37820762  0.50229963  0.70685862  1
  F  F440  1  0.71487126  0.00712592  0.19874994  1
  F  F441  1  0.71550162  0.00153441  0.70044073  1
  F  F442  1  0.71533484  0.48913071  0.19936276  1
  F  F443  1  0.71003914  0.50030516  0.70652727  1
  F  F444  1  0.21759722  0.24975637  0.19432948  1
  F  F445  1  0.21157591  0.25180239  0.70501548  1
  F  F446  1  0.21124830  0.74976594  0.20101076  1
  F  F447  1  0.20997255  0.74644279  0.70463088  1
  F  F448  1  0.54611538  0.25020322  0.20136614  1
  F  F449  1  0.54821876  0.25540477  0.70645511  1
  F  F450  1  0.54522683  0.75098598  0.19740911  1
  F  F451  1  0.54516951  0.74531272  0.70339248  1
  F  F452  1  0.87468769  0.24897425  0.20170928  1
  F  F453  1  0.87701230  0.25269317  0.70388842  1
  F  F454  1  0.87349143  0.74916750  0.19962154  1
  F  F455  1  0.87906244  0.74521932  0.70431736  1
  F  F456  1  0.28955363  0.00241059  0.29626171  1
  F  F457  1  0.28750665  -0.00251208  0.79897153  1
  F  F458  1  0.29148143  0.50208854  0.30039290  1
  F  F459  1  0.28651661  0.50062725  0.80152257  1
  F  F460  1  0.61892076  0.00311255  0.29764337  1
  F  F461  1  0.63587737  0.00159465  0.80007150  1
  F  F462  1  0.62539544  0.48677789  0.31133690  1
  F  F463  1  0.62302713  0.50102380  0.80340191  1
  F  F464  1  0.95331304  0.00300998  0.29499787  1
  F  F465  1  0.95625665  0.00208608  0.79926612  1
  F  F466  1  0.95044507  0.50526240  0.29987718  1
  F  F467  1  0.95288644  0.49998715  0.80040536  1
  F  F468  1  0.11895240  0.25021162  0.29799832  1
  F  F469  1  0.12024256  0.24734793  0.79934162  1
  F  F470  1  0.12756438  0.75097623  0.29919759  1
  F  F471  1  0.11991364  0.74876957  0.79983128  1
  F  F472  1  0.45653265  0.24881113  0.29651993  1
  F  F473  1  0.45635627  0.25106727  0.80098396  1
  F  F474  1  0.45460044  0.75110135  0.29475486  1
  F  F475  1  0.45520724  0.74796900  0.79934533  1
  F  F476  1  0.78845251  0.24859811  0.29963739  1
  F  F477  1  0.78996560  0.25103695  0.80044437  1
  F  F478  1  0.78723596  0.74987848  0.29849274  1
  F  F479  1  0.78781842  0.75051951  0.79887199  1
