# generated using pymatgen
data_K24Na3Li5Mg64Fe17Si79(O5F)48
_symmetry_space_group_name_H-M   'P 1'
_cell_length_a   16.08915343
_cell_length_b   18.57350503
_cell_length_c   20.54151426
_cell_angle_alpha   90.02047791
_cell_angle_beta   100.01940853
_cell_angle_gamma   89.98597828
_symmetry_Int_Tables_number   1
_chemical_formula_structural   K24Na3Li5Mg64Fe17Si79(O5F)48
_chemical_formula_sum   'K24 Na3 Li5 Mg64 Fe17 Si79 O240 F48'
_cell_volume   6044.84228447
_cell_formula_units_Z   1
loop_
 _symmetry_equiv_pos_site_id
 _symmetry_equiv_pos_as_xyz
  1  'x, y, z'
loop_
 _atom_site_type_symbol
 _atom_site_label
 _atom_site_symmetry_multiplicity
 _atom_site_fract_x
 _atom_site_fract_y
 _atom_site_fract_z
 _atom_site_occupancy
  K  K0  1  -0.00713592  -0.00174143  0.00568506  1
  K  K1  1  -0.00669327  0.00721509  0.49240802  1
  K  K2  1  0.00305094  0.50073849  0.00442846  1
  K  K3  1  0.00702485  0.49333488  0.49535444  1
  K  K4  1  0.33879730  0.00126516  -0.00280301  1
  K  K5  1  0.33903132  0.00056149  0.50789228  1
  K  K6  1  0.32949883  0.49750743  0.00162144  1
  K  K7  1  0.33655179  0.49515094  0.48671893  1
  K  K8  1  0.66796171  0.00730701  -0.00270896  1
  K  K9  1  0.66905237  -0.00039235  0.49862519  1
  K  K10  1  0.67237866  0.50011512  0.00128786  1
  K  K11  1  0.65523839  0.49585972  0.50316423  1
  K  K12  1  0.17676253  0.26030932  -0.00124000  1
  K  K13  1  0.16294153  0.25975442  0.50033958  1
  K  K14  1  0.16436102  0.74446940  0.00875838  1
  K  K15  1  0.17243274  0.75390639  0.49114865  1
  K  K16  1  0.49116849  0.24509937  -0.00424345  1
  K  K17  1  0.50155792  0.25989158  0.50289207  1
  K  K18  1  0.50182958  0.74186160  0.00153928  1
  K  K19  1  0.49669916  0.74795183  0.49996547  1
  K  K20  1  0.82870213  0.24497379  0.00387440  1
  K  K21  1  0.83174223  0.24782655  0.49383134  1
  K  K22  1  0.83145372  0.74649610  0.00376218  1
  K  K23  1  0.82589813  0.74535412  0.49479292  1
  Na  Na24  1  0.17299258  0.50228007  0.26017775  1
  Na  Na25  1  0.16916501  0.66790593  0.26021478  1
  Na  Na26  1  0.33218760  0.57977641  0.25808955  1
  Li  Li27  1  0.83307980  0.00462630  0.24667621  1
  Li  Li28  1  0.83212280  0.49724714  0.75958055  1
  Li  Li29  1  0.33244597  0.08884953  0.75481121  1
  Li  Li30  1  0.17400129  0.16701374  0.75248113  1
  Li  Li31  1  0.66025841  0.58089986  0.24567958  1
  Mg  Mg32  1  0.83397398  0.00172826  0.74831627  1
  Mg  Mg33  1  0.16459212  0.49973829  0.75217794  1
  Mg  Mg34  1  0.49983881  0.49935760  0.74955848  1
  Mg  Mg35  1  -0.00064722  0.75079984  0.74872526  1
  Mg  Mg36  1  0.50125047  -0.00220412  0.24998637  1
  Mg  Mg37  1  0.66822921  0.24917309  0.24776948  1
  Mg  Mg38  1  0.00044119  0.74935969  0.25187701  1
  Mg  Mg39  1  0.17176570  0.00457694  0.74895184  1
  Mg  Mg40  1  0.00266189  0.25075209  0.75178618  1
  Mg  Mg41  1  0.33534422  0.24902620  0.25015904  1
  Mg  Mg42  1  0.00084302  0.25156594  0.25213091  1
  Mg  Mg43  1  0.32763723  0.24700173  0.75145127  1
  Mg  Mg44  1  0.50249928  0.49998525  0.24962395  1
  Mg  Mg45  1  0.16501168  0.00072655  0.24880352  1
  Mg  Mg46  1  0.66511515  0.74391063  0.25019339  1
  Mg  Mg47  1  0.66723210  0.74947986  0.74999033  1
  Mg  Mg48  1  0.33418962  0.74994320  0.74858094  1
  Mg  Mg49  1  0.49695155  0.00022146  0.74676442  1
  Mg  Mg50  1  0.83072503  0.50022604  0.25016870  1
  Mg  Mg51  1  0.33205079  0.75011099  0.24888725  1
  Mg  Mg52  1  0.66598340  0.25227733  0.74848398  1
  Mg  Mg53  1  0.33197427  0.08286773  0.24772895  1
  Mg  Mg54  1  -0.00300268  0.41683794  0.75433730  1
  Mg  Mg55  1  0.33671787  0.91843564  0.74868965  1
  Mg  Mg56  1  0.83311401  0.83563874  0.74753362  1
  Mg  Mg57  1  0.66469286  0.91620324  0.74704014  1
  Mg  Mg58  1  0.33339031  0.41400192  0.75111406  1
  Mg  Mg59  1  0.16523574  0.16663928  0.24863400  1
  Mg  Mg60  1  0.50116656  0.16435834  0.24908944  1
  Mg  Mg61  1  0.83493676  0.33763958  0.75061314  1
  Mg  Mg62  1  0.66795536  0.41820088  0.74853933  1
  Mg  Mg63  1  0.49697315  0.66212096  0.25092864  1
  Mg  Mg64  1  0.83193424  0.16226729  0.24861572  1
  Mg  Mg65  1  0.66460107  0.08573842  0.74654690  1
  Mg  Mg66  1  0.83177868  0.83512978  0.25112639  1
  Mg  Mg67  1  0.83642434  0.16849209  0.74901640  1
  Mg  Mg68  1  0.49897995  0.83162027  0.24946328  1
  Mg  Mg69  1  0.00521885  0.08611838  0.74907904  1
  Mg  Mg70  1  0.16728609  0.33186530  0.75295719  1
  Mg  Mg71  1  0.83030714  0.66431271  0.25110343  1
  Mg  Mg72  1  -0.00390124  0.58383239  0.75060810  1
  Mg  Mg73  1  0.67020886  0.08107997  0.24790878  1
  Mg  Mg74  1  0.66516585  0.41745008  0.24522320  1
  Mg  Mg75  1  0.50356210  0.83519321  0.74863074  1
  Mg  Mg76  1  0.00315078  0.58230931  0.25608822  1
  Mg  Mg77  1  0.49876164  0.33473365  0.74939121  1
  Mg  Mg78  1  -0.00466126  0.91799374  0.24800345  1
  Mg  Mg79  1  0.83155911  0.33335169  0.25044414  1
  Mg  Mg80  1  0.16661265  0.66664723  0.74915199  1
  Mg  Mg81  1  0.00212689  0.41735976  0.25392693  1
  Mg  Mg82  1  0.16852828  0.83558355  0.74777867  1
  Mg  Mg83  1  0.32999285  0.91621986  0.24963104  1
  Mg  Mg84  1  0.66956712  0.91460382  0.25255804  1
  Mg  Mg85  1  0.49503946  0.16488249  0.74837532  1
  Mg  Mg86  1  0.16608468  0.83588444  0.25151003  1
  Mg  Mg87  1  0.67104093  0.58165880  0.74947795  1
  Mg  Mg88  1  0.50023350  0.33373764  0.24612569  1
  Mg  Mg89  1  0.50317419  0.66460534  0.75175621  1
  Mg  Mg90  1  0.33531454  0.58296875  0.75090106  1
  Mg  Mg91  1  0.83327761  0.66364747  0.74993227  1
  Mg  Mg92  1  0.33582895  0.41436295  0.25246583  1
  Mg  Mg93  1  -0.00419220  0.08397461  0.25003764  1
  Mg  Mg94  1  0.16949342  0.33634406  0.25209357  1
  Mg  Mg95  1  0.00256336  0.91825072  0.74768154  1
  Fe  Fe96  1  0.30610459  0.33528595  0.89077724  1
  Fe  Fe97  1  0.47803706  0.58242854  0.88904896  1
  Fe  Fe98  1  0.14595864  0.41588129  0.39541154  1
  Fe  Fe99  1  0.51668315  0.58385804  0.10962921  1
  Fe  Fe100  1  0.86065333  0.08419337  0.10802659  1
  Fe  Fe101  1  0.47374309  0.07976351  0.88722034  1
  Fe  Fe102  1  0.52452360  0.91899218  0.60528431  1
  Fe  Fe103  1  0.64612298  0.83165708  0.88875560  1
  Fe  Fe104  1  0.36095902  0.32931310  0.11085949  1
  Fe  Fe105  1  0.52398160  0.41812532  0.60808171  1
  Fe  Fe106  1  0.69112109  0.33415905  0.10913844  1
  Fe  Fe107  1  0.80642000  0.07853006  0.38961310  1
  Fe  Fe108  1  0.81231450  0.58054265  0.88986609  1
  Fe  Fe109  1  0.18660487  0.91897944  0.10980130  1
  Fe  Fe110  1  0.31448534  0.67374517  0.39863579  1
  Fe  Fe111  1  0.80726154  0.41121913  0.89240812  1
  Fe  Fe112  1  0.97622197  0.32822089  0.89224164  1
  Si  Si113  1  0.13654598  0.92119229  0.38561420  1
  Si  Si114  1  0.97594598  0.16783744  0.38879016  1
  Si  Si115  1  0.14052758  0.08663449  0.38519435  1
  Si  Si116  1  0.52489740  0.41631806  0.10980869  1
  Si  Si117  1  0.35380132  0.83197487  0.61105158  1
  Si  Si118  1  0.97278983  0.66674812  0.38992446  1
  Si  Si119  1  0.02235907  0.66178480  0.11823471  1
  Si  Si120  1  0.85903078  0.58185665  0.11814387  1
  Si  Si121  1  0.19006722  0.58520542  0.11697110  1
  Si  Si122  1  0.14338180  0.91676553  0.88244654  1
  Si  Si123  1  0.18873099  0.41781101  0.61586930  1
  Si  Si124  1  0.86383299  0.91823266  0.61197456  1
  Si  Si125  1  0.35261649  0.33324577  0.61104654  1
  Si  Si126  1  0.47373964  0.90961158  0.88824696  1
  Si  Si127  1  0.03002401  0.17424814  0.11301192  1
  Si  Si128  1  0.02774312  0.83396712  0.61209607  1
  Si  Si129  1  0.31102187  0.16066439  0.38528021  1
  Si  Si130  1  0.30324710  0.16415225  0.88917532  1
  Si  Si131  1  0.30455445  0.66710624  0.88511388  1
  Si  Si132  1  0.81157946  0.92172356  0.88412822  1
  Si  Si133  1  0.63692582  0.33124072  0.88425402  1
  Si  Si134  1  0.30553698  0.83224392  0.88274349  1
  Si  Si135  1  0.64533140  0.66551023  0.88668468  1
  Si  Si136  1  0.80753962  0.58475008  0.38628820  1
  Si  Si137  1  0.18772553  0.08665248  0.11363039  1
  Si  Si138  1  0.80486002  0.90817008  0.39015999  1
  Si  Si139  1  0.14019023  0.07847624  0.88378557  1
  Si  Si140  1  0.02552796  0.16791410  0.61399117  1
  Si  Si141  1  0.86360165  0.41823024  0.61392786  1
  Si  Si142  1  0.48022590  0.57852632  0.39170908  1
  Si  Si143  1  0.63964115  0.66288615  0.38711019  1
  Si  Si144  1  0.03010382  0.33905141  0.11715408  1
  Si  Si145  1  0.31364317  0.32602718  0.38976280  1
  Si  Si146  1  0.13535764  0.42499708  0.88886106  1
  Si  Si147  1  0.52436585  0.07600162  0.11560223  1
  Si  Si148  1  0.63938434  0.16861722  0.38684429  1
  Si  Si149  1  0.13765456  0.58693411  0.39904380  1
  Si  Si150  1  0.69833791  0.33364586  0.60979709  1
  Si  Si151  1  0.19110044  0.58300639  0.61480029  1
  Si  Si152  1  0.86358823  0.41620227  0.11649124  1
  Si  Si153  1  0.19059749  0.08391672  0.61434009  1
  Si  Si154  1  0.69477647  0.16847278  0.61184457  1
  Si  Si155  1  0.97053371  0.33401443  0.39002379  1
  Si  Si156  1  0.52557971  0.59082246  0.61099366  1
  Si  Si157  1  0.69901242  0.83379874  0.60841791  1
  Si  Si158  1  0.80534104  0.41918625  0.38611925  1
  Si  Si159  1  0.35708623  0.15835809  0.11320468  1
  Si  Si160  1  0.52759982  0.91056077  0.11661440  1
  Si  Si161  1  0.64167831  0.33427317  0.38409845  1
  Si  Si162  1  0.47731381  0.41270775  0.38545488  1
  Si  Si163  1  0.69597714  0.66804201  0.61219498  1
  Si  Si164  1  0.35503703  0.66700268  0.61421953  1
  Si  Si165  1  0.19106256  0.91887464  0.61213327  1
  Si  Si166  1  0.86163989  0.58429526  0.61248794  1
  Si  Si167  1  0.13742864  0.59048545  0.88374503  1
  Si  Si168  1  0.68343690  0.16488505  0.10877371  1
  Si  Si169  1  0.19686607  0.41956986  0.11435660  1
  Si  Si170  1  0.85724897  0.91179517  0.11293425  1
  Si  Si171  1  0.35794356  0.83683549  0.11348951  1
  Si  Si172  1  0.47787895  0.41436252  0.88715003  1
  Si  Si173  1  0.47747043  0.92024942  0.38509783  1
  Si  Si174  1  0.64484500  0.16693122  0.88405058  1
  Si  Si175  1  0.69325893  0.66441375  0.11420230  1
  Si  Si176  1  0.97414633  0.67444734  0.88608252  1
  Si  Si177  1  0.30987179  0.84462196  0.39099832  1
  Si  Si178  1  0.69254668  0.82971568  0.11636191  1
  Si  Si179  1  0.97734205  0.83861613  0.88249167  1
  Si  Si180  1  0.97418485  0.83251999  0.38630690  1
  Si  Si181  1  0.35174617  0.67301939  0.11185739  1
  Si  Si182  1  0.98206797  0.16155681  0.88624875  1
  Si  Si183  1  0.86061314  0.08426090  0.61288052  1
  Si  Si184  1  0.81257404  0.08676994  0.88146286  1
  Si  Si185  1  0.02139619  0.82676605  0.11286221  1
  Si  Si186  1  0.52301544  0.09191557  0.60792503  1
  Si  Si187  1  0.47686828  0.08381767  0.38396973  1
  Si  Si188  1  0.02576483  0.33354007  0.61457384  1
  Si  Si189  1  0.02527888  0.66794861  0.61236456  1
  Si  Si190  1  0.63732072  0.82720822  0.38704816  1
  Si  Si191  1  0.35309811  0.16934811  0.61342603  1
  O  O192  1  0.27778756  0.10266109  0.08846451  1
  O  O193  1  0.26889529  0.11998777  0.58271564  1
  O  O194  1  0.26430963  0.62631911  0.08338097  1
  O  O195  1  0.27167626  0.61668022  0.58573449  1
  O  O196  1  0.60384540  0.10687400  0.08523454  1
  O  O197  1  0.60090763  0.13639996  0.58071483  1
  O  O198  1  0.61481890  0.61715792  0.07847777  1
  O  O199  1  0.60251321  0.63493511  0.58230592  1
  O  O200  1  0.95562690  0.12302876  0.07546889  1
  O  O201  1  0.93510227  0.12672790  0.58223848  1
  O  O202  1  0.94001325  0.61195857  0.08722620  1
  O  O203  1  0.93672544  0.62687269  0.58015120  1
  O  O204  1  0.11017297  0.37135371  0.08727039  1
  O  O205  1  0.10217060  0.37351433  0.58441889  1
  O  O206  1  0.09668819  0.85621193  0.07677145  1
  O  O207  1  0.10454103  0.87277091  0.58220244  1
  O  O208  1  0.46220187  0.34940128  0.08233135  1
  O  O209  1  0.42440674  0.36626732  0.57340410  1
  O  O210  1  0.44769700  0.85835265  0.08788273  1
  O  O211  1  0.42676147  0.86329367  0.57415135  1
  O  O212  1  0.79251191  0.36118695  0.08109717  1
  O  O213  1  0.77597203  0.37620016  0.58184031  1
  O  O214  1  0.77202928  0.86265463  0.08654777  1
  O  O215  1  0.77931410  0.87336224  0.58056572  1
  O  O216  1  0.27011583  0.38971629  0.07627470  1
  O  O217  1  0.26450961  0.37956657  0.58509943  1
  O  O218  1  0.28778116  0.89456239  0.07990103  1
  O  O219  1  0.26682606  0.87900977  0.58219463  1
  O  O220  1  0.61334823  0.40681251  0.08172762  1
  O  O221  1  0.61135521  0.36986131  0.57307855  1
  O  O222  1  0.60903427  0.87909879  0.08748888  1
  O  O223  1  0.61470264  0.87352540  0.57184152  1
  O  O224  1  0.95200331  0.39411136  0.09076555  1
  O  O225  1  0.93905407  0.37698184  0.58214378  1
  O  O226  1  0.93387311  0.87046179  0.08317012  1
  O  O227  1  0.94211381  0.87985208  0.58272942  1
  O  O228  1  0.12110797  0.15298789  0.09010341  1
  O  O229  1  0.10136551  0.12688306  0.58303421  1
  O  O230  1  0.10128452  0.62978099  0.08578318  1
  O  O231  1  0.10516668  0.62996550  0.58513216  1
  O  O232  1  0.43862167  0.12113971  0.08646333  1
  O  O233  1  0.43435774  0.13771968  0.58196657  1
  O  O234  1  0.42602358  0.64556802  0.07410944  1
  O  O235  1  0.43807519  0.63879232  0.58542689  1
  O  O236  1  0.76104454  0.13555407  0.07484896  1
  O  O237  1  0.76803640  0.12013865  0.58384284  1
  O  O238  1  0.77941425  0.63440245  0.08808092  1
  O  O239  1  0.76956521  0.62199713  0.58215755  1
  O  O240  1  0.07212330  0.13481461  0.41662931  1
  O  O241  1  0.05176074  0.09664408  0.91094581  1
  O  O242  1  0.05365656  0.62174871  0.42797590  1
  O  O243  1  0.05680997  0.62285525  0.91357297  1
  O  O244  1  0.39296685  0.10910932  0.41370611  1
  O  O245  1  0.37813489  0.10880606  0.92180560  1
  O  O246  1  0.41181415  0.61639269  0.42981456  1
  O  O247  1  0.37639193  0.61194069  0.91778655  1
  O  O248  1  0.71757284  0.12261033  0.42578357  1
  O  O249  1  0.73061102  0.11671314  0.91021455  1
  O  O250  1  0.73202972  0.62580431  0.41673824  1
  O  O251  1  0.70861236  0.60069611  0.91650265  1
  O  O252  1  0.24338118  0.35905051  0.42847795  1
  O  O253  1  0.21326523  0.37505209  0.92214866  1
  O  O254  1  0.22844364  0.88576943  0.41692812  1
  O  O255  1  0.22038305  0.86070563  0.91003861  1
  O  O256  1  0.56562110  0.37022089  0.41684250  1
  O  O257  1  0.54512490  0.34639427  0.90721494  1
  O  O258  1  0.55954852  0.86941207  0.41475513  1
  O  O259  1  0.54325997  0.84926203  0.91797383  1
  O  O260  1  0.88909384  0.37198894  0.41742093  1
  O  O261  1  0.87897695  0.33689707  0.92643643  1
  O  O262  1  0.89486525  0.86463524  0.41815649  1
  O  O263  1  0.89635349  0.87127594  0.91124623  1
  O  O264  1  0.05361681  0.37356027  0.42906362  1
  O  O265  1  0.05171513  0.40516781  0.91888890  1
  O  O266  1  0.06102477  0.87859159  0.41611587  1
  O  O267  1  0.05842565  0.89068631  0.91042310  1
  O  O268  1  0.40424669  0.36823697  0.41576869  1
  O  O269  1  0.39631936  0.39724856  0.92115878  1
  O  O270  1  0.39348013  0.89821149  0.41561872  1
  O  O271  1  0.38308431  0.88533063  0.91262940  1
  O  O272  1  0.72669163  0.38111639  0.41507439  1
  O  O273  1  0.70308467  0.38965968  0.91991552  1
  O  O274  1  0.72859927  0.86350676  0.41920094  1
  O  O275  1  0.73453640  0.89852122  0.91969790  1
  O  O276  1  0.23301480  0.12245050  0.41495440  1
  O  O277  1  0.21504417  0.13366775  0.91453010  1
  O  O278  1  0.21624587  0.63972320  0.42817269  1
  O  O279  1  0.21506417  0.64628384  0.91029535  1
  O  O280  1  0.55265296  0.13978758  0.41308855  1
  O  O281  1  0.57064105  0.13685976  0.92003984  1
  O  O282  1  0.57342928  0.61615825  0.42230926  1
  O  O283  1  0.55570783  0.65667950  0.91336361  1
  O  O284  1  0.91162461  0.12204331  0.42483085  1
  O  O285  1  0.89359248  0.13717295  0.91144117  1
  O  O286  1  0.89183201  0.63198924  0.41902390  1
  O  O287  1  0.89566297  0.65366742  0.92035946  1
  O  O288  1  0.15001368  0.01222199  0.07999698  1
  O  O289  1  0.17849008  0.00094081  0.58178890  1
  O  O290  1  0.17585851  0.50270871  0.08574899  1
  O  O291  1  0.17481787  0.50066494  0.58677204  1
  O  O292  1  0.50772094  -0.00731335  0.08842099  1
  O  O293  1  0.51294969  0.01461080  0.57063043  1
  O  O294  1  0.48118189  0.49155809  0.08085973  1
  O  O295  1  0.51484130  0.51364871  0.57412747  1
  O  O296  1  0.84393795  -0.01140577  0.07582061  1
  O  O297  1  0.85720031  0.00124273  0.58354924  1
  O  O298  1  0.84038174  0.49962319  0.09068497  1
  O  O299  1  0.85844848  0.50134859  0.58370815  1
  O  O300  1  0.00960267  0.25773972  0.08684666  1
  O  O301  1  0.01796391  0.25077585  0.58378912  1
  O  O302  1  0.00282593  0.74302434  0.08689182  1
  O  O303  1  0.01668521  0.75128793  0.58297985  1
  O  O304  1  0.33402608  0.23471724  0.07891603  1
  O  O305  1  0.33176185  0.25025892  0.58194156  1
  O  O306  1  0.32837655  0.75686609  0.08422624  1
  O  O307  1  0.33099103  0.74833452  0.58543463  1
  O  O308  1  0.65174739  0.24242212  0.07788066  1
  O  O309  1  0.70209837  0.24941319  0.58154807  1
  O  O310  1  0.67795031  0.74855409  0.08572206  1
  O  O311  1  0.70083378  0.74965970  0.58139995  1
  O  O312  1  0.13829003  0.00424800  0.41525374  1
  O  O313  1  0.16857387  -0.00332959  0.91273701  1
  O  O314  1  0.15548235  0.50814019  0.43443384  1
  O  O315  1  0.16071722  0.51017348  0.91253519  1
  O  O316  1  0.50329592  0.00243481  0.41225251  1
  O  O317  1  0.50043277  -0.01340707  0.92271383  1
  O  O318  1  0.48812816  0.49331388  0.41822589  1
  O  O319  1  0.51905765  0.49050673  0.91604335  1
  O  O320  1  0.81308690  -0.01513844  0.42739205  1
  O  O321  1  0.83820652  0.00496367  0.90827452  1
  O  O322  1  0.81723529  0.50177811  0.41694186  1
  O  O323  1  0.85311185  0.49626181  0.93062376  1
  O  O324  1  0.33093973  0.24092091  0.41677907  1
  O  O325  1  0.32266430  0.24204711  0.92528721  1
  O  O326  1  0.32792675  0.77118506  0.43240503  1
  O  O327  1  0.32526797  0.75066835  0.91173682  1
  O  O328  1  0.65421493  0.25233681  0.41458730  1
  O  O329  1  0.66886851  0.24940998  0.90996252  1
  O  O330  1  0.64122664  0.74563572  0.41891996  1
  O  O331  1  0.68964102  0.74138083  0.91537215  1
  O  O332  1  0.97466827  0.25032225  0.41821804  1
  O  O333  1  1.01923758  0.23502037  0.92047775  1
  O  O334  1  0.98711986  0.75070481  0.41732991  1
  O  O335  1  1.00316803  0.75792025  0.91077932  1
  O  O336  1  0.20802306  0.08399603  0.19528775  1
  O  O337  1  0.20767855  0.08162742  0.69286770  1
  O  O338  1  0.20775695  0.58565558  0.19427739  1
  O  O339  1  0.20811856  0.58467339  0.69521023  1
  O  O340  1  0.54308114  0.07936129  0.19640649  1
  O  O341  1  0.54438007  0.08703489  0.68832679  1
  O  O342  1  0.54014096  0.58382082  0.20028182  1
  O  O343  1  0.54474102  0.58706052  0.69132059  1
  O  O344  1  0.88103584  0.08599583  0.19845086  1
  O  O345  1  0.87870495  0.08372991  0.69307454  1
  O  O346  1  0.87624321  0.58378803  0.19864254  1
  O  O347  1  0.88277751  0.59160699  0.69117301  1
  O  O348  1  0.04499051  0.33324457  0.19755819  1
  O  O349  1  0.04407573  0.33452367  0.69429591  1
  O  O350  1  0.04047640  0.83306651  0.19385231  1
  O  O351  1  0.04443117  0.83430943  0.69249107  1
  O  O352  1  0.37928696  0.32898170  0.20281795  1
  O  O353  1  0.37522614  0.33406275  0.69140514  1
  O  O354  1  0.37678763  0.83731000  0.19490376  1
  O  O355  1  0.37384181  0.83288578  0.69190367  1
  O  O356  1  0.71251945  0.33192191  0.20162743  1
  O  O357  1  0.71112146  0.33178773  0.69007565  1
  O  O358  1  0.70891822  0.83077904  0.19705221  1
  O  O359  1  0.71493416  0.83592309  0.68908160  1
  O  O360  1  0.21773059  0.41038067  0.19404713  1
  O  O361  1  0.20571695  0.41890536  0.69577471  1
  O  O362  1  0.20941255  0.91935946  0.20179140  1
  O  O363  1  0.20809826  0.91681094  0.69226646  1
  O  O364  1  0.54391534  0.41470474  0.19230702  1
  O  O365  1  0.54296233  0.41623241  0.69908915  1
  O  O366  1  0.54484024  0.91315854  0.19735030  1
  O  O367  1  0.54425164  0.91850951  0.69652529  1
  O  O368  1  0.87774791  0.41514488  0.19772239  1
  O  O369  1  0.88131177  0.41603496  0.69293020  1
  O  O370  1  0.87642520  0.91225771  0.19359513  1
  O  O371  1  0.87973421  0.91791195  0.69235385  1
  O  O372  1  0.04332991  0.16918250  0.19442141  1
  O  O373  1  0.03824082  0.16705116  0.69307731  1
  O  O374  1  0.03354186  0.66592282  0.19762812  1
  O  O375  1  0.04272502  0.66909370  0.69272498  1
  O  O376  1  0.37739932  0.16207048  0.19465615  1
  O  O377  1  0.37404444  0.17043794  0.69258880  1
  O  O378  1  0.37865402  0.67529250  0.19153401  1
  O  O379  1  0.37257931  0.66705631  0.69437844  1
  O  O380  1  0.70518355  0.16523220  0.19063104  1
  O  O381  1  0.71149153  0.16673312  0.69214080  1
  O  O382  1  0.71169639  0.66814624  0.19459871  1
  O  O383  1  0.71258045  0.66950331  0.69212113  1
  O  O384  1  0.12316858  0.08505400  0.30489010  1
  O  O385  1  0.12150541  0.07725948  0.80389588  1
  O  O386  1  0.11138405  0.58390792  0.32021532  1
  O  O387  1  0.11988855  0.58833317  0.80275342  1
  O  O388  1  0.45702881  0.08200604  0.30365652  1
  O  O389  1  0.45773067  0.08118591  0.79618800  1
  O  O390  1  0.46769630  0.58186373  0.31243978  1
  O  O391  1  0.45467489  0.58303103  0.79658123  1
  O  O392  1  0.78544446  0.08380404  0.29960110  1
  O  O393  1  0.79213397  0.08542279  0.80054207  1
  O  O394  1  0.79381362  0.58355344  0.30718349  1
  O  O395  1  0.79042283  0.58532626  0.79802077  1
  O  O396  1  0.29104098  0.32543858  0.30948930  1
  O  O397  1  0.28781726  0.33389633  0.79870046  1
  O  O398  1  0.29174090  0.83985877  0.31058191  1
  O  O399  1  0.28849368  0.83247073  0.80176655  1
  O  O400  1  0.62306030  0.33178172  0.30429166  1
  O  O401  1  0.62307146  0.33161377  0.80283155  1
  O  O402  1  0.62197776  0.83045247  0.30688938  1
  O  O403  1  0.62598098  0.83346685  0.79636609  1
  O  O404  1  0.95446848  0.33335399  0.30916964  1
  O  O405  1  0.95534152  0.33147366  0.79932323  1
  O  O406  1  0.95485738  0.83446274  0.30623371  1
  O  O407  1  0.95828546  0.83710022  0.80149311  1
  O  O408  1  0.11833497  0.40682291  0.30606348  1
  O  O409  1  0.12095489  0.42070911  0.80690139  1
  O  O410  1  0.11908261  0.92029686  0.30570225  1
  O  O411  1  0.12394543  0.91630490  0.80167736  1
  O  O412  1  0.46298109  0.41225166  0.30601560  1
  O  O413  1  0.45449138  0.41623243  0.80513688  1
  O  O414  1  0.45788832  0.91699040  0.30480341  1
  O  O415  1  0.45585074  0.91304495  0.80635678  1
  O  O416  1  0.79012396  0.41799934  0.30640354  1
  O  O417  1  0.78568144  0.41358099  0.79982601  1
  O  O418  1  0.78604846  0.90856490  0.31018514  1
  O  O419  1  0.79288777  0.91852493  0.80258585  1
  O  O420  1  0.29109112  0.16280337  0.30492972  1
  O  O421  1  0.28995527  0.16813725  0.80917739  1
  O  O422  1  0.30137816  0.67999818  0.31164414  1
  O  O423  1  0.28781309  0.66802719  0.80357264  1
  O  O424  1  0.62362137  0.16493277  0.30598311  1
  O  O425  1  0.62480597  0.16595173  0.80259427  1
  O  O426  1  0.62129673  0.66887256  0.30807083  1
  O  O427  1  0.62641507  0.66660382  0.80379861  1
  O  O428  1  0.95947107  0.16754000  0.30828223  1
  O  O429  1  0.95939635  0.16397029  0.80473760  1
  O  O430  1  0.95467393  0.66745496  0.30969220  1
  O  O431  1  0.95807418  0.67146414  0.80464846  1
  F  F432  1  0.04407649  0.00110725  0.20172125  1
  F  F433  1  0.04560262  -0.00056677  0.69783522  1
  F  F434  1  0.03278723  0.50088551  0.20354819  1
  F  F435  1  0.04510196  0.50230612  0.70102003  1
  F  F436  1  0.37959286  -0.00098167  0.20303202  1
  F  F437  1  0.38018668  -0.00978248  0.69331272  1
  F  F438  1  0.38418546  0.49039951  0.20386796  1
  F  F439  1  0.37390566  0.49815071  0.69942752  1
  F  F440  1  0.70331862  -0.00553713  0.19994990  1
  F  F441  1  0.71444936  0.00131096  0.69853027  1
  F  F442  1  0.71518496  0.49816971  0.20139737  1
  F  F443  1  0.70092797  0.50034310  0.69308884  1
  F  F444  1  0.21299529  0.24853057  0.20470656  1
  F  F445  1  0.20923371  0.25273069  0.69785503  1
  F  F446  1  0.21461143  0.76338920  0.20094609  1
  F  F447  1  0.20992983  0.75036093  0.69924246  1
  F  F448  1  0.54567333  0.24601483  0.20306340  1
  F  F449  1  0.54495715  0.24902060  0.70005129  1
  F  F450  1  0.54606232  0.75042260  0.20241403  1
  F  F451  1  0.54493319  0.74813799  0.69900844  1
  F  F452  1  0.88021477  0.24979505  0.20551670  1
  F  F453  1  0.87959127  0.24752762  0.69857716  1
  F  F454  1  0.87750724  0.74990229  0.20606105  1
  F  F455  1  0.88115689  0.75328796  0.69877470  1
  F  F456  1  0.28870014  0.00330270  0.29989241  1
  F  F457  1  0.28681050  -0.00696911  0.79773846  1
  F  F458  1  0.30379571  0.48053276  0.31818700  1
  F  F459  1  0.28545728  0.50156604  0.79662830  1
  F  F460  1  0.62045102  -0.00239815  0.30017735  1
  F  F461  1  0.62403876  0.00293007  0.79389322  1
  F  F462  1  0.62201858  0.49131269  0.30077922  1
  F  F463  1  0.62077956  0.50202737  0.79520575  1
  F  F464  1  0.96211906  -0.00103487  0.30181006  1
  F  F465  1  0.95547099  0.00003872  0.79410515  1
  F  F466  1  0.94985634  0.49882760  0.30309690  1
  F  F467  1  0.95872115  0.50336781  0.79818795  1
  F  F468  1  0.12236169  0.24680270  0.29978022  1
  F  F469  1  0.11964599  0.25238755  0.79845221  1
  F  F470  1  0.11383267  0.76494713  0.30504412  1
  F  F471  1  0.12088709  0.75248197  0.79487168  1
  F  F472  1  0.45749482  0.24374550  0.30013852  1
  F  F473  1  0.45305991  0.24999596  0.79435624  1
  F  F474  1  0.45647675  0.75240191  0.29818461  1
  F  F475  1  0.45380039  0.75095675  0.79345993  1
  F  F476  1  0.78884344  0.24636580  0.29986040  1
  F  F477  1  0.78756566  0.24861133  0.79352636  1
  F  F478  1  0.78685174  0.74887927  0.30040711  1
  F  F479  1  0.79151215  0.75301284  0.79330493  1
