# generated using pymatgen
data_K24Na3Li5Mg64Fe17Si79(O5F)48
_symmetry_space_group_name_H-M   'P 1'
_cell_length_a   16.08060677
_cell_length_b   18.57358848
_cell_length_c   20.55697280
_cell_angle_alpha   89.98540331
_cell_angle_beta   99.98249344
_cell_angle_gamma   90.03034471
_symmetry_Int_Tables_number   1
_chemical_formula_structural   K24Na3Li5Mg64Fe17Si79(O5F)48
_chemical_formula_sum   'K24 Na3 Li5 Mg64 Fe17 Si79 O240 F48'
_cell_volume   6046.89157384
_cell_formula_units_Z   1
loop_
 _symmetry_equiv_pos_site_id
 _symmetry_equiv_pos_as_xyz
  1  'x, y, z'
loop_
 _atom_site_type_symbol
 _atom_site_label
 _atom_site_symmetry_multiplicity
 _atom_site_fract_x
 _atom_site_fract_y
 _atom_site_fract_z
 _atom_site_occupancy
  K  K0  1  -0.00890544  -0.00186948  0.00822036  1
  K  K1  1  -0.00399091  -0.00195523  0.49118500  1
  K  K2  1  -0.01596414  0.50233545  0.00169385  1
  K  K3  1  -0.00285848  0.49578243  0.49652880  1
  K  K4  1  0.33081919  -0.00602518  0.00039104  1
  K  K5  1  0.33724065  -0.00039197  0.49752407  1
  K  K6  1  0.33120893  0.50016123  -0.00553602  1
  K  K7  1  0.33243745  0.49326162  0.49898966  1
  K  K8  1  0.68412206  0.00490225  0.01280661  1
  K  K9  1  0.66430398  0.00492300  0.49935744  1
  K  K10  1  0.67840042  0.49523800  0.00176086  1
  K  K11  1  0.66790265  0.50449438  0.49976223  1
  K  K12  1  0.15802223  0.24922136  -0.00322341  1
  K  K13  1  0.17145228  0.25440636  0.49909700  1
  K  K14  1  0.15964516  0.74732864  -0.00116703  1
  K  K15  1  0.15246844  0.75069738  0.49748301  1
  K  K16  1  0.50245668  0.24013290  -0.00415195  1
  K  K17  1  0.49410013  0.25143264  0.50043360  1
  K  K18  1  0.50935049  0.75381441  -0.00179182  1
  K  K19  1  0.50909784  0.74742809  0.50251336  1
  K  K20  1  0.84058348  0.24745919  0.00898256  1
  K  K21  1  0.84310289  0.25191459  0.50099084  1
  K  K22  1  0.82961305  0.74869159  0.00080330  1
  K  K23  1  0.83093760  0.74860901  0.49760214  1
  Na  Na24  1  -0.00085546  0.25145183  0.74589458  1
  Na  Na25  1  0.83649978  0.17314826  0.74823971  1
  Na  Na26  1  0.66564545  0.41956698  0.74750030  1
  Li  Li27  1  0.16403098  0.50073515  0.24942396  1
  Li  Li28  1  0.16544131  0.49963748  0.74743375  1
  Li  Li29  1  0.84353734  0.33320741  0.24994460  1
  Li  Li30  1  0.50415671  0.83230933  0.75557099  1
  Li  Li31  1  -0.00104469  0.91562728  0.25611055  1
  Mg  Mg32  1  0.67171597  0.25151017  0.24451220  1
  Mg  Mg33  1  0.16354535  -0.00189643  0.25342000  1
  Mg  Mg34  1  0.83294775  0.00217404  0.75239889  1
  Mg  Mg35  1  0.33316371  0.25075163  0.74317396  1
  Mg  Mg36  1  -0.00303365  0.74932392  0.75597725  1
  Mg  Mg37  1  0.16536913  -0.00168048  0.75235702  1
  Mg  Mg38  1  0.00043056  0.75255984  0.25334220  1
  Mg  Mg39  1  0.33433370  0.75030643  0.25333731  1
  Mg  Mg40  1  0.83557543  0.49563883  0.25012445  1
  Mg  Mg41  1  0.66143332  0.75184505  0.75275058  1
  Mg  Mg42  1  0.50064754  -0.00119526  0.25239316  1
  Mg  Mg43  1  0.49989866  -0.00494936  0.75124346  1
  Mg  Mg44  1  -0.00263931  0.25087791  0.24578418  1
  Mg  Mg45  1  0.66659598  0.75123537  0.25362238  1
  Mg  Mg46  1  0.49907872  0.50090812  0.74734138  1
  Mg  Mg47  1  0.33242348  0.25096146  0.25011729  1
  Mg  Mg48  1  0.83768963  -0.00068480  0.24972479  1
  Mg  Mg49  1  0.50016037  0.50057711  0.25130025  1
  Mg  Mg50  1  0.66679581  0.25197544  0.74789747  1
  Mg  Mg51  1  0.83263249  0.50063524  0.75178488  1
  Mg  Mg52  1  0.33347494  0.74974129  0.75046381  1
  Mg  Mg53  1  0.00051315  0.41679782  0.24752704  1
  Mg  Mg54  1  0.50208109  0.16637902  0.25030705  1
  Mg  Mg55  1  0.16458847  0.33773422  0.24841158  1
  Mg  Mg56  1  0.50029058  0.16462851  0.74641934  1
  Mg  Mg57  1  0.50122913  0.66873819  0.75125774  1
  Mg  Mg58  1  0.83184008  0.83551913  0.75610587  1
  Mg  Mg59  1  0.67000489  0.91463170  0.25263010  1
  Mg  Mg60  1  0.33065923  0.41682918  0.74301409  1
  Mg  Mg61  1  0.50122987  0.33422904  0.24822483  1
  Mg  Mg62  1  0.50278788  0.83583625  0.25429295  1
  Mg  Mg63  1  0.33393431  0.91284943  0.75192075  1
  Mg  Mg64  1  0.16563630  0.16673623  0.74918136  1
  Mg  Mg65  1  0.66830584  0.58433265  0.25304221  1
  Mg  Mg66  1  0.16463402  0.66361324  0.75098739  1
  Mg  Mg67  1  -0.00106705  0.08273157  0.24982125  1
  Mg  Mg68  1  0.33522946  0.91551302  0.25601905  1
  Mg  Mg69  1  0.00266550  0.41846408  0.74775066  1
  Mg  Mg70  1  0.83352690  0.66572940  0.75493216  1
  Mg  Mg71  1  0.33010594  0.58242969  0.74926012  1
  Mg  Mg72  1  0.66675624  0.58540416  0.75417514  1
  Mg  Mg73  1  0.00211498  0.58210972  0.24783004  1
  Mg  Mg74  1  0.33222124  0.58236360  0.25170195  1
  Mg  Mg75  1  0.67079013  0.41467969  0.24710240  1
  Mg  Mg76  1  0.16667214  0.33625068  0.74497170  1
  Mg  Mg77  1  0.16457495  0.83338929  0.75294833  1
  Mg  Mg78  1  -0.00023029  0.91547497  0.75474034  1
  Mg  Mg79  1  0.50297248  0.66653168  0.25370712  1
  Mg  Mg80  1  0.33464010  0.08392765  0.25387789  1
  Mg  Mg81  1  0.33294399  0.08240871  0.74710420  1
  Mg  Mg82  1  0.83355342  0.33425478  0.74716655  1
  Mg  Mg83  1  0.67134760  0.08522170  0.24969419  1
  Mg  Mg84  1  0.83308802  0.66464851  0.25020696  1
  Mg  Mg85  1  0.49780776  0.33451018  0.74377456  1
  Mg  Mg86  1  0.33112305  0.41800181  0.24941740  1
  Mg  Mg87  1  0.66995409  0.08459558  0.75088284  1
  Mg  Mg88  1  0.83609056  0.16899581  0.24859933  1
  Mg  Mg89  1  0.16531127  0.16568581  0.25134859  1
  Mg  Mg90  1  0.83422826  0.83600860  0.25199578  1
  Mg  Mg91  1  0.00019770  0.08418761  0.75042740  1
  Mg  Mg92  1  0.16566838  0.83402228  0.25395262  1
  Mg  Mg93  1  0.16725497  0.66487345  0.24921375  1
  Mg  Mg94  1  0.66650630  0.91539114  0.75376766  1
  Mg  Mg95  1  0.00141962  0.58362411  0.75195948  1
  Fe  Fe96  1  0.86187003  0.08418757  0.10814449  1
  Fe  Fe97  1  0.80665013  0.92423429  0.89243238  1
  Fe  Fe98  1  0.64532355  0.66280042  0.39398847  1
  Fe  Fe99  1  0.46805622  0.92030186  0.39474571  1
  Fe  Fe100  1  0.98211701  0.33509858  0.38951736  1
  Fe  Fe101  1  0.13807373  0.91853314  0.89284181  1
  Fe  Fe102  1  0.68496763  0.16752117  0.10611679  1
  Fe  Fe103  1  0.80833413  0.92337451  0.39264484  1
  Fe  Fe104  1  0.97568748  0.66289037  0.89291598  1
  Fe  Fe105  1  0.13918911  0.91019325  0.39030874  1
  Fe  Fe106  1  0.63924171  0.83548355  0.39697957  1
  Fe  Fe107  1  0.63740134  0.83904451  0.89297192  1
  Fe  Fe108  1  0.98162004  0.16772567  0.39050949  1
  Fe  Fe109  1  0.68890554  0.83286074  0.11074522  1
  Fe  Fe110  1  0.35693095  0.33334176  0.60332394  1
  Fe  Fe111  1  0.85724753  0.41371496  0.10852479  1
  Fe  Fe112  1  0.64036329  0.66523745  0.89280766  1
  Si  Si113  1  0.19857549  0.08105026  0.11741639  1
  Si  Si114  1  0.02256664  0.83212889  0.61642187  1
  Si  Si115  1  0.64134893  0.33606664  0.38305622  1
  Si  Si116  1  0.69456643  0.66726099  0.61711623  1
  Si  Si117  1  0.52616476  0.58542675  0.61348463  1
  Si  Si118  1  0.14462409  0.41593231  0.88215716  1
  Si  Si119  1  0.03624496  0.16742376  0.11145126  1
  Si  Si120  1  0.96831506  0.82701774  0.39166658  1
  Si  Si121  1  0.02813636  0.66692076  0.11473308  1
  Si  Si122  1  0.35804639  0.83288915  0.61562950  1
  Si  Si123  1  0.97053088  0.83361198  0.89223643  1
  Si  Si124  1  0.35801909  0.66643225  0.61345215  1
  Si  Si125  1  0.14817129  0.07835808  0.39002544  1
  Si  Si126  1  0.81399871  0.09126511  0.88724661  1
  Si  Si127  1  0.19749489  0.91563657  0.11780984  1
  Si  Si128  1  0.36015007  0.83183270  0.11714794  1
  Si  Si129  1  0.46822925  0.58190770  0.88556305  1
  Si  Si130  1  0.85905549  0.91769781  0.61552631  1
  Si  Si131  1  0.63816758  0.33083933  0.88169846  1
  Si  Si132  1  0.30540086  0.33585573  0.38341480  1
  Si  Si133  1  0.69380016  0.33158334  0.61131848  1
  Si  Si134  1  0.35909195  0.16766100  0.11614967  1
  Si  Si135  1  0.30562083  0.66426917  0.88441001  1
  Si  Si136  1  0.35748591  0.15896162  0.60904804  1
  Si  Si137  1  0.14288224  0.58006017  0.88721641  1
  Si  Si138  1  0.19102547  0.91287673  0.61523640  1
  Si  Si139  1  0.02690013  0.16475179  0.61309178  1
  Si  Si140  1  0.35827061  0.33280587  0.11374662  1
  Si  Si141  1  0.81389687  0.57572261  0.38772105  1
  Si  Si142  1  0.52139480  0.58163340  0.11582561  1
  Si  Si143  1  0.80722826  0.41245668  0.38486670  1
  Si  Si144  1  0.51937416  0.41929623  0.11316064  1
  Si  Si145  1  0.47350796  0.41346222  0.38375829  1
  Si  Si146  1  0.85866240  0.41588140  0.61289434  1
  Si  Si147  1  0.47338928  0.08268905  0.88365665  1
  Si  Si148  1  0.86505701  0.90938595  0.11293068  1
  Si  Si149  1  0.47044431  0.57913155  0.38869964  1
  Si  Si150  1  0.30907625  0.33449778  0.88067535  1
  Si  Si151  1  0.46295046  0.91742345  0.88790723  1
  Si  Si152  1  0.18989633  0.58669452  0.61358221  1
  Si  Si153  1  0.30548774  0.17079417  0.38589122  1
  Si  Si154  1  0.14473028  0.42505482  0.38423705  1
  Si  Si155  1  0.35928648  0.66739283  0.11609315  1
  Si  Si156  1  0.85796697  0.58702073  0.11279854  1
  Si  Si157  1  0.52033718  0.91926247  0.11433218  1
  Si  Si158  1  0.03326334  0.33386048  0.10888881  1
  Si  Si159  1  0.02565679  0.33496345  0.61198000  1
  Si  Si160  1  0.81127208  0.40980875  0.88323796  1
  Si  Si161  1  0.30983625  0.66550064  0.38564875  1
  Si  Si162  1  0.30262327  0.82841207  0.88775719  1
  Si  Si163  1  0.14572886  0.08850288  0.88893322  1
  Si  Si164  1  0.52727294  0.07911139  0.61280772  1
  Si  Si165  1  0.03369160  0.83035414  0.11665391  1
  Si  Si166  1  0.85969553  0.08224711  0.61411217  1
  Si  Si167  1  0.97804163  0.33669997  0.88350487  1
  Si  Si168  1  0.30992120  0.17050192  0.88140542  1
  Si  Si169  1  0.69415111  0.83269691  0.61645837  1
  Si  Si170  1  0.47512184  0.41682143  0.88195426  1
  Si  Si171  1  0.52675767  0.41899660  0.60728412  1
  Si  Si172  1  0.19702327  0.41845818  0.11322831  1
  Si  Si173  1  0.67835381  0.33638541  0.10621617  1
  Si  Si174  1  0.80807436  0.09259539  0.38967904  1
  Si  Si175  1  0.02302479  0.66701235  0.61494788  1
  Si  Si176  1  0.52691305  0.91402700  0.61650319  1
  Si  Si177  1  0.47567344  0.09225047  0.38904761  1
  Si  Si178  1  0.19479715  0.58358845  0.11504002  1
  Si  Si179  1  0.97742136  0.66165530  0.38569348  1
  Si  Si180  1  0.14504110  0.58751093  0.38329541  1
  Si  Si181  1  0.80497766  0.57506499  0.89145404  1
  Si  Si182  1  0.98027234  0.17059822  0.88471479  1
  Si  Si183  1  0.18927807  0.07895879  0.61330879  1
  Si  Si184  1  0.68978220  0.16645701  0.61257627  1
  Si  Si185  1  0.30399372  0.82697798  0.39030605  1
  Si  Si186  1  0.51856198  0.08072803  0.11378865  1
  Si  Si187  1  0.64080567  0.16631803  0.88383980  1
  Si  Si188  1  0.64080784  0.17191822  0.38435067  1
  Si  Si189  1  0.18724989  0.41976697  0.60747136  1
  Si  Si190  1  0.68669584  0.66210955  0.11477425  1
  Si  Si191  1  0.85807436  0.58164456  0.61513775  1
  O  O192  1  0.27845350  0.11614591  0.08701163  1
  O  O193  1  0.27088209  0.11070882  0.58391038  1
  O  O194  1  0.27284505  0.62240897  0.08440327  1
  O  O195  1  0.26853359  0.62461972  0.58264173  1
  O  O196  1  0.59347736  0.10288746  0.07561925  1
  O  O197  1  0.60165767  0.12200062  0.58112679  1
  O  O198  1  0.60742517  0.60410338  0.08867084  1
  O  O199  1  0.60314965  0.62895836  0.58654730  1
  O  O200  1  0.95393429  0.12649667  0.07436849  1
  O  O201  1  0.93595163  0.12441948  0.58377500  1
  O  O202  1  0.93713048  0.62954577  0.08581741  1
  O  O203  1  0.93601169  0.62183574  0.58547050  1
  O  O204  1  0.11262346  0.37430219  0.08020728  1
  O  O205  1  0.09729662  0.37736917  0.57807293  1
  O  O206  1  0.11308844  0.86923283  0.08784050  1
  O  O207  1  0.10384428  0.86709725  0.58804754  1
  O  O208  1  0.43885659  0.36569859  0.08398174  1
  O  O209  1  0.44452097  0.37817045  0.56665699  1
  O  O210  1  0.43920761  0.86468753  0.08658576  1
  O  O211  1  0.43591183  0.87374832  0.58753809  1
  O  O212  1  0.75669928  0.36465265  0.07265270  1
  O  O213  1  0.77134815  0.37215097  0.58175816  1
  O  O214  1  0.78810024  0.85644543  0.08009956  1
  O  O215  1  0.77049400  0.87450955  0.58706943  1
  O  O216  1  0.27628481  0.38195599  0.08230164  1
  O  O217  1  0.25845819  0.38611299  0.56917924  1
  O  O218  1  0.27599109  0.87968866  0.08685676  1
  O  O219  1  0.26876368  0.87537297  0.58428435  1
  O  O220  1  0.59944802  0.39568902  0.08006397  1
  O  O221  1  0.60956401  0.38039576  0.58241629  1
  O  O222  1  0.59843515  0.89761256  0.07917844  1
  O  O223  1  0.60286927  0.87149469  0.58755164  1
  O  O224  1  0.94744646  0.37120160  0.07257608  1
  O  O225  1  0.93486892  0.37533815  0.58259634  1
  O  O226  1  0.94997858  0.87544160  0.08608388  1
  O  O227  1  0.93713351  0.87790317  0.58603658  1
  O  O228  1  0.11793649  0.12934950  0.08466501  1
  O  O229  1  0.10404293  0.12509685  0.58188727  1
  O  O230  1  0.10480962  0.62389782  0.08583325  1
  O  O231  1  0.10259371  0.63248977  0.58410583  1
  O  O232  1  0.43907117  0.13706948  0.08579978  1
  O  O233  1  0.43568577  0.11620222  0.58213916  1
  O  O234  1  0.44002054  0.63388535  0.08619203  1
  O  O235  1  0.43520680  0.62590055  0.58350032  1
  O  O236  1  0.77179103  0.13855147  0.06479733  1
  O  O237  1  0.76989181  0.12574950  0.58668298  1
  O  O238  1  0.77083162  0.63347733  0.08621841  1
  O  O239  1  0.76915111  0.62419248  0.58591617  1
  O  O240  1  0.06727403  0.09971766  0.42289790  1
  O  O241  1  0.06626828  0.12523361  0.91920228  1
  O  O242  1  0.06323611  0.61437870  0.41567868  1
  O  O243  1  0.06766238  0.60116848  0.92621672  1
  O  O244  1  0.39439775  0.13033762  0.41613674  1
  O  O245  1  0.39620116  0.12535137  0.91182075  1
  O  O246  1  0.38237547  0.60533253  0.41379503  1
  O  O247  1  0.38007227  0.60623728  0.91189542  1
  O  O248  1  0.71761194  0.11831588  0.41538976  1
  O  O249  1  0.72984026  0.12689107  0.91326025  1
  O  O250  1  0.73796937  0.60079626  0.42436769  1
  O  O251  1  0.72041332  0.59286606  0.92073642  1
  O  O252  1  0.23022645  0.37544221  0.41338328  1
  O  O253  1  0.22882312  0.36596703  0.91213878  1
  O  O254  1  0.21608791  0.83399340  0.41788683  1
  O  O255  1  0.22232660  0.84804576  0.92204076  1
  O  O256  1  0.55736111  0.36497540  0.41237640  1
  O  O257  1  0.56179424  0.37214056  0.91245757  1
  O  O258  1  0.54492617  0.85492704  0.43491615  1
  O  O259  1  0.53618122  0.86559141  0.92321723  1
  O  O260  1  0.87880639  0.35755914  0.41936536  1
  O  O261  1  0.89621363  0.36319903  0.91616765  1
  O  O262  1  0.88610550  0.84870208  0.42339713  1
  O  O263  1  0.88252283  0.84784973  0.91885648  1
  O  O264  1  0.06832031  0.40453689  0.42184771  1
  O  O265  1  0.06366803  0.38501360  0.91414498  1
  O  O266  1  0.04599686  0.87792635  0.42696595  1
  O  O267  1  0.03781512  0.89686591  0.92198788  1
  O  O268  1  0.39439971  0.37730961  0.41275004  1
  O  O269  1  0.39469118  0.38054398  0.91112900  1
  O  O270  1  0.36855937  0.88864016  0.42365123  1
  O  O271  1  0.37629202  0.88841398  0.91410630  1
  O  O272  1  0.71806796  0.39088029  0.41294884  1
  O  O273  1  0.72763860  0.37351137  0.90821213  1
  O  O274  1  0.71317231  0.90766046  0.42928410  1
  O  O275  1  0.70803213  0.91381395  0.92467413  1
  O  O276  1  0.22745302  0.13693362  0.41635408  1
  O  O277  1  0.22900447  0.14240638  0.91293096  1
  O  O278  1  0.22360051  0.64233326  0.41363966  1
  O  O279  1  0.22416706  0.63444682  0.91511277  1
  O  O280  1  0.55541471  0.14832874  0.41378482  1
  O  O281  1  0.56187454  0.12590667  0.91188074  1
  O  O282  1  0.54847385  0.62515750  0.42630766  1
  O  O283  1  0.54089986  0.63313688  0.92327980  1
  O  O284  1  0.87669089  0.15380381  0.41861056  1
  O  O285  1  0.89349380  0.14835779  0.91222921  1
  O  O286  1  0.90036912  0.62313743  0.41593584  1
  O  O287  1  0.88328562  0.62482665  0.92663246  1
  O  O288  1  0.18725913  -0.00161603  0.08847754  1
  O  O289  1  0.17600840  -0.00461659  0.58604764  1
  O  O290  1  0.18964040  0.50145452  0.08446538  1
  O  O291  1  0.17387984  0.50538407  0.58279422  1
  O  O292  1  0.48253261  -0.00003704  0.08976886  1
  O  O293  1  0.52247902  -0.00383358  0.58407501  1
  O  O294  1  0.49132582  0.50107322  0.08635849  1
  O  O295  1  0.52481249  0.50432903  0.58073876  1
  O  O296  1  0.85182816  -0.01175026  0.07835395  1
  O  O297  1  0.84990866  -0.00045030  0.58337400  1
  O  O298  1  0.84781864  0.51019820  0.07574849  1
  O  O299  1  0.84987528  0.49950989  0.58319975  1
  O  O300  1  0.03783905  0.25043441  0.08197820  1
  O  O301  1  0.01911682  0.24957775  0.58777863  1
  O  O302  1  0.02780148  0.74839225  0.08383983  1
  O  O303  1  0.01018039  0.74979134  0.58551017  1
  O  O304  1  0.34010461  0.24997783  0.08603932  1
  O  O305  1  0.34666692  0.23622699  0.57268466  1
  O  O306  1  0.34374026  0.74956832  0.08718482  1
  O  O307  1  0.35099639  0.74988630  0.58515103  1
  O  O308  1  0.64337669  0.25946929  0.07542590  1
  O  O309  1  0.68119977  0.24866335  0.57959954  1
  O  O310  1  0.65518457  0.73812994  0.08252976  1
  O  O311  1  0.69018810  0.74969803  0.58742162  1
  O  O312  1  0.18383952  0.00103672  0.42024460  1
  O  O313  1  0.17170290  0.01232920  0.92456860  1
  O  O314  1  0.17535687  0.50739984  0.41102380  1
  O  O315  1  0.17207250  0.49660817  0.91141960  1
  O  O316  1  0.49412956  0.01659681  0.42633389  1
  O  O317  1  0.47577039  0.00223028  0.91563255  1
  O  O318  1  0.48513388  0.49445547  0.41473640  1
  O  O319  1  0.48426812  0.49792101  0.91311643  1
  O  O320  1  0.83867699  0.01687216  0.42552247  1
  O  O321  1  0.84345731  0.01701871  0.92462301  1
  O  O322  1  0.83700691  0.49315263  0.41454566  1
  O  O323  1  0.82779730  0.49012477  0.91559356  1
  O  O324  1  0.31687707  0.25413882  0.41358829  1
  O  O325  1  0.32823509  0.25270981  0.91021204  1
  O  O326  1  0.34229553  0.74463051  0.41389898  1
  O  O327  1  0.33287674  0.74535537  0.91303408  1
  O  O328  1  0.66226996  0.25466859  0.41287225  1
  O  O329  1  0.64423624  0.24898409  0.91371239  1
  O  O330  1  0.67686083  0.74786580  0.43566339  1
  O  O331  1  0.67403676  0.75177210  0.93216572  1
  O  O332  1  1.02292458  0.25211706  0.43235529  1
  O  O333  1  1.00121184  0.25444437  0.91096224  1
  O  O334  1  0.99313086  0.74185397  0.41804815  1
  O  O335  1  1.00955312  0.75600152  0.92068550  1
  O  O336  1  0.21530469  0.08395204  0.19750804  1
  O  O337  1  0.20917079  0.08116919  0.69393197  1
  O  O338  1  0.21447338  0.58593598  0.19449987  1
  O  O339  1  0.21007389  0.58823476  0.69309146  1
  O  O340  1  0.53922107  0.08459806  0.19477184  1
  O  O341  1  0.54265645  0.08208045  0.69303185  1
  O  O342  1  0.53842358  0.58171503  0.19606710  1
  O  O343  1  0.54017121  0.58334942  0.69318112  1
  O  O344  1  0.87735529  0.08320865  0.19976531  1
  O  O345  1  0.88099061  0.07742318  0.69310044  1
  O  O346  1  0.87713824  0.58447353  0.19381189  1
  O  O347  1  0.87660045  0.58268977  0.69497035  1
  O  O348  1  0.04916534  0.33579845  0.18936530  1
  O  O349  1  0.04843814  0.34234724  0.69077524  1
  O  O350  1  0.05006005  0.82512140  0.19575881  1
  O  O351  1  0.04037760  0.83086809  0.69651207  1
  O  O352  1  0.37627436  0.33404945  0.19410572  1
  O  O353  1  0.37658478  0.33291331  0.69507992  1
  O  O354  1  0.37563922  0.83141065  0.19727259  1
  O  O355  1  0.36946728  0.83223350  0.69497951  1
  O  O356  1  0.69494400  0.33632873  0.18669428  1
  O  O357  1  0.71105942  0.32822562  0.69022780  1
  O  O358  1  0.71123728  0.83092503  0.20202570  1
  O  O359  1  0.71139422  0.83278328  0.69611645  1
  O  O360  1  0.21511132  0.41463326  0.19265259  1
  O  O361  1  0.21102043  0.41420578  0.68733186  1
  O  O362  1  0.21586738  0.91567985  0.19771492  1
  O  O363  1  0.21063830  0.91435912  0.69543964  1
  O  O364  1  0.53814538  0.41782651  0.19360747  1
  O  O365  1  0.53163532  0.41792089  0.68663260  1
  O  O366  1  0.54077309  0.91773703  0.19490590  1
  O  O367  1  0.54415752  0.91934005  0.69562510  1
  O  O368  1  0.88015106  0.41931106  0.19842377  1
  O  O369  1  0.87626369  0.41971869  0.69265166  1
  O  O370  1  0.87890048  0.91233406  0.19338557  1
  O  O371  1  0.87907779  0.91684108  0.69555013  1
  O  O372  1  0.05041025  0.16828033  0.19195122  1
  O  O373  1  0.04959690  0.15797405  0.69209323  1
  O  O374  1  0.04563543  0.66607836  0.19484795  1
  O  O375  1  0.04286495  0.66695511  0.69477850  1
  O  O376  1  0.37656102  0.16858892  0.19657309  1
  O  O377  1  0.37601491  0.16282568  0.69011928  1
  O  O378  1  0.37683280  0.66507971  0.19638316  1
  O  O379  1  0.37421588  0.66523569  0.69358592  1
  O  O380  1  0.70969593  0.16656044  0.19820328  1
  O  O381  1  0.69853997  0.16751219  0.69158004  1
  O  O382  1  0.70910095  0.66245329  0.19557132  1
  O  O383  1  0.71292867  0.66668053  0.69686249  1
  O  O384  1  0.12945485  0.08382485  0.30846023  1
  O  O385  1  0.12786324  0.08442223  0.80782808  1
  O  O386  1  0.12327499  0.58816499  0.30385001  1
  O  O387  1  0.12195308  0.58553107  0.80714396  1
  O  O388  1  0.45680968  0.08792937  0.30788761  1
  O  O389  1  0.45549962  0.08309983  0.80289289  1
  O  O390  1  0.45592270  0.58129194  0.30753117  1
  O  O391  1  0.45245037  0.58273538  0.80447081  1
  O  O392  1  0.78893104  0.08688363  0.30884214  1
  O  O393  1  0.78804932  0.08217900  0.80757839  1
  O  O394  1  0.79305799  0.58042542  0.30678190  1
  O  O395  1  0.79119819  0.58103815  0.80972604  1
  O  O396  1  0.29021229  0.33476251  0.30311937  1
  O  O397  1  0.29072644  0.33439412  0.80070335  1
  O  O398  1  0.29079264  0.83007516  0.30841005  1
  O  O399  1  0.28661707  0.83042252  0.80653990  1
  O  O400  1  0.62162221  0.33504225  0.30269001  1
  O  O401  1  0.61388190  0.32692823  0.80250995  1
  O  O402  1  0.62060313  0.83334358  0.30367901  1
  O  O403  1  0.62253110  0.83453489  0.80141254  1
  O  O404  1  0.96664745  0.33384200  0.29913546  1
  O  O405  1  0.95604605  0.34261414  0.80447404  1
  O  O406  1  0.95448512  0.82644695  0.31105125  1
  O  O407  1  0.95618541  0.83368036  0.80931222  1
  O  O408  1  0.12567371  0.41808296  0.30433595  1
  O  O409  1  0.12432460  0.41385099  0.80275503  1
  O  O410  1  0.12306795  0.91517673  0.29971919  1
  O  O411  1  0.12214167  0.91630586  0.80057467  1
  O  O412  1  0.45586159  0.41510513  0.30331614  1
  O  O413  1  0.45637349  0.41664707  0.80171225  1
  O  O414  1  0.45491011  0.91817488  0.30200662  1
  O  O415  1  0.44980547  0.92037515  0.80754954  1
  O  O416  1  0.78620087  0.41746024  0.30504601  1
  O  O417  1  0.79908962  0.41559159  0.80409663  1
  O  O418  1  0.79135059  0.91950367  0.30085039  1
  O  O419  1  0.78845612  0.92008298  0.79959019  1
  O  O420  1  0.29056406  0.16910053  0.30531560  1
  O  O421  1  0.29250540  0.16682906  0.80096329  1
  O  O422  1  0.29128830  0.66496387  0.30500584  1
  O  O423  1  0.28732489  0.66539139  0.80384591  1
  O  O424  1  0.62142487  0.17073031  0.30408110  1
  O  O425  1  0.62119113  0.16656614  0.80322441  1
  O  O426  1  0.62198077  0.66439320  0.30135326  1
  O  O427  1  0.62018554  0.66706699  0.80003340  1
  O  O428  1  0.96110356  0.16885031  0.29845487  1
  O  O429  1  0.96741039  0.16125729  0.80688572  1
  O  O430  1  0.95905943  0.66307282  0.30533217  1
  O  O431  1  0.95478118  0.66426661  0.80066190  1
  F  F432  1  0.05278268  0.01053249  0.19714671  1
  F  F433  1  0.04570601  -0.00069180  0.70203773  1
  F  F434  1  0.04459104  0.50146279  0.19923456  1
  F  F435  1  0.04108815  0.50346477  0.69960558  1
  F  F436  1  0.37677757  0.00295568  0.20386043  1
  F  F437  1  0.37742813  -0.00194396  0.70058957  1
  F  F438  1  0.37903952  0.50022993  0.20102248  1
  F  F439  1  0.37728546  0.50233627  0.69768120  1
  F  F440  1  0.71095667  0.00145150  0.20211176  1
  F  F441  1  0.71026500  0.00301958  0.70009514  1
  F  F442  1  0.71106028  0.50158244  0.20259448  1
  F  F443  1  0.71652301  0.51211245  0.69902680  1
  F  F444  1  0.21483674  0.25065818  0.20085979  1
  F  F445  1  0.21249264  0.24801006  0.69630264  1
  F  F446  1  0.21445594  0.74922919  0.20310910  1
  F  F447  1  0.20964064  0.74958182  0.70230795  1
  F  F448  1  0.54091740  0.25081035  0.20110482  1
  F  F449  1  0.54237649  0.24842457  0.69723767  1
  F  F450  1  0.53955828  0.74951541  0.20204639  1
  F  F451  1  0.54333802  0.74527428  0.69594064  1
  F  F452  1  0.88087273  0.24782047  0.19393333  1
  F  F453  1  0.87066756  0.26395124  0.68740339  1
  F  F454  1  0.88108658  0.74720215  0.20445117  1
  F  F455  1  0.87706946  0.75194544  0.70388852  1
  F  F456  1  0.28938679  0.00149303  0.30016000  1
  F  F457  1  0.28810450  0.00066434  0.79644524  1
  F  F458  1  0.29505201  0.49892857  0.29959621  1
  F  F459  1  0.29069425  0.49750270  0.79441175  1
  F  F460  1  0.62050183  0.00356543  0.29674793  1
  F  F461  1  0.61891792  0.00389139  0.79724403  1
  F  F462  1  0.61987917  0.49744734  0.29710144  1
  F  F463  1  0.61312253  0.50692197  0.79927227  1
  F  F464  1  0.95764549  0.00092232  0.29900460  1
  F  F465  1  0.95624427  0.00054385  0.79839835  1
  F  F466  1  0.95744073  0.50299810  0.29859707  1
  F  F467  1  0.95563471  0.50012521  0.79765562  1
  F  F468  1  0.12591969  0.25226501  0.29522321  1
  F  F469  1  0.13735982  0.25199651  0.79791400  1
  F  F470  1  0.12301934  0.74610586  0.29895100  1
  F  F471  1  0.12079193  0.74815267  0.79810897  1
  F  F472  1  0.45368061  0.25242007  0.29786351  1
  F  F473  1  0.45282389  0.24650552  0.79428579  1
  F  F474  1  0.45374069  0.74788621  0.29964833  1
  F  F475  1  0.44955513  0.74570708  0.79811643  1
  F  F476  1  0.78754143  0.25348495  0.29380384  1
  F  F477  1  0.78153670  0.26117901  0.80053780  1
  F  F478  1  0.78961958  0.74417621  0.29963886  1
  F  F479  1  0.78663153  0.74888393  0.79884985  1
