# generated using pymatgen
data_K24Na3Li5Mg64Fe17Si79(O5F)48
_symmetry_space_group_name_H-M   'P 1'
_cell_length_a   16.07866784
_cell_length_b   18.57045493
_cell_length_c   20.54096186
_cell_angle_alpha   90.00635777
_cell_angle_beta   100.00937523
_cell_angle_gamma   90.00648382
_symmetry_Int_Tables_number   1
_chemical_formula_structural   K24Na3Li5Mg64Fe17Si79(O5F)48
_chemical_formula_sum   'K24 Na3 Li5 Mg64 Fe17 Si79 O240 F48'
_cell_volume   6039.93547260
_cell_formula_units_Z   1
loop_
 _symmetry_equiv_pos_site_id
 _symmetry_equiv_pos_as_xyz
  1  'x, y, z'
loop_
 _atom_site_type_symbol
 _atom_site_label
 _atom_site_symmetry_multiplicity
 _atom_site_fract_x
 _atom_site_fract_y
 _atom_site_fract_z
 _atom_site_occupancy
  K  K0  1  0.00543960  -0.00048598  -0.00543570  1
  K  K1  1  0.00150728  0.00817823  0.50326329  1
  K  K2  1  -0.00521926  0.49785859  -0.00251400  1
  K  K3  1  -0.00488088  0.50583573  0.50116208  1
  K  K4  1  0.33192020  -0.00642000  -0.00506273  1
  K  K5  1  0.32891387  0.01331897  0.50351864  1
  K  K6  1  0.32792581  0.49964567  -0.00161185  1
  K  K7  1  0.34059290  0.49762421  0.50226469  1
  K  K8  1  0.65802096  0.00896292  -0.00235327  1
  K  K9  1  0.67010238  0.00102399  0.49772277  1
  K  K10  1  0.66848155  0.49829022  -0.00040536  1
  K  K11  1  0.66264238  0.49186195  0.50055168  1
  K  K12  1  0.16081496  0.25173943  -0.00193170  1
  K  K13  1  0.15817559  0.24189217  0.49911486  1
  K  K14  1  0.15821103  0.75409754  -0.01419887  1
  K  K15  1  0.15545165  0.74169626  0.50706218  1
  K  K16  1  0.50417734  0.25431746  -0.00418152  1
  K  K17  1  0.50164555  0.24959458  0.50118129  1
  K  K18  1  0.50068702  0.75846601  -0.00177499  1
  K  K19  1  0.50650652  0.74609136  0.50707357  1
  K  K20  1  0.83277528  0.25274733  0.00011125  1
  K  K21  1  0.83612454  0.25349124  0.49826397  1
  K  K22  1  0.82760946  0.74425266  -0.00852091  1
  K  K23  1  0.84040982  0.74406278  0.50928850  1
  Na  Na24  1  0.67573203  0.75147253  0.75574713  1
  Na  Na25  1  0.66531185  0.08089186  0.25060986  1
  Na  Na26  1  0.50062018  0.16923016  0.75282405  1
  Li  Li27  1  -0.01107248  0.74791094  0.74401082  1
  Li  Li28  1  0.83124547  0.49762617  0.74927014  1
  Li  Li29  1  0.33610630  0.08400942  0.24785035  1
  Li  Li30  1  0.83010294  0.33957707  0.75055696  1
  Li  Li31  1  0.83808110  0.82357981  0.75007867  1
  Mg  Mg32  1  0.16367145  0.49941092  0.74872459  1
  Mg  Mg33  1  0.50034898  0.00119871  0.24568568  1
  Mg  Mg34  1  0.66871331  0.25214864  0.75422318  1
  Mg  Mg35  1  0.00097084  0.74971865  0.25296778  1
  Mg  Mg36  1  0.66552640  0.24950063  0.25201046  1
  Mg  Mg37  1  0.49940519  0.49669545  0.25099814  1
  Mg  Mg38  1  0.50161187  0.50147573  0.75448337  1
  Mg  Mg39  1  0.33206253  0.74866043  0.74940670  1
  Mg  Mg40  1  0.33244181  0.24815120  0.25157071  1
  Mg  Mg41  1  0.83431534  -0.00275590  0.74956557  1
  Mg  Mg42  1  0.33565418  0.75159497  0.24923177  1
  Mg  Mg43  1  -0.00016091  0.25072195  0.25263785  1
  Mg  Mg44  1  0.83337361  0.50167958  0.25071053  1
  Mg  Mg45  1  0.83422047  -0.00071919  0.24988567  1
  Mg  Mg46  1  0.66875989  0.75018543  0.24553472  1
  Mg  Mg47  1  0.49990628  0.00029922  0.75064774  1
  Mg  Mg48  1  0.33273017  0.25181027  0.75174720  1
  Mg  Mg49  1  -0.00557660  0.25213913  0.74675166  1
  Mg  Mg50  1  0.17120774  0.00147075  0.25137722  1
  Mg  Mg51  1  0.16454068  -0.00103553  0.74753091  1
  Mg  Mg52  1  0.16751975  0.49859092  0.25296610  1
  Mg  Mg53  1  0.00038331  0.08540047  0.25046476  1
  Mg  Mg54  1  0.33529133  0.58374775  0.25296050  1
  Mg  Mg55  1  0.33206355  0.08447239  0.74946913  1
  Mg  Mg56  1  0.83401591  0.16584541  0.25225295  1
  Mg  Mg57  1  0.66425239  0.41482167  0.25148703  1
  Mg  Mg58  1  0.16055615  0.83209665  0.74715431  1
  Mg  Mg59  1  0.67116779  0.41695991  0.75189551  1
  Mg  Mg60  1  0.49780444  0.16554076  0.25008867  1
  Mg  Mg61  1  -0.00055276  0.08417142  0.74837337  1
  Mg  Mg62  1  0.83182162  0.83442005  0.24734220  1
  Mg  Mg63  1  0.33533500  0.41495221  0.75332625  1
  Mg  Mg64  1  0.16884617  0.66589457  0.25382744  1
  Mg  Mg65  1  0.83329730  0.66702754  0.24930734  1
  Mg  Mg66  1  0.00165294  0.58510142  0.25315478  1
  Mg  Mg67  1  0.67125111  0.91556251  0.74949963  1
  Mg  Mg68  1  0.50419398  0.66694302  0.75221278  1
  Mg  Mg69  1  0.33603299  0.91866971  0.24867985  1
  Mg  Mg70  1  0.16501327  0.33369142  0.25296309  1
  Mg  Mg71  1  0.67236081  0.58306973  0.75240525  1
  Mg  Mg72  1  0.83533600  0.66645513  0.74885451  1
  Mg  Mg73  1  0.50042144  0.66550272  0.24893283  1
  Mg  Mg74  1  0.16868290  0.16427467  0.24904983  1
  Mg  Mg75  1  0.00252420  0.41535285  0.25208323  1
  Mg  Mg76  1  0.16655355  0.16559282  0.74979602  1
  Mg  Mg77  1  0.66527710  0.58473684  0.24710559  1
  Mg  Mg78  1  0.33433692  0.41367372  0.25313512  1
  Mg  Mg79  1  0.33351992  0.58276295  0.75042929  1
  Mg  Mg80  1  0.16087911  0.66676403  0.74786516  1
  Mg  Mg81  1  0.00195399  0.91605972  0.24955760  1
  Mg  Mg82  1  -0.00240413  0.91137265  0.74788458  1
  Mg  Mg83  1  0.66502356  0.91588056  0.24528534  1
  Mg  Mg84  1  0.16928443  0.83442759  0.25101905  1
  Mg  Mg85  1  0.83352924  0.33562927  0.25240824  1
  Mg  Mg86  1  0.66732834  0.08435638  0.75193089  1
  Mg  Mg87  1  0.50271182  0.33594133  0.75574406  1
  Mg  Mg88  1  0.33148277  0.91469894  0.74831386  1
  Mg  Mg89  1  0.50230537  0.83589226  0.24552317  1
  Mg  Mg90  1  -0.00757367  0.41749384  0.74962713  1
  Mg  Mg91  1  -0.00614144  0.58378866  0.74619224  1
  Mg  Mg92  1  0.16582511  0.33439579  0.75169617  1
  Mg  Mg93  1  0.50363388  0.83247840  0.74991481  1
  Mg  Mg94  1  0.50127159  0.33464771  0.25253695  1
  Mg  Mg95  1  0.83160116  0.16851634  0.74995454  1
  Fe  Fe96  1  0.02861890  0.33121625  0.11058334  1
  Fe  Fe97  1  0.46868891  0.41596866  0.39478579  1
  Fe  Fe98  1  0.97376758  0.16762543  0.39173417  1
  Fe  Fe99  1  0.64441034  0.67066047  0.89134639  1
  Fe  Fe100  1  0.97662624  0.66751311  0.39108154  1
  Fe  Fe101  1  0.47877659  0.42293273  0.89320942  1
  Fe  Fe102  1  0.52071196  0.41234713  0.10968546  1
  Fe  Fe103  1  0.68684907  0.66323169  0.10738392  1
  Fe  Fe104  1  0.02001131  0.66447871  0.60873564  1
  Fe  Fe105  1  0.13745279  0.91524862  0.88762778  1
  Fe  Fe106  1  0.64193716  0.32763143  0.39436104  1
  Fe  Fe107  1  0.64532139  0.16311398  0.89242000  1
  Fe  Fe108  1  0.14344962  0.41616052  0.39287563  1
  Fe  Fe109  1  0.30554689  0.33484974  0.89282759  1
  Fe  Fe110  1  0.52175493  0.92673567  0.10427956  1
  Fe  Fe111  1  0.19204912  0.08505861  0.60871586  1
  Fe  Fe112  1  0.69189253  0.83646433  0.10536107  1
  Si  Si113  1  0.69379932  0.66683603  0.61418379  1
  Si  Si114  1  0.64178480  0.16133533  0.38855787  1
  Si  Si115  1  0.69353747  0.16922456  0.11605615  1
  Si  Si116  1  0.19821941  0.41871026  0.11432177  1
  Si  Si117  1  0.80381665  0.58642889  0.38677632  1
  Si  Si118  1  0.15034098  0.58331740  0.39078289  1
  Si  Si119  1  0.36063691  0.82939419  0.61330353  1
  Si  Si120  1  0.81063746  0.91880833  0.88351216  1
  Si  Si121  1  0.30914570  0.67224680  0.38682037  1
  Si  Si122  1  0.30792775  0.16538675  0.88761828  1
  Si  Si123  1  0.69513219  0.83519997  0.61350750  1
  Si  Si124  1  0.36294847  0.33469743  0.61497461  1
  Si  Si125  1  0.19428979  0.91432042  0.11497675  1
  Si  Si126  1  0.63840634  0.66788751  0.38448065  1
  Si  Si127  1  0.52627240  0.91448460  0.61211096  1
  Si  Si128  1  0.68875567  0.16587529  0.61407805  1
  Si  Si129  1  0.85395756  0.08551860  0.61381427  1
  Si  Si130  1  0.80698631  0.41758006  0.88375371  1
  Si  Si131  1  0.69027326  0.33105720  0.61680364  1
  Si  Si132  1  0.85119821  0.57863446  0.61003456  1
  Si  Si133  1  0.02320562  0.16059238  0.11066369  1
  Si  Si134  1  0.86611099  0.91372046  0.11225201  1
  Si  Si135  1  0.52635545  0.07922130  0.61413340  1
  Si  Si136  1  0.47443493  0.58812656  0.38919141  1
  Si  Si137  1  0.51554853  0.09562102  0.11022853  1
  Si  Si138  1  0.47433725  0.91267501  0.88402294  1
  Si  Si139  1  0.96837654  0.83012188  0.88464769  1
  Si  Si140  1  0.80764433  0.07844128  0.38837772  1
  Si  Si141  1  0.30877260  0.82794480  0.88451038  1
  Si  Si142  1  0.14607188  0.91905597  0.38479600  1
  Si  Si143  1  0.97410724  0.17016392  0.88391929  1
  Si  Si144  1  0.86335779  0.58610862  0.11395732  1
  Si  Si145  1  0.64625549  0.84364686  0.88615616  1
  Si  Si146  1  0.47780729  0.91530522  0.38477621  1
  Si  Si147  1  0.02233737  0.33712023  0.61401559  1
  Si  Si148  1  0.19347448  0.41357741  0.61411700  1
  Si  Si149  1  0.97160961  0.66441073  0.88339763  1
  Si  Si150  1  0.81507533  0.07997025  0.88717914  1
  Si  Si151  1  0.13725291  0.58299062  0.88395094  1
  Si  Si152  1  0.19353129  0.91240171  0.60878195  1
  Si  Si153  1  0.81117168  0.58014108  0.88760720  1
  Si  Si154  1  0.69865412  0.33447000  0.11341584  1
  Si  Si155  1  0.35047938  0.16987241  0.11576991  1
  Si  Si156  1  0.35765793  0.83186005  0.11162064  1
  Si  Si157  1  0.52863781  0.41875212  0.61690609  1
  Si  Si158  1  0.52900822  0.58363952  0.61551437  1
  Si  Si159  1  0.47518362  0.59180266  0.88838881  1
  Si  Si160  1  0.96759127  0.33462463  0.88215692  1
  Si  Si161  1  0.19077579  0.07934254  0.11443995  1
  Si  Si162  1  0.19542909  0.58439732  0.11695326  1
  Si  Si163  1  0.81047411  0.91419680  0.38560949  1
  Si  Si164  1  0.19553030  0.58006329  0.61173460  1
  Si  Si165  1  0.13955077  0.08711488  0.88682022  1
  Si  Si166  1  0.30405610  0.66188617  0.88297653  1
  Si  Si167  1  0.13149036  0.41709208  0.88668994  1
  Si  Si168  1  0.64358630  0.83181908  0.38426673  1
  Si  Si169  1  0.14712612  0.08316099  0.38675528  1
  Si  Si170  1  0.47705892  0.07984696  0.38434686  1
  Si  Si171  1  0.03085442  0.66645458  0.11646360  1
  Si  Si172  1  0.30179137  0.32596803  0.39009760  1
  Si  Si173  1  0.36261869  0.66333441  0.61504325  1
  Si  Si174  1  0.03055836  0.83208348  0.11577840  1
  Si  Si175  1  0.85419607  0.41440483  0.61492053  1
  Si  Si176  1  0.98070949  0.83843857  0.38730391  1
  Si  Si177  1  0.35829484  0.66803707  0.11564906  1
  Si  Si178  1  0.86235552  0.42063117  0.11457580  1
  Si  Si179  1  0.36120370  0.16959304  0.61194384  1
  Si  Si180  1  0.97044387  0.34055795  0.39133136  1
  Si  Si181  1  0.35532339  0.32938899  0.11539282  1
  Si  Si182  1  0.31124349  0.83612881  0.38551481  1
  Si  Si183  1  0.31294229  0.16343327  0.38358750  1
  Si  Si184  1  0.46654626  0.07721016  0.88672546  1
  Si  Si185  1  0.64788304  0.33390965  0.89184876  1
  Si  Si186  1  0.01921607  0.16996658  0.61242668  1
  Si  Si187  1  0.02214530  0.83654650  0.60879459  1
  Si  Si188  1  0.80408770  0.42164726  0.38765282  1
  Si  Si189  1  0.51635304  0.57934009  0.11231724  1
  Si  Si190  1  0.85810957  0.92036338  0.61202047  1
  Si  Si191  1  0.85600362  0.07915383  0.11415776  1
  O  O192  1  0.27186220  0.11380002  0.08603427  1
  O  O193  1  0.27548570  0.13439193  0.57105184  1
  O  O194  1  0.27691038  0.61591277  0.08739240  1
  O  O195  1  0.27696848  0.61853665  0.58453727  1
  O  O196  1  0.60184515  0.13097695  0.08743847  1
  O  O197  1  0.60304845  0.11937529  0.58355299  1
  O  O198  1  0.59980909  0.59559463  0.08089503  1
  O  O199  1  0.60039546  0.62964190  0.58418691  1
  O  O200  1  0.93675845  0.11235259  0.08439347  1
  O  O201  1  0.92829876  0.12898128  0.58479301  1
  O  O202  1  0.95245937  0.61246174  0.08855127  1
  O  O203  1  0.92416211  0.60992609  0.57224359  1
  O  O204  1  0.12197360  0.36917178  0.07757963  1
  O  O205  1  0.10255216  0.37363248  0.58488903  1
  O  O206  1  0.11376956  0.86145083  0.08703373  1
  O  O207  1  0.10336097  0.87218722  0.57936315  1
  O  O208  1  0.43784202  0.34151405  0.08245098  1
  O  O209  1  0.43582559  0.38250679  0.58665844  1
  O  O210  1  0.43187289  0.85967096  0.07517508  1
  O  O211  1  0.43760844  0.87022268  0.58317487  1
  O  O212  1  0.78167709  0.36819456  0.08655836  1
  O  O213  1  0.76981476  0.36481255  0.58540242  1
  O  O214  1  0.79665885  0.85791102  0.07754826  1
  O  O215  1  0.77013809  0.87597671  0.58014598  1
  O  O216  1  0.28486326  0.39251641  0.08852734  1
  O  O217  1  0.26915250  0.36987091  0.58544114  1
  O  O218  1  0.27319057  0.88154214  0.08449639  1
  O  O219  1  0.26967295  0.86560813  0.58153271  1
  O  O220  1  0.61868251  0.38138993  0.07878949  1
  O  O221  1  0.60324718  0.37641396  0.58628014  1
  O  O222  1  0.61562391  0.90580848  0.06858369  1
  O  O223  1  0.60287835  0.87492852  0.58072454  1
  O  O224  1  0.93967029  0.39458203  0.07931399  1
  O  O225  1  0.93542684  0.38119248  0.58303792  1
  O  O226  1  0.95572093  0.88899039  0.08742417  1
  O  O227  1  0.93728714  0.88713962  0.58032395  1
  O  O228  1  0.10250672  0.12062257  0.08201122  1
  O  O229  1  0.08854252  0.13151666  0.57604422  1
  O  O230  1  0.11383024  0.63605623  0.08732809  1
  O  O231  1  0.11246199  0.62148948  0.57577900  1
  O  O232  1  0.43477935  0.15103025  0.08355376  1
  O  O233  1  0.44021731  0.12517764  0.58630104  1
  O  O234  1  0.44158536  0.64199958  0.08717504  1
  O  O235  1  0.43900822  0.62395636  0.58432610  1
  O  O236  1  0.76839929  0.12393608  0.08618078  1
  O  O237  1  0.76529776  0.12723909  0.58275068  1
  O  O238  1  0.79073741  0.63976547  0.07967995  1
  O  O239  1  0.76322709  0.62409256  0.57853378  1
  O  O240  1  0.07130305  0.11052346  0.42235816  1
  O  O241  1  0.05961780  0.12545183  0.91501167  1
  O  O242  1  0.06865726  0.60678653  0.42227971  1
  O  O243  1  0.06160775  0.62248245  0.91498153  1
  O  O244  1  0.39445515  0.11119220  0.41310466  1
  O  O245  1  0.37989827  0.10351978  0.91326405  1
  O  O246  1  0.39307552  0.62542847  0.41708410  1
  O  O247  1  0.38270440  0.60948838  0.91261639  1
  O  O248  1  0.71611221  0.09949133  0.40939993  1
  O  O249  1  0.73839207  0.10151330  0.92449093  1
  O  O250  1  0.71538198  0.61222017  0.41267010  1
  O  O251  1  0.73629122  0.60883850  0.92488017  1
  O  O252  1  0.21426612  0.33655789  0.41861611  1
  O  O253  1  0.20504830  0.36492916  0.92291907  1
  O  O254  1  0.22886055  0.86813488  0.41373469  1
  O  O255  1  0.23680535  0.86211828  0.92105626  1
  O  O256  1  0.55288458  0.35543881  0.43479551  1
  O  O257  1  0.56777735  0.35942365  0.92411728  1
  O  O258  1  0.56334352  0.86769871  0.41453465  1
  O  O259  1  0.56198790  0.87172501  0.91547657  1
  O  O260  1  0.88262202  0.36732310  0.41619658  1
  O  O261  1  0.88564685  0.36187170  0.91295350  1
  O  O262  1  0.89722097  0.86974494  0.41550589  1
  O  O263  1  0.88336105  0.85970128  0.91304968  1
  O  O264  1  0.04086584  0.39990575  0.42200126  1
  O  O265  1  0.04421649  0.39040264  0.91250952  1
  O  O266  1  0.06150402  0.89396085  0.41331890  1
  O  O267  1  0.04874072  0.87534430  0.92535481  1
  O  O268  1  0.36972408  0.38498686  0.42468880  1
  O  O269  1  0.38509133  0.40036775  0.93000040  1
  O  O270  1  0.39702871  0.88205798  0.41560657  1
  O  O271  1  0.39859383  0.86981939  0.91232914  1
  O  O272  1  0.72598867  0.39777158  0.42238946  1
  O  O273  1  0.72685087  0.39106558  0.91761362  1
  O  O274  1  0.72968076  0.87759525  0.41400935  1
  O  O275  1  0.72351068  0.90176262  0.91293320  1
  O  O276  1  0.23326721  0.13004588  0.41477376  1
  O  O277  1  0.22086833  0.13933047  0.91368228  1
  O  O278  1  0.22623729  0.64486946  0.41528725  1
  O  O279  1  0.22300372  0.62988946  0.91345933  1
  O  O280  1  0.55965070  0.12694638  0.41853828  1
  O  O281  1  0.54600289  0.12596626  0.92032723  1
  O  O282  1  0.55432652  0.64392214  0.41474228  1
  O  O283  1  0.53820729  0.65677745  0.91721531  1
  O  O284  1  0.88288804  0.12792831  0.42823902  1
  O  O285  1  0.89629167  0.13413705  0.91460745  1
  O  O286  1  0.87644887  0.64138124  0.42076227  1
  O  O287  1  0.89907500  0.62532040  0.91840487  1
  O  O288  1  0.17694496  -0.00403062  0.08544048  1
  O  O289  1  0.19112103  -0.00942320  0.57374440  1
  O  O290  1  0.17898024  0.50304199  0.08737975  1
  O  O291  1  0.19284669  0.49564477  0.58425890  1
  O  O292  1  0.49117046  0.02063798  0.07151613  1
  O  O293  1  0.51503983  -0.00299840  0.58068472  1
  O  O294  1  0.47473154  0.50354938  0.08409825  1
  O  O295  1  0.52475305  0.50117519  0.58534026  1
  O  O296  1  0.84499720  -0.00322390  0.08474090  1
  O  O297  1  0.84420178  0.00373034  0.58171789  1
  O  O298  1  0.84098654  0.50354323  0.08694839  1
  O  O299  1  0.83253634  0.49464091  0.58244675  1
  O  O300  1  0.00782636  0.23770169  0.07431961  1
  O  O301  1  0.00861800  0.25432583  0.58563557  1
  O  O302  1  0.01182194  0.74927193  0.08724412  1
  O  O303  1  0.00521580  0.75887103  0.57353677  1
  O  O304  1  0.31451686  0.24988470  0.08935553  1
  O  O305  1  0.36812877  0.25341214  0.58451602  1
  O  O306  1  0.33043138  0.74861739  0.08719304  1
  O  O307  1  0.35702027  0.74602378  0.58464403  1
  O  O308  1  0.69095066  0.25062983  0.08426461  1
  O  O309  1  0.67552456  0.24854213  0.58576561  1
  O  O310  1  0.64844358  0.74969229  0.07096048  1
  O  O311  1  0.68670103  0.75107593  0.58500684  1
  O  O312  1  0.17238177  -0.00028946  0.41240347  1
  O  O313  1  0.15554116  0.00969797  0.92273100  1
  O  O314  1  0.18924401  0.50735933  0.42066408  1
  O  O315  1  0.14799924  0.50112098  0.91499318  1
  O  O316  1  0.49304173  -0.00299433  0.41503074  1
  O  O317  1  0.48051577  -0.00633543  0.91555118  1
  O  O318  1  0.49360751  0.51253043  0.42632837  1
  O  O319  1  0.51201821  0.51685202  0.92123442  1
  O  O320  1  0.82291162  -0.00520091  0.41783851  1
  O  O321  1  0.84721214  -0.00189825  0.91271480  1
  O  O322  1  0.82907180  0.50461184  0.41443037  1
  O  O323  1  0.83533877  0.49707284  0.91544774  1
  O  O324  1  0.33707229  0.24359472  0.41440449  1
  O  O325  1  0.33658421  0.24047082  0.92377483  1
  O  O326  1  0.32876222  0.75462196  0.41548068  1
  O  O327  1  0.32305977  0.74384130  0.91165973  1
  O  O328  1  0.67339780  0.23396514  0.42878662  1
  O  O329  1  0.67883501  0.25581597  0.92344963  1
  O  O330  1  0.65963358  0.74985313  0.41504785  1
  O  O331  1  0.67615112  0.76630091  0.91679253  1
  O  O332  1  0.99382013  0.26165013  0.42457713  1
  O  O333  1  0.98889953  0.25276190  0.91269663  1
  O  O334  1  1.00729939  0.76183685  0.42093047  1
  O  O335  1  0.98243713  0.74640614  0.91376544  1
  O  O336  1  0.20559701  0.08082159  0.19414635  1
  O  O337  1  0.20994498  0.08304690  0.70039695  1
  O  O338  1  0.21191516  0.58558786  0.19755939  1
  O  O339  1  0.21075183  0.58166306  0.69261365  1
  O  O340  1  0.53044988  0.08676258  0.18996641  1
  O  O341  1  0.54700160  0.07434344  0.69298960  1
  O  O342  1  0.53786982  0.58329437  0.19445343  1
  O  O343  1  0.54200096  0.58276586  0.69499167  1
  O  O344  1  0.87648867  0.08105751  0.19451970  1
  O  O345  1  0.87364580  0.08364554  0.69405616  1
  O  O346  1  0.87928968  0.58444274  0.19497743  1
  O  O347  1  0.87422503  0.58314166  0.68963934  1
  O  O348  1  0.04400416  0.33118674  0.20205616  1
  O  O349  1  0.04194963  0.33599066  0.69432777  1
  O  O350  1  0.04775420  0.83193703  0.19652753  1
  O  O351  1  0.04265359  0.83651933  0.68864637  1
  O  O352  1  0.37327386  0.33111304  0.19650812  1
  O  O353  1  0.37749478  0.33429810  0.69468072  1
  O  O354  1  0.37590894  0.83328265  0.19302512  1
  O  O355  1  0.37659096  0.83230397  0.69347560  1
  O  O356  1  0.71352668  0.33412688  0.19449750  1
  O  O357  1  0.70680823  0.33256296  0.69597980  1
  O  O358  1  0.71230374  0.83336538  0.19895615  1
  O  O359  1  0.71140827  0.84184586  0.69144951  1
  O  O360  1  0.21220559  0.41785823  0.19528333  1
  O  O361  1  0.20858289  0.41611880  0.69432197  1
  O  O362  1  0.21131366  0.91502023  0.19542811  1
  O  O363  1  0.21178510  0.91377511  0.68966473  1
  O  O364  1  0.54477855  0.41654285  0.20114690  1
  O  O365  1  0.54533400  0.41919375  0.69661581  1
  O  O366  1  0.54279521  0.91744147  0.19670126  1
  O  O367  1  0.54275840  0.91550667  0.69209556  1
  O  O368  1  0.87903947  0.41895441  0.19593406  1
  O  O369  1  0.87734165  0.41456663  0.69344677  1
  O  O370  1  0.88221461  0.91529444  0.19366737  1
  O  O371  1  0.87833461  0.92182790  0.69124902  1
  O  O372  1  0.04417407  0.16320140  0.19149886  1
  O  O373  1  0.04079302  0.16737065  0.69319515  1
  O  O374  1  0.04963007  0.66830067  0.19686211  1
  O  O375  1  0.04457793  0.66289234  0.69872718  1
  O  O376  1  0.37342500  0.16838538  0.19544749  1
  O  O377  1  0.36641055  0.16790242  0.69130809  1
  O  O378  1  0.37530662  0.66724969  0.19662576  1
  O  O379  1  0.37710737  0.66531353  0.69512994  1
  O  O380  1  0.71546618  0.17267400  0.19556441  1
  O  O381  1  0.70992278  0.16463275  0.69375313  1
  O  O382  1  0.71187272  0.66601098  0.20047278  1
  O  O383  1  0.71415242  0.66027061  0.69269915  1
  O  O384  1  0.12556083  0.08285798  0.30577440  1
  O  O385  1  0.12021795  0.08454480  0.80580134  1
  O  O386  1  0.12858827  0.58518027  0.30869996  1
  O  O387  1  0.12345223  0.58133280  0.80401600  1
  O  O388  1  0.46200619  0.08029092  0.30494608  1
  O  O389  1  0.44961357  0.07450346  0.80643516  1
  O  O390  1  0.45598345  0.58630476  0.30809012  1
  O  O391  1  0.45415014  0.58680659  0.80636531  1
  O  O392  1  0.80306864  0.08039639  0.30898058  1
  O  O393  1  0.79455594  0.08250098  0.80610110  1
  O  O394  1  0.78936465  0.58469961  0.30591767  1
  O  O395  1  0.79120816  0.58455702  0.80774648  1
  O  O396  1  0.28806185  0.33032194  0.30820639  1
  O  O397  1  0.28509215  0.33437771  0.79998660  1
  O  O398  1  0.29296268  0.83437142  0.30496885  1
  O  O399  1  0.28988473  0.83138767  0.80345876  1
  O  O400  1  0.62379306  0.33173894  0.30216573  1
  O  O401  1  0.62696408  0.33505316  0.81024892  1
  O  O402  1  0.62317639  0.83048102  0.30453208  1
  O  O403  1  0.62015036  0.84471204  0.80618286  1
  O  O404  1  0.95465631  0.33620046  0.30954838  1
  O  O405  1  0.95703995  0.33235449  0.80282063  1
  O  O406  1  0.96076362  0.83637021  0.30611349  1
  O  O407  1  0.95975323  0.83568861  0.80578318  1
  O  O408  1  0.12348483  0.41816195  0.30080635  1
  O  O409  1  0.11953657  0.41711605  0.80567229  1
  O  O410  1  0.12686456  0.91604707  0.30422015  1
  O  O411  1  0.12112476  0.91675713  0.79607151  1
  O  O412  1  0.45284007  0.41668712  0.30250932  1
  O  O413  1  0.45527676  0.41987815  0.80058287  1
  O  O414  1  0.45610030  0.91339865  0.30498573  1
  O  O415  1  0.45541246  0.91418474  0.80310952  1
  O  O416  1  0.78879596  0.41947261  0.30626057  1
  O  O417  1  0.78769498  0.41724248  0.80494303  1
  O  O418  1  0.79359492  0.91569612  0.30553866  1
  O  O419  1  0.78981620  0.92109607  0.80398436  1
  O  O420  1  0.28955517  0.16539976  0.30410922  1
  O  O421  1  0.28973845  0.16775273  0.80634556  1
  O  O422  1  0.29253005  0.67012417  0.30607642  1
  O  O423  1  0.28678377  0.66422245  0.80230118  1
  O  O424  1  0.61746780  0.17174035  0.30935634  1
  O  O425  1  0.63412855  0.16605423  0.80258560  1
  O  O426  1  0.62029244  0.66834357  0.30423992  1
  O  O427  1  0.61949981  0.65883211  0.80171871  1
  O  O428  1  0.95678103  0.16629875  0.29977439  1
  O  O429  1  0.95650238  0.16718664  0.80349725  1
  O  O430  1  0.95673061  0.66767728  0.29926393  1
  O  O431  1  0.95507416  0.65998385  0.80447135  1
  F  F432  1  0.04866049  -0.00066488  0.20302367  1
  F  F433  1  0.04302725  0.00354826  0.69781496  1
  F  F434  1  0.04695723  0.50473793  0.20287186  1
  F  F435  1  0.04516680  0.49765646  0.69910560  1
  F  F436  1  0.37854458  -0.00403307  0.20009319  1
  F  F437  1  0.37803004  -0.00205048  0.69971516  1
  F  F438  1  0.37552241  0.50256387  0.20416794  1
  F  F439  1  0.37746684  0.50201327  0.70094598  1
  F  F440  1  0.71973480  -0.00785267  0.19915304  1
  F  F441  1  0.71257319  0.00238785  0.70088832  1
  F  F442  1  0.71270953  0.49987493  0.20342145  1
  F  F443  1  0.70422189  0.49974746  0.69944494  1
  F  F444  1  0.21007639  0.24970247  0.20318561  1
  F  F445  1  0.20807806  0.24973459  0.70065578  1
  F  F446  1  0.21317684  0.75027472  0.20346802  1
  F  F447  1  0.21297417  0.74898336  0.69854472  1
  F  F448  1  0.54415765  0.24834082  0.20247000  1
  F  F449  1  0.55008670  0.26210077  0.70123091  1
  F  F450  1  0.54328595  0.74920637  0.20122855  1
  F  F451  1  0.53263688  0.75055796  0.69651271  1
  F  F452  1  0.87861006  0.25247860  0.20337210  1
  F  F453  1  0.87964335  0.24207771  0.69545325  1
  F  F454  1  0.88220074  0.75292984  0.20181476  1
  F  F455  1  0.87456128  0.74478935  0.69379705  1
  F  F456  1  0.28767357  -0.00652347  0.30072747  1
  F  F457  1  0.28686002  -0.00410347  0.79636708  1
  F  F458  1  0.28909128  0.50163076  0.29939627  1
  F  F459  1  0.28479530  0.50055453  0.79652599  1
  F  F460  1  0.61706471  -0.01107356  0.30155577  1
  F  F461  1  0.62128486  -0.00051249  0.79689579  1
  F  F462  1  0.62152227  0.50440353  0.29871365  1
  F  F463  1  0.62231306  0.49953342  0.79929573  1
  F  F464  1  0.95812329  -0.00134285  0.29703298  1
  F  F465  1  0.95632521  0.00115153  0.79568407  1
  F  F466  1  0.95511154  0.50159528  0.29796071  1
  F  F467  1  0.96024508  0.50089242  0.79799466  1
  F  F468  1  0.12188383  0.24437924  0.29875963  1
  F  F469  1  0.11709639  0.24945052  0.79539814  1
  F  F470  1  0.12529821  0.75186666  0.30016286  1
  F  F471  1  0.13216185  0.75029709  0.80048667  1
  F  F472  1  0.45320084  0.24871662  0.29876142  1
  F  F473  1  0.44870110  0.25967864  0.80245430  1
  F  F474  1  0.45532794  0.75188523  0.29704512  1
  F  F475  1  0.45186399  0.75158305  0.79702503  1
  F  F476  1  0.78930588  0.25063573  0.29987255  1
  F  F477  1  0.79054774  0.24772656  0.79785384  1
  F  F478  1  0.79159189  0.75165394  0.29981780  1
  F  F479  1  0.80629788  0.74526919  0.80469061  1
