# generated using pymatgen
data_K24Na3Li5Mg64Fe17Si79(O5F)48
_symmetry_space_group_name_H-M   'P 1'
_cell_length_a   16.09488723
_cell_length_b   18.58244010
_cell_length_c   20.54357470
_cell_angle_alpha   89.99222930
_cell_angle_beta   100.00122907
_cell_angle_gamma   89.98847387
_symmetry_Int_Tables_number   1
_chemical_formula_structural   K24Na3Li5Mg64Fe17Si79(O5F)48
_chemical_formula_sum   'K24 Na3 Li5 Mg64 Fe17 Si79 O240 F48'
_cell_volume   6050.85152275
_cell_formula_units_Z   1
loop_
 _symmetry_equiv_pos_site_id
 _symmetry_equiv_pos_as_xyz
  1  'x, y, z'
loop_
 _atom_site_type_symbol
 _atom_site_label
 _atom_site_symmetry_multiplicity
 _atom_site_fract_x
 _atom_site_fract_y
 _atom_site_fract_z
 _atom_site_occupancy
  K  K0  1  0.00551717  -0.00092637  -0.00004158  1
  K  K1  1  0.00898674  -0.01048867  0.49970643  1
  K  K2  1  0.01015154  0.49409287  0.00560566  1
  K  K3  1  0.01311944  0.50431180  0.50005358  1
  K  K4  1  0.32279844  -0.00015819  -0.00105127  1
  K  K5  1  0.32351749  0.00297726  0.49904720  1
  K  K6  1  0.32833575  0.50326502  0.00404709  1
  K  K7  1  0.32301544  0.49779253  0.49711598  1
  K  K8  1  0.66808899  0.00244086  -0.01208442  1
  K  K9  1  0.67702788  0.00430635  0.50975133  1
  K  K10  1  0.66287656  0.50310499  -0.00429426  1
  K  K11  1  0.66630567  0.50703431  0.50774854  1
  K  K12  1  0.16999392  0.25003514  0.01086652  1
  K  K13  1  0.17538777  0.25318031  0.49180581  1
  K  K14  1  0.16326982  0.75424409  0.00116893  1
  K  K15  1  0.16854191  0.75032546  0.49745675  1
  K  K16  1  0.50281046  0.24955600  -0.00388009  1
  K  K17  1  0.49899037  0.24698021  0.50475491  1
  K  K18  1  0.50122618  0.74097754  -0.01005959  1
  K  K19  1  0.50210305  0.74536772  0.51386186  1
  K  K20  1  0.83576490  0.25213366  0.00036302  1
  K  K21  1  0.83138474  0.24844121  0.50552544  1
  K  K22  1  0.84252015  0.74490074  -0.01148793  1
  K  K23  1  0.82890159  0.75432688  0.51202202  1
  Na  Na24  1  0.00560683  0.25134797  0.24635867  1
  Na  Na25  1  0.50078316  0.67240552  0.73979494  1
  Na  Na26  1  0.33318593  0.91736863  0.74722699  1
  Li  Li27  1  0.16976639  0.49505020  0.75207923  1
  Li  Li28  1  0.66429867  0.74990983  0.73940502  1
  Li  Li29  1  0.16744156  0.83395082  0.25528169  1
  Li  Li30  1  0.16743620  0.33531534  0.25104685  1
  Li  Li31  1  0.16954232  0.33893734  0.75111585  1
  Mg  Mg32  1  0.00388698  0.25226960  0.75265495  1
  Mg  Mg33  1  0.49977474  -0.00032444  0.75012860  1
  Mg  Mg34  1  0.16560493  -0.00203207  0.25322362  1
  Mg  Mg35  1  0.16859821  0.00003200  0.75192833  1
  Mg  Mg36  1  0.50038013  0.50160617  0.74669394  1
  Mg  Mg37  1  0.83478520  -0.00251417  0.75063919  1
  Mg  Mg38  1  0.83359119  0.50012635  0.24492310  1
  Mg  Mg39  1  0.16469236  0.49773845  0.25184899  1
  Mg  Mg40  1  0.50010078  0.50091277  0.24544253  1
  Mg  Mg41  1  0.66672532  0.24879714  0.75019787  1
  Mg  Mg42  1  0.49774683  0.00003990  0.25165681  1
  Mg  Mg43  1  0.32646766  0.25075988  0.24822593  1
  Mg  Mg44  1  0.66486752  0.74956273  0.24433576  1
  Mg  Mg45  1  0.66587579  0.24971869  0.24993591  1
  Mg  Mg46  1  0.33145741  0.25334075  0.75130631  1
  Mg  Mg47  1  0.33528630  0.75042583  0.74915358  1
  Mg  Mg48  1  0.00096928  0.74781020  0.75238154  1
  Mg  Mg49  1  0.33084408  0.75048721  0.25008462  1
  Mg  Mg50  1  0.83444306  0.50085607  0.74931009  1
  Mg  Mg51  1  0.83330801  0.00011193  0.25056783  1
  Mg  Mg52  1  0.00130036  0.74987140  0.25359353  1
  Mg  Mg53  1  0.66530627  0.08414911  0.25085614  1
  Mg  Mg54  1  0.66483427  0.58397627  0.24308244  1
  Mg  Mg55  1  0.16850429  0.16739185  0.24983098  1
  Mg  Mg56  1  0.83449812  0.33353926  0.24631722  1
  Mg  Mg57  1  0.83079871  0.66705667  0.75007021  1
  Mg  Mg58  1  0.66526725  0.41542562  0.24680509  1
  Mg  Mg59  1  0.66447539  0.41675001  0.74770652  1
  Mg  Mg60  1  0.49754142  0.83391649  0.24830348  1
  Mg  Mg61  1  0.66595534  0.91265135  0.74843492  1
  Mg  Mg62  1  0.32948146  0.08396192  0.25093503  1
  Mg  Mg63  1  0.33224736  0.58229549  0.74975690  1
  Mg  Mg64  1  0.83281114  0.66519743  0.24753234  1
  Mg  Mg65  1  0.49924637  0.66503965  0.24338564  1
  Mg  Mg66  1  0.50113680  0.83247728  0.74705866  1
  Mg  Mg67  1  -0.00045686  0.58450362  0.25027308  1
  Mg  Mg68  1  0.16836211  0.66161813  0.75154457  1
  Mg  Mg69  1  0.49661230  0.33431401  0.24828187  1
  Mg  Mg70  1  0.16749627  0.17073359  0.75259203  1
  Mg  Mg71  1  0.66471923  0.91654745  0.24910269  1
  Mg  Mg72  1  0.49944302  0.33571109  0.75064064  1
  Mg  Mg73  1  0.66386190  0.58755034  0.74434416  1
  Mg  Mg74  1  0.83422549  0.16672078  0.24969589  1
  Mg  Mg75  1  0.00349021  0.91395762  0.25445864  1
  Mg  Mg76  1  0.16604958  0.66785748  0.25062678  1
  Mg  Mg77  1  0.83296909  0.16544175  0.75076215  1
  Mg  Mg78  1  0.33275892  0.08488551  0.75371684  1
  Mg  Mg79  1  0.16813143  0.83257799  0.75044443  1
  Mg  Mg80  1  0.49635733  0.16576642  0.25102179  1
  Mg  Mg81  1  0.83344858  0.33409367  0.74913047  1
  Mg  Mg82  1  0.00358224  0.58039348  0.75137473  1
  Mg  Mg83  1  0.66670445  0.08568636  0.75101735  1
  Mg  Mg84  1  0.00286800  0.41614267  0.25071712  1
  Mg  Mg85  1  0.33167809  0.58464285  0.24710245  1
  Mg  Mg86  1  0.00255029  0.91349273  0.74988624  1
  Mg  Mg87  1  0.00095027  0.08473440  0.75054735  1
  Mg  Mg88  1  0.32986163  0.41759139  0.75147481  1
  Mg  Mg89  1  0.00694529  0.41625765  0.75167764  1
  Mg  Mg90  1  0.83467448  0.83077699  0.75227026  1
  Mg  Mg91  1  0.32945438  0.41590479  0.24851869  1
  Mg  Mg92  1  0.00278592  0.08418369  0.25182717  1
  Mg  Mg93  1  0.50073984  0.16629080  0.75264950  1
  Mg  Mg94  1  0.83266430  0.83403811  0.25100217  1
  Mg  Mg95  1  0.32801044  0.91513052  0.25079651  1
  Fe  Fe96  1  0.31144013  0.33773116  0.39048145  1
  Fe  Fe97  1  0.31284050  0.16574725  0.39276960  1
  Fe  Fe98  1  0.14111269  0.58857432  0.39092975  1
  Fe  Fe99  1  0.02247060  0.33504343  0.10786237  1
  Fe  Fe100  1  0.69192858  0.84187067  0.60966834  1
  Fe  Fe101  1  0.52628690  0.58035445  0.10409477  1
  Fe  Fe102  1  0.36042007  0.83225196  0.60629203  1
  Fe  Fe103  1  0.19383174  0.41962182  0.10756278  1
  Fe  Fe104  1  0.14351751  0.91080191  0.39202493  1
  Fe  Fe105  1  0.68861041  0.66816151  0.60542605  1
  Fe  Fe106  1  0.64040780  0.16690085  0.89350041  1
  Fe  Fe107  1  0.97990819  0.83160438  0.89143558  1
  Fe  Fe108  1  0.52152187  0.41538791  0.60895571  1
  Fe  Fe109  1  0.85729501  0.58553930  0.10781924  1
  Fe  Fe110  1  0.18893732  0.08270065  0.11054571  1
  Fe  Fe111  1  0.18760329  0.91970281  0.61019338  1
  Fe  Fe112  1  0.69209572  0.16350821  0.60977873  1
  Si  Si113  1  0.80092463  0.57957342  0.38226838  1
  Si  Si114  1  0.47359884  0.42120530  0.88678131  1
  Si  Si115  1  0.69393788  0.16303639  0.11607752  1
  Si  Si116  1  0.18660951  0.91399174  0.11406762  1
  Si  Si117  1  0.63828648  0.16757437  0.38520507  1
  Si  Si118  1  0.85511310  0.91506059  0.11525126  1
  Si  Si119  1  0.47532199  0.91208683  0.88630987  1
  Si  Si120  1  0.97692401  0.16636462  0.88640695  1
  Si  Si121  1  0.69404923  0.67361504  0.10721927  1
  Si  Si122  1  0.02592307  0.66918738  0.11312348  1
  Si  Si123  1  0.64322000  0.66677029  0.88213805  1
  Si  Si124  1  0.14778122  0.91987144  0.89038418  1
  Si  Si125  1  0.64140654  0.83143551  0.38244541  1
  Si  Si126  1  0.03004453  0.17387498  0.61678004  1
  Si  Si127  1  0.30695131  0.66512517  0.88697457  1
  Si  Si128  1  0.86863909  0.91719463  0.61263539  1
  Si  Si129  1  0.97937269  0.65915698  0.88841325  1
  Si  Si130  1  0.14405545  0.08695872  0.88575460  1
  Si  Si131  1  0.51673603  0.08427003  0.61456861  1
  Si  Si132  1  0.52730898  0.08475273  0.11534764  1
  Si  Si133  1  0.30792913  0.82906787  0.88661334  1
  Si  Si134  1  0.19323500  0.41498874  0.61815086  1
  Si  Si135  1  0.02787663  0.33573578  0.61708440  1
  Si  Si136  1  0.01937849  0.83210457  0.11740794  1
  Si  Si137  1  0.31771719  0.66708110  0.38667137  1
  Si  Si138  1  0.80754467  0.91502923  0.88933781  1
  Si  Si139  1  0.30923581  0.16872628  0.88807174  1
  Si  Si140  1  0.52176087  0.92048826  0.11395277  1
  Si  Si141  1  0.97573144  0.33319804  0.88627256  1
  Si  Si142  1  0.85742056  0.07915156  0.11518740  1
  Si  Si143  1  0.47859380  0.42419457  0.38385286  1
  Si  Si144  1  0.80802454  0.58271797  0.88507096  1
  Si  Si145  1  0.86996760  0.08321759  0.61296275  1
  Si  Si146  1  0.69359510  0.32781112  0.11425590  1
  Si  Si147  1  0.31861417  0.83052274  0.38745571  1
  Si  Si148  1  0.47075137  0.07815284  0.89174302  1
  Si  Si149  1  0.18791898  0.08858382  0.61681265  1
  Si  Si150  1  0.47431898  0.58510818  0.88299099  1
  Si  Si151  1  0.80291023  0.41456527  0.38317638  1
  Si  Si152  1  0.63925899  0.83348618  0.88539388  1
  Si  Si153  1  0.64210532  0.66856370  0.38036529  1
  Si  Si154  1  0.36427863  0.33046326  0.11135016  1
  Si  Si155  1  0.02817691  0.66033581  0.61714150  1
  Si  Si156  1  0.96834434  0.16640828  0.38550636  1
  Si  Si157  1  0.96423139  0.83236881  0.38976892  1
  Si  Si158  1  0.19206587  0.59252224  0.11177307  1
  Si  Si159  1  0.85061642  0.41777832  0.10899124  1
  Si  Si160  1  0.35913074  0.67167498  0.10978885  1
  Si  Si161  1  0.31236122  0.33381849  0.88799966  1
  Si  Si162  1  0.86472796  0.41605230  0.61632847  1
  Si  Si163  1  0.47985217  0.91366496  0.38501146  1
  Si  Si164  1  0.19287050  0.57866239  0.61702049  1
  Si  Si165  1  0.81329830  0.08177471  0.88964137  1
  Si  Si166  1  0.13437665  0.41774242  0.39270721  1
  Si  Si167  1  0.86228870  0.58095061  0.61346374  1
  Si  Si168  1  0.14398205  0.57699699  0.88653998  1
  Si  Si169  1  0.48004446  0.58624397  0.38114790  1
  Si  Si170  1  0.13639153  0.08515916  0.39205001  1
  Si  Si171  1  0.52461772  0.92310382  0.61198176  1
  Si  Si172  1  0.14377927  0.41237344  0.88565107  1
  Si  Si173  1  0.80167427  0.92053199  0.38530121  1
  Si  Si174  1  0.35393664  0.16657495  0.61973688  1
  Si  Si175  1  0.80419974  0.08573386  0.38602414  1
  Si  Si176  1  0.68682308  0.83734783  0.11318394  1
  Si  Si177  1  0.52764727  0.40904457  0.11017271  1
  Si  Si178  1  0.02898764  0.82431714  0.61433258  1
  Si  Si179  1  0.69649487  0.33609100  0.61095617  1
  Si  Si180  1  0.01918631  0.16218123  0.11055555  1
  Si  Si181  1  0.35420815  0.32989488  0.61489178  1
  Si  Si182  1  0.64153181  0.33803383  0.88893159  1
  Si  Si183  1  0.96407494  0.66797046  0.38876463  1
  Si  Si184  1  0.80907818  0.41730912  0.88502826  1
  Si  Si185  1  0.47920117  0.07686003  0.38817739  1
  Si  Si186  1  0.96710839  0.33425219  0.38484403  1
  Si  Si187  1  0.34929274  0.66436095  0.61204479  1
  Si  Si188  1  0.63734140  0.33335126  0.38353226  1
  Si  Si189  1  0.51692275  0.58022938  0.60697606  1
  Si  Si190  1  0.35590197  0.83666921  0.11370908  1
  Si  Si191  1  0.36234192  0.16482728  0.11222677  1
  O  O192  1  0.28748508  0.11296992  0.07726063  1
  O  O193  1  0.27527400  0.11291880  0.59074227  1
  O  O194  1  0.27174616  0.62861170  0.08145962  1
  O  O195  1  0.27267903  0.60559590  0.58352143  1
  O  O196  1  0.61226281  0.11173243  0.08775561  1
  O  O197  1  0.59377752  0.10974940  0.57821251  1
  O  O198  1  0.61965798  0.61986092  0.07266065  1
  O  O199  1  0.59349914  0.60995493  0.57157790  1
  O  O200  1  0.93805904  0.10490082  0.08397730  1
  O  O201  1  0.95115917  0.12155751  0.58641711  1
  O  O202  1  0.95671717  0.61251367  0.07679142  1
  O  O203  1  0.95035863  0.60585700  0.58784494  1
  O  O204  1  0.10857524  0.36184755  0.06310147  1
  O  O205  1  0.10929685  0.36598910  0.58748364  1
  O  O206  1  0.10350493  0.86089912  0.08992691  1
  O  O207  1  0.10562684  0.84825809  0.57851354  1
  O  O208  1  0.45461758  0.34849495  0.08574292  1
  O  O209  1  0.43354076  0.34916695  0.57988283  1
  O  O210  1  0.43555686  0.87538998  0.08483715  1
  O  O211  1  0.45939046  0.86260446  0.57686594  1
  O  O212  1  0.77512216  0.35563865  0.08494281  1
  O  O213  1  0.78604046  0.36313842  0.58703262  1
  O  O214  1  0.76941998  0.86836200  0.08495460  1
  O  O215  1  0.78417275  0.88075925  0.57325101  1
  O  O216  1  0.29346929  0.38538556  0.07601388  1
  O  O217  1  0.27209176  0.38166489  0.58592619  1
  O  O218  1  0.26821885  0.87837647  0.08398876  1
  O  O219  1  0.28224536  0.90250046  0.57450860  1
  O  O220  1  0.61188688  0.37689660  0.08336278  1
  O  O221  1  0.62401001  0.39287749  0.57977695  1
  O  O222  1  0.60423407  0.88895815  0.08549061  1
  O  O223  1  0.61196042  0.91547499  0.58307390  1
  O  O224  1  0.92850240  0.39590317  0.07338551  1
  O  O225  1  0.94671653  0.38667173  0.58597603  1
  O  O226  1  0.93625664  0.88305186  0.08610483  1
  O  O227  1  0.94737784  0.87591258  0.58615082  1
  O  O228  1  0.09477717  0.13735092  0.07167426  1
  O  O229  1  0.11662631  0.15186812  0.59032803  1
  O  O230  1  0.11561573  0.65161916  0.08799695  1
  O  O231  1  0.10999828  0.62954357  0.58743752  1
  O  O232  1  0.45057097  0.13877535  0.08516454  1
  O  O233  1  0.43672621  0.14022389  0.58975240  1
  O  O234  1  0.43288933  0.63973708  0.07372402  1
  O  O235  1  0.43635840  0.63676143  0.58784635  1
  O  O236  1  0.77425423  0.12981289  0.08677606  1
  O  O237  1  0.78527957  0.12320186  0.57603338  1
  O  O238  1  0.78011728  0.66075394  0.07847445  1
  O  O239  1  0.78557211  0.62793623  0.57462901  1
  O  O240  1  0.05217322  0.12198565  0.41816277  1
  O  O241  1  0.06578369  0.12462237  0.91523824  1
  O  O242  1  0.05192892  0.63441658  0.42537259  1
  O  O243  1  0.06373778  0.60940415  0.91746665  1
  O  O244  1  0.40233007  0.09827468  0.42385919  1
  O  O245  1  0.39005966  0.11782393  0.91870304  1
  O  O246  1  0.39907586  0.61279303  0.41278838  1
  O  O247  1  0.39951081  0.62743047  0.91486683  1
  O  O248  1  0.72581665  0.12409031  0.41456528  1
  O  O249  1  0.74436217  0.12154782  0.92582852  1
  O  O250  1  0.72058161  0.61527929  0.41072373  1
  O  O251  1  0.73154332  0.62309757  0.91572526  1
  O  O252  1  0.21522124  0.36924748  0.42401431  1
  O  O253  1  0.23143605  0.36827445  0.91661113  1
  O  O254  1  0.24032627  0.85387486  0.42191375  1
  O  O255  1  0.23899047  0.87841162  0.91821821  1
  O  O256  1  0.55978241  0.37027419  0.41250065  1
  O  O257  1  0.56607811  0.38485403  0.91574279  1
  O  O258  1  0.55865737  0.85821546  0.41160547  1
  O  O259  1  0.56401873  0.87119372  0.92078410  1
  O  O260  1  0.88718266  0.36933637  0.41613868  1
  O  O261  1  0.89722228  0.37339949  0.91415927  1
  O  O262  1  0.88657077  0.87704444  0.41647848  1
  O  O263  1  0.88838658  0.87024840  0.92617448  1
  O  O264  1  0.05121246  0.37802566  0.41859413  1
  O  O265  1  0.06441716  0.37458347  0.91561239  1
  O  O266  1  0.05161167  0.86696208  0.42479529  1
  O  O267  1  0.07761187  0.88534085  0.92857829  1
  O  O268  1  0.39999789  0.40639401  0.41889938  1
  O  O269  1  0.39960499  0.37874904  0.91923162  1
  O  O270  1  0.39895583  0.88565736  0.41535914  1
  O  O271  1  0.40058575  0.86610007  0.91422658  1
  O  O272  1  0.72455564  0.37695814  0.41280742  1
  O  O273  1  0.73176460  0.38059412  0.91592432  1
  O  O274  1  0.72034215  0.88489471  0.41166055  1
  O  O275  1  0.72450300  0.88033995  0.91659936  1
  O  O276  1  0.21567428  0.13454034  0.42461988  1
  O  O277  1  0.22748059  0.13539923  0.91600911  1
  O  O278  1  0.24100060  0.64156580  0.42223891  1
  O  O279  1  0.23230457  0.62121131  0.91706662  1
  O  O280  1  0.56234685  0.12914181  0.41511951  1
  O  O281  1  0.55584688  0.11670459  0.92983816  1
  O  O282  1  0.55819559  0.64218787  0.40839788  1
  O  O283  1  0.56419215  0.62709747  0.91209093  1
  O  O284  1  0.88875513  0.13084470  0.41718078  1
  O  O285  1  0.90488416  0.12220216  0.91732260  1
  O  O286  1  0.88632564  0.62269478  0.41397430  1
  O  O287  1  0.89768359  0.62220129  0.91544834  1
  O  O288  1  0.16628318  -0.01107187  0.07467920  1
  O  O289  1  0.15112091  0.01481852  0.58307043  1
  O  O290  1  0.17162625  0.51649606  0.07483283  1
  O  O291  1  0.17150950  0.49657227  0.58776302  1
  O  O292  1  0.50637165  0.00302412  0.08573187  1
  O  O293  1  0.48397944  0.00404495  0.58867782  1
  O  O294  1  0.50340639  0.48502281  0.07361963  1
  O  O295  1  0.48302564  0.50393244  0.57246642  1
  O  O296  1  0.83385141  -0.00291285  0.08677978  1
  O  O297  1  0.87207296  0.00073469  0.58493476  1
  O  O298  1  0.81108549  0.49484923  0.08056655  1
  O  O299  1  0.84538026  0.49691342  0.58641968  1
  O  O300  1  -0.01733278  0.24006449  0.08413957  1
  O  O301  1  0.00478031  0.25456376  0.58656562  1
  O  O302  1  -0.00133929  0.75165173  0.08545038  1
  O  O303  1  0.00235227  0.74104616  0.58827815  1
  O  O304  1  0.34377219  0.24724499  0.08411594  1
  O  O305  1  0.32441773  0.24691897  0.59202282  1
  O  O306  1  0.34522056  0.75574357  0.08306947  1
  O  O307  1  0.32350701  0.73942554  0.57405309  1
  O  O308  1  0.67372639  0.24450102  0.08717221  1
  O  O309  1  0.67745785  0.25771475  0.57620361  1
  O  O310  1  0.66143529  0.75738094  0.08457400  1
  O  O311  1  0.66855065  0.75629268  0.56311066  1
  O  O312  1  0.14729986  0.00541746  0.42531515  1
  O  O313  1  0.16158832  0.00533184  0.91552675  1
  O  O314  1  0.14368799  0.49649156  0.42945255  1
  O  O315  1  0.15758321  0.49458930  0.91660934  1
  O  O316  1  0.51108522  -0.00587520  0.41149097  1
  O  O317  1  0.47270229  -0.00628477  0.91900922  1
  O  O318  1  0.51301661  0.50630059  0.40751317  1
  O  O319  1  0.48004246  0.50372237  0.91672058  1
  O  O320  1  0.81109384  0.00299942  0.41478598  1
  O  O321  1  0.81975554  -0.00144654  0.91829105  1
  O  O322  1  0.81067742  0.49721851  0.41191678  1
  O  O323  1  0.81692551  0.49965387  0.91445494  1
  O  O324  1  0.34786590  0.25205451  0.43274785  1
  O  O325  1  0.32645952  0.25081475  0.91832491  1
  O  O326  1  0.35109258  0.74843387  0.41148753  1
  O  O327  1  0.31080948  0.74694583  0.91964180  1
  O  O328  1  0.65005744  0.25052927  0.41258571  1
  O  O329  1  0.64627687  0.26187965  0.92740817  1
  O  O330  1  0.66710171  0.74990235  0.40856604  1
  O  O331  1  0.65027195  0.74955525  0.91419364  1
  O  O332  1  0.97500935  0.25024834  0.41215962  1
  O  O333  1  0.98156301  0.24972065  0.91488956  1
  O  O334  1  0.95249372  0.75012606  0.41618308  1
  O  O335  1  0.99638270  0.73653591  0.92429832  1
  O  O336  1  0.20979550  0.07871382  0.20188715  1
  O  O337  1  0.20781466  0.08760402  0.69793718  1
  O  O338  1  0.21238197  0.58874043  0.19250347  1
  O  O339  1  0.21053436  0.58205977  0.69657985  1
  O  O340  1  0.54414173  0.08238342  0.19600291  1
  O  O341  1  0.54145092  0.08573520  0.69570126  1
  O  O342  1  0.54516714  0.58310361  0.19603432  1
  O  O343  1  0.54587610  0.57356825  0.68701887  1
  O  O344  1  0.87298578  0.08097346  0.19568766  1
  O  O345  1  0.88058305  0.08453825  0.69414319  1
  O  O346  1  0.87716037  0.58490064  0.20002652  1
  O  O347  1  0.87856238  0.58190730  0.69460437  1
  O  O348  1  0.04883700  0.34534062  0.19611532  1
  O  O349  1  0.04064168  0.33317446  0.69651006  1
  O  O350  1  0.03099588  0.83221375  0.19664470  1
  O  O351  1  0.04567201  0.82812085  0.69527759  1
  O  O352  1  0.37987802  0.33240818  0.19219210  1
  O  O353  1  0.37534901  0.33396656  0.69600587  1
  O  O354  1  0.37681493  0.83574220  0.19401409  1
  O  O355  1  0.38223662  0.82524560  0.69644427  1
  O  O356  1  0.70792476  0.33049216  0.19490837  1
  O  O357  1  0.71204491  0.33348710  0.69307560  1
  O  O358  1  0.70730068  0.83698382  0.19397343  1
  O  O359  1  0.71890097  0.83693177  0.70074723  1
  O  O360  1  0.21275878  0.42378022  0.19817477  1
  O  O361  1  0.21330082  0.41495461  0.69697572  1
  O  O362  1  0.21135762  0.91834719  0.19367245  1
  O  O363  1  0.19830391  0.91773328  0.70076905  1
  O  O364  1  0.54489632  0.41431399  0.19145146  1
  O  O365  1  0.54425189  0.41479832  0.70138582  1
  O  O366  1  0.54184668  0.91839195  0.19450265  1
  O  O367  1  0.54256726  0.92125133  0.69371829  1
  O  O368  1  0.87111789  0.41630692  0.19085647  1
  O  O369  1  0.88045212  0.41570442  0.69688403  1
  O  O370  1  0.87148782  0.91570122  0.19578904  1
  O  O371  1  0.88056811  0.91811225  0.69362458  1
  O  O372  1  0.04469716  0.15441216  0.19053178  1
  O  O373  1  0.04396240  0.17017351  0.69728097  1
  O  O374  1  0.03928281  0.66924825  0.19399810  1
  O  O375  1  0.04548354  0.66241298  0.69758934  1
  O  O376  1  0.38101470  0.16277057  0.19293177  1
  O  O377  1  0.37565634  0.16815116  0.70047263  1
  O  O378  1  0.37777595  0.66942653  0.19085730  1
  O  O379  1  0.36103648  0.66504135  0.69205302  1
  O  O380  1  0.70902212  0.16387749  0.19656927  1
  O  O381  1  0.71455080  0.16650018  0.70149219  1
  O  O382  1  0.70853021  0.66939782  0.18929784  1
  O  O383  1  0.71540144  0.66408580  0.69632748  1
  O  O384  1  0.11943132  0.08260441  0.31056343  1
  O  O385  1  0.12308023  0.08626616  0.80562947  1
  O  O386  1  0.12118744  0.58578723  0.29915475  1
  O  O387  1  0.12404241  0.58222969  0.80720412  1
  O  O388  1  0.46046149  0.08132062  0.30676048  1
  O  O389  1  0.45746862  0.08380323  0.81135259  1
  O  O390  1  0.45780843  0.58621738  0.30064660  1
  O  O391  1  0.45376900  0.57910748  0.80412959  1
  O  O392  1  0.78664490  0.08347004  0.30547802  1
  O  O393  1  0.79527288  0.08284239  0.80877873  1
  O  O394  1  0.78399570  0.58221119  0.30187206  1
  O  O395  1  0.79220922  0.58108062  0.80508662  1
  O  O396  1  0.29599685  0.33395991  0.29961218  1
  O  O397  1  0.29764240  0.33374901  0.80874794  1
  O  O398  1  0.30029358  0.83272339  0.30696344  1
  O  O399  1  0.28438698  0.82444710  0.80811050  1
  O  O400  1  0.62186082  0.33275407  0.30290894  1
  O  O401  1  0.62562827  0.33368189  0.80825715  1
  O  O402  1  0.62275956  0.83357338  0.30158534  1
  O  O403  1  0.62024563  0.83818587  0.80661665  1
  O  O404  1  0.94728558  0.33971255  0.30560881  1
  O  O405  1  0.95689951  0.33340591  0.80597307  1
  O  O406  1  0.95002143  0.83418531  0.30862817  1
  O  O407  1  0.95914320  0.83315038  0.79999293  1
  O  O408  1  0.11690903  0.42476842  0.31277011  1
  O  O409  1  0.12259493  0.41360869  0.80702574  1
  O  O410  1  0.12121528  0.91618887  0.30146221  1
  O  O411  1  0.12377867  0.91698850  0.81010938  1
  O  O412  1  0.46098527  0.41939052  0.30258438  1
  O  O413  1  0.45498808  0.41746797  0.80689506  1
  O  O414  1  0.45976159  0.91474377  0.30406490  1
  O  O415  1  0.46692672  0.91791101  0.80786535  1
  O  O416  1  0.78611059  0.41509005  0.30269530  1
  O  O417  1  0.79098226  0.41592908  0.80453568  1
  O  O418  1  0.78594010  0.91880653  0.30455329  1
  O  O419  1  0.79390096  0.91702928  0.80884848  1
  O  O420  1  0.29457306  0.16625366  0.30066641  1
  O  O421  1  0.29133747  0.16985784  0.80802625  1
  O  O422  1  0.29519508  0.66631786  0.30541163  1
  O  O423  1  0.28916901  0.66479531  0.80720302  1
  O  O424  1  0.62218946  0.16596282  0.30459220  1
  O  O425  1  0.62114126  0.16741177  0.80228075  1
  O  O426  1  0.62467375  0.66859275  0.29984029  1
  O  O427  1  0.63078162  0.66434750  0.80408581  1
  O  O428  1  0.94848029  0.15954609  0.30613074  1
  O  O429  1  0.95736946  0.16660724  0.80591307  1
  O  O430  1  0.95198649  0.66832081  0.30781550  1
  O  O431  1  0.96092883  0.66143371  0.80753206  1
  F  F432  1  0.03976194  -0.00176906  0.20353271  1
  F  F433  1  0.04527422  0.00143816  0.70563930  1
  F  F434  1  0.04214368  0.50185575  0.20235492  1
  F  F435  1  0.04029757  0.49846450  0.70128543  1
  F  F436  1  0.37996415  -0.00169715  0.20329774  1
  F  F437  1  0.38280802  0.01325005  0.70339510  1
  F  F438  1  0.37974593  0.50151962  0.20020450  1
  F  F439  1  0.37741164  0.49831924  0.70184360  1
  F  F440  1  0.70987161  0.00061824  0.20172973  1
  F  F441  1  0.71551467  0.00230005  0.70532162  1
  F  F442  1  0.71010305  0.49821461  0.19906811  1
  F  F443  1  0.71541393  0.49800874  0.70201994  1
  F  F444  1  0.21521471  0.23936563  0.19142841  1
  F  F445  1  0.21248696  0.24957151  0.70527084  1
  F  F446  1  0.21390348  0.74874348  0.20343873  1
  F  F447  1  0.20916110  0.74664937  0.70417841  1
  F  F448  1  0.54655441  0.24749443  0.20181775  1
  F  F449  1  0.54415664  0.25174981  0.70360243  1
  F  F450  1  0.54421779  0.75333699  0.19709549  1
  F  F451  1  0.55164972  0.76332197  0.69313307  1
  F  F452  1  0.86231295  0.24778757  0.19781201  1
  F  F453  1  0.88105203  0.24966516  0.70404599  1
  F  F454  1  0.87662257  0.75212409  0.20434428  1
  F  F455  1  0.88210909  0.74606276  0.70171604  1
  F  F456  1  0.29152015  -0.00289519  0.30107821  1
  F  F457  1  0.28363037  0.01206285  0.80633021  1
  F  F458  1  0.29088406  0.50453217  0.29787717  1
  F  F459  1  0.29418909  0.50011778  0.80256261  1
  F  F460  1  0.62163108  -0.00044045  0.29809295  1
  F  F461  1  0.62329532  0.00165237  0.79829812  1
  F  F462  1  0.62312001  0.49881525  0.29522958  1
  F  F463  1  0.62382782  0.50178686  0.79778264  1
  F  F464  1  0.95016116  -0.00184831  0.29948774  1
  F  F465  1  0.95605116  0.00089708  0.79881999  1
  F  F466  1  0.95040631  0.49949879  0.29850175  1
  F  F467  1  0.95482286  0.49801197  0.80004523  1
  F  F468  1  0.13471714  0.24565397  0.30165268  1
  F  F469  1  0.11852708  0.24501620  0.80535811  1
  F  F470  1  0.11828678  0.74627662  0.30088767  1
  F  F471  1  0.12183894  0.74668537  0.80034801  1
  F  F472  1  0.45782993  0.24990673  0.29652778  1
  F  F473  1  0.45525231  0.25164170  0.80026451  1
  F  F474  1  0.45748716  0.74916485  0.29335763  1
  F  F475  1  0.45222700  0.75635382  0.80457344  1
  F  F476  1  0.78477999  0.24884803  0.29970439  1
  F  F477  1  0.79102546  0.25247082  0.80023874  1
  F  F478  1  0.78316281  0.75058603  0.29553872  1
  F  F479  1  0.80656087  0.74808447  0.80690042  1
