# generated using pymatgen
data_K24Na3Li5Mg64Fe17Si79(O5F)48
_symmetry_space_group_name_H-M   'P 1'
_cell_length_a   16.08446284
_cell_length_b   18.58663002
_cell_length_c   20.54963324
_cell_angle_alpha   89.99698130
_cell_angle_beta   100.01338865
_cell_angle_gamma   89.98610884
_symmetry_Int_Tables_number   1
_chemical_formula_structural   K24Na3Li5Mg64Fe17Si79(O5F)48
_chemical_formula_sum   'K24 Na3 Li5 Mg64 Fe17 Si79 O240 F48'
_cell_volume   6049.85308735
_cell_formula_units_Z   1
loop_
 _symmetry_equiv_pos_site_id
 _symmetry_equiv_pos_as_xyz
  1  'x, y, z'
loop_
 _atom_site_type_symbol
 _atom_site_label
 _atom_site_symmetry_multiplicity
 _atom_site_fract_x
 _atom_site_fract_y
 _atom_site_fract_z
 _atom_site_occupancy
  K  K0  1  0.00020015  0.00757621  -0.00771380  1
  K  K1  1  -0.00053035  -0.00123194  0.50539950  1
  K  K2  1  0.00276042  0.50264202  -0.01221930  1
  K  K3  1  0.00101189  0.50617952  0.51317015  1
  K  K4  1  0.32277573  0.00002714  -0.00410112  1
  K  K5  1  0.34050296  0.00305557  0.50048020  1
  K  K6  1  0.33667093  0.50387900  -0.00383827  1
  K  K7  1  0.34564208  0.50132620  0.50508944  1
  K  K8  1  0.67664499  -0.00165356  -0.00286182  1
  K  K9  1  0.66212860  0.00237661  0.50581046  1
  K  K10  1  0.65346561  0.49732712  -0.01203315  1
  K  K11  1  0.65401289  0.50924839  0.50677269  1
  K  K12  1  0.16655475  0.24532844  -0.00569555  1
  K  K13  1  0.15969475  0.24545200  0.50813931  1
  K  K14  1  0.17066640  0.75268418  -0.00195612  1
  K  K15  1  0.15803091  0.75785466  0.50230881  1
  K  K16  1  0.50745530  0.24540406  -0.00317351  1
  K  K17  1  0.51183889  0.25186094  0.50806047  1
  K  K18  1  0.49367434  0.75198424  -0.00244090  1
  K  K19  1  0.50654807  0.74740257  0.50216871  1
  K  K20  1  0.82808477  0.24185721  -0.00917490  1
  K  K21  1  0.83366710  0.24343675  0.50474856  1
  K  K22  1  0.82149266  0.75051064  -0.00117667  1
  K  K23  1  0.83395374  0.74871519  0.50427507  1
  Na  Na24  1  0.16426459  -0.00033404  0.25030609  1
  Na  Na25  1  0.00065307  0.08309803  0.75468980  1
  Na  Na26  1  0.00161844  0.42105473  0.75183801  1
  Li  Li27  1  0.67557967  0.24560596  0.25106404  1
  Li  Li28  1  -0.00065912  0.75406345  0.25647150  1
  Li  Li29  1  0.66041414  0.58457213  0.74962064  1
  Li  Li30  1  0.82926217  0.16607553  0.25396064  1
  Li  Li31  1  0.50390486  0.66440147  0.74917290  1
  Mg  Mg32  1  0.83424293  0.49797602  0.25007842  1
  Mg  Mg33  1  0.66703303  0.75089733  0.25511391  1
  Mg  Mg34  1  0.16740652  0.50063325  0.24753992  1
  Mg  Mg35  1  0.66298777  0.74565474  0.75153845  1
  Mg  Mg36  1  0.82962054  0.50303912  0.75113398  1
  Mg  Mg37  1  0.16742485  0.50184071  0.74903214  1
  Mg  Mg38  1  0.83161669  -0.00027536  0.75302313  1
  Mg  Mg39  1  0.16424034  0.00015246  0.75107253  1
  Mg  Mg40  1  0.00084486  0.25267523  0.75190476  1
  Mg  Mg41  1  0.66551263  0.25089749  0.74769200  1
  Mg  Mg42  1  0.50107351  0.00008712  0.24753602  1
  Mg  Mg43  1  0.00052983  0.75059617  0.75246829  1
  Mg  Mg44  1  0.50039901  0.00042279  0.74703969  1
  Mg  Mg45  1  -0.00195794  0.24814072  0.24819806  1
  Mg  Mg46  1  0.33231879  0.75051234  0.24864932  1
  Mg  Mg47  1  0.50033838  0.50033781  0.24973843  1
  Mg  Mg48  1  0.83327519  0.00052021  0.25465880  1
  Mg  Mg49  1  0.33490063  0.24949671  0.74496577  1
  Mg  Mg50  1  0.33443210  0.75079026  0.75301975  1
  Mg  Mg51  1  0.50352706  0.50293571  0.74868604  1
  Mg  Mg52  1  0.33479344  0.24763441  0.24419865  1
  Mg  Mg53  1  -0.00199418  0.91370356  0.25411580  1
  Mg  Mg54  1  0.00045455  0.91676282  0.75477250  1
  Mg  Mg55  1  0.33493050  0.58592468  0.24905414  1
  Mg  Mg56  1  0.50029809  0.16561778  0.74727410  1
  Mg  Mg57  1  0.33346880  0.08409992  0.24466985  1
  Mg  Mg58  1  0.83617551  0.83309188  0.25516826  1
  Mg  Mg59  1  0.67131847  0.08661605  0.24991065  1
  Mg  Mg60  1  0.16650889  0.66716188  0.75129017  1
  Mg  Mg61  1  0.66612891  0.91421247  0.75152727  1
  Mg  Mg62  1  0.33706757  0.58608589  0.74894691  1
  Mg  Mg63  1  0.50251318  0.16658645  0.24427616  1
  Mg  Mg64  1  0.33250114  0.91548095  0.75146922  1
  Mg  Mg65  1  0.50332164  0.33110254  0.24689231  1
  Mg  Mg66  1  0.66742581  0.08365426  0.75011561  1
  Mg  Mg67  1  0.66406352  0.41948538  0.74912417  1
  Mg  Mg68  1  0.83069214  0.66587441  0.74981315  1
  Mg  Mg69  1  0.66752631  0.58341689  0.25191244  1
  Mg  Mg70  1  0.00077479  0.58524114  0.25095396  1
  Mg  Mg71  1  0.16768414  0.33303160  0.24786435  1
  Mg  Mg72  1  0.16428866  0.66750574  0.25002551  1
  Mg  Mg73  1  0.83732522  0.66698857  0.25333531  1
  Mg  Mg74  1  0.16122039  0.83349045  0.25243502  1
  Mg  Mg75  1  0.00047001  0.41492447  0.24812972  1
  Mg  Mg76  1  0.50169208  0.83404061  0.25034888  1
  Mg  Mg77  1  0.83255506  0.32827951  0.24889669  1
  Mg  Mg78  1  0.16612380  0.33492032  0.74861307  1
  Mg  Mg79  1  0.83265388  0.83427759  0.75504891  1
  Mg  Mg80  1  0.66811040  0.41194227  0.24924929  1
  Mg  Mg81  1  0.50093881  0.33582702  0.74554653  1
  Mg  Mg82  1  0.49858697  0.66511212  0.25100917  1
  Mg  Mg83  1  0.33374463  0.41637006  0.74828350  1
  Mg  Mg84  1  0.33562452  0.41521991  0.24825202  1
  Mg  Mg85  1  0.67003514  0.91592447  0.25436496  1
  Mg  Mg86  1  0.00021567  0.58514812  0.74993527  1
  Mg  Mg87  1  0.83338996  0.33620220  0.75241116  1
  Mg  Mg88  1  0.33297066  0.08428019  0.74429203  1
  Mg  Mg89  1  0.16572780  0.16632749  0.74844829  1
  Mg  Mg90  1  0.49901111  0.83101213  0.75151330  1
  Mg  Mg91  1  -0.00306750  0.08315584  0.25105353  1
  Mg  Mg92  1  0.16604670  0.16453380  0.24709962  1
  Mg  Mg93  1  0.33117069  0.91684267  0.24901105  1
  Mg  Mg94  1  0.83508098  0.16564021  0.75148103  1
  Mg  Mg95  1  0.16658654  0.83570354  0.75314830  1
  Fe  Fe96  1  0.52430434  0.41941462  0.60643798  1
  Fe  Fe97  1  0.35662965  0.16744667  0.60524030  1
  Fe  Fe98  1  0.47268498  0.58453477  0.39064363  1
  Fe  Fe99  1  0.02181649  0.66813601  0.61154473  1
  Fe  Fe100  1  0.35773933  0.16576631  0.10404982  1
  Fe  Fe101  1  0.02568939  0.16975682  0.60962133  1
  Fe  Fe102  1  0.80519291  0.90796642  0.89354971  1
  Fe  Fe103  1  0.64068290  0.83598024  0.39267821  1
  Fe  Fe104  1  0.30671843  0.83637208  0.89233588  1
  Fe  Fe105  1  0.13441471  0.92154916  0.89534999  1
  Fe  Fe106  1  0.14766653  0.41460562  0.89064138  1
  Fe  Fe107  1  0.64090599  0.33413723  0.88792555  1
  Fe  Fe108  1  0.81295723  0.07913960  0.89260376  1
  Fe  Fe109  1  0.97484962  0.82668146  0.39536860  1
  Fe  Fe110  1  0.80937872  0.92234014  0.39587553  1
  Fe  Fe111  1  0.35817993  0.66705158  0.10781035  1
  Fe  Fe112  1  0.52704553  0.08310249  0.60689312  1
  Si  Si113  1  0.47457667  0.08209423  0.38187864  1
  Si  Si114  1  0.97712454  0.17137071  0.38411538  1
  Si  Si115  1  0.80937592  0.41051917  0.38451304  1
  Si  Si116  1  0.52265147  0.58973193  0.61361329  1
  Si  Si117  1  0.81054050  0.58829397  0.88583954  1
  Si  Si118  1  0.14784663  0.09281275  0.88865791  1
  Si  Si119  1  0.02486565  0.83284230  0.11619027  1
  Si  Si120  1  0.69538893  0.33172636  0.11409660  1
  Si  Si121  1  0.35034466  0.33596167  0.60733848  1
  Si  Si122  1  0.63913155  0.66334815  0.88477876  1
  Si  Si123  1  0.63215059  0.82856358  0.88956222  1
  Si  Si124  1  0.85943158  0.08107276  0.11757653  1
  Si  Si125  1  0.31440845  0.16575907  0.88223893  1
  Si  Si126  1  0.52290290  0.91009459  0.61269847  1
  Si  Si127  1  0.47705236  0.41174170  0.38498123  1
  Si  Si128  1  0.02507866  0.33796600  0.61172639  1
  Si  Si129  1  0.02253154  0.16532100  0.11358651  1
  Si  Si130  1  0.97939989  0.33530053  0.38415037  1
  Si  Si131  1  0.52967193  0.41586503  0.11350999  1
  Si  Si132  1  0.53321019  0.58190201  0.11207129  1
  Si  Si133  1  0.85935485  0.41607086  0.11336945  1
  Si  Si134  1  0.01961068  0.83712691  0.61587065  1
  Si  Si135  1  0.97595670  0.65530743  0.38880222  1
  Si  Si136  1  0.19303134  0.07783533  0.60961801  1
  Si  Si137  1  0.80612956  0.42313201  0.88873971  1
  Si  Si138  1  0.80845823  0.57582737  0.38619541  1
  Si  Si139  1  0.85209483  0.58058433  0.61207278  1
  Si  Si140  1  0.85974253  0.91609095  0.11648936  1
  Si  Si141  1  0.29982320  0.66978096  0.38765709  1
  Si  Si142  1  0.47406413  0.57925649  0.88361724  1
  Si  Si143  1  0.53016383  0.91653725  0.11404735  1
  Si  Si144  1  0.14771299  0.58424698  0.88868886  1
  Si  Si145  1  0.18904154  0.91496436  0.11592598  1
  Si  Si146  1  0.18753109  0.08246196  0.11031456  1
  Si  Si147  1  0.47380149  0.92074254  0.88579895  1
  Si  Si148  1  0.53310023  0.08199421  0.10929695  1
  Si  Si149  1  0.64833366  0.66530666  0.38975109  1
  Si  Si150  1  0.97669746  0.17603465  0.89015834  1
  Si  Si151  1  0.14610529  0.41590636  0.38340028  1
  Si  Si152  1  0.19093263  0.42249125  0.61261213  1
  Si  Si153  1  0.14073056  0.57936110  0.38447854  1
  Si  Si154  1  0.81316504  0.08981526  0.38830201  1
  Si  Si155  1  0.96993347  0.33814466  0.88946514  1
  Si  Si156  1  0.13935232  0.08670101  0.38473456  1
  Si  Si157  1  0.97097915  0.82660435  0.89068391  1
  Si  Si158  1  0.64059295  0.16374891  0.38325513  1
  Si  Si159  1  0.85750181  0.41746958  0.61686172  1
  Si  Si160  1  0.30716016  0.16497745  0.38232795  1
  Si  Si161  1  0.18657127  0.58184424  0.11182045  1
  Si  Si162  1  0.31028206  0.32779622  0.88425706  1
  Si  Si163  1  0.02458972  0.33113909  0.11327542  1
  Si  Si164  1  0.46910109  0.41499004  0.88582848  1
  Si  Si165  1  0.69503329  0.83108052  0.11662947  1
  Si  Si166  1  0.13657196  0.91879070  0.38980671  1
  Si  Si167  1  0.35820796  0.84031363  0.11206579  1
  Si  Si168  1  0.47594121  0.08244992  0.88268176  1
  Si  Si169  1  0.35748973  0.33968746  0.10971026  1
  Si  Si170  1  0.35829649  0.66903778  0.61595966  1
  Si  Si171  1  0.30930760  0.32938848  0.38221916  1
  Si  Si172  1  0.86183011  0.58192291  0.11531774  1
  Si  Si173  1  0.69822976  0.66585488  0.11708798  1
  Si  Si174  1  0.35497921  0.83194893  0.61469657  1
  Si  Si175  1  0.18905477  0.91443516  0.61546868  1
  Si  Si176  1  0.46745088  0.91557916  0.38543833  1
  Si  Si177  1  0.31285234  0.66675664  0.88704777  1
  Si  Si178  1  0.02477203  0.66707731  0.11596262  1
  Si  Si179  1  0.69819630  0.16762647  0.61224451  1
  Si  Si180  1  0.19524716  0.58756846  0.61269668  1
  Si  Si181  1  0.69783084  0.33367633  0.61136109  1
  Si  Si182  1  0.97879057  0.66494348  0.88613722  1
  Si  Si183  1  0.69302120  0.83080296  0.61646673  1
  Si  Si184  1  0.69140836  0.66782693  0.61561390  1
  Si  Si185  1  0.69789843  0.16618352  0.11613588  1
  Si  Si186  1  0.85541083  0.91907778  0.61797635  1
  Si  Si187  1  0.85851413  0.08175872  0.61500187  1
  Si  Si188  1  0.64051952  0.16448200  0.88793737  1
  Si  Si189  1  0.18834624  0.41685662  0.11357107  1
  Si  Si190  1  0.64173649  0.32876143  0.38235211  1
  Si  Si191  1  0.30054663  0.83644810  0.38465737  1
  O  O192  1  0.25886588  0.11253244  0.07072772  1
  O  O193  1  0.27717039  0.09445325  0.57860084  1
  O  O194  1  0.26226393  0.60915533  0.07623994  1
  O  O195  1  0.28112894  0.61392717  0.58466982  1
  O  O196  1  0.61185170  0.12292421  0.08221237  1
  O  O197  1  0.62267040  0.11770478  0.57511466  1
  O  O198  1  0.61426415  0.61996063  0.08539066  1
  O  O199  1  0.60206812  0.62879119  0.58480479  1
  O  O200  1  0.93648493  0.11986087  0.08642722  1
  O  O201  1  0.93767037  0.10396235  0.58036080  1
  O  O202  1  0.93868726  0.62061653  0.08557507  1
  O  O203  1  0.92767638  0.60987713  0.57648244  1
  O  O204  1  0.10643728  0.36494348  0.08534241  1
  O  O205  1  0.10489633  0.37720465  0.58235239  1
  O  O206  1  0.10523681  0.86598082  0.08514686  1
  O  O207  1  0.10511806  0.86549694  0.58831493  1
  O  O208  1  0.43650325  0.38226641  0.08365111  1
  O  O209  1  0.42873662  0.36283447  0.57276220  1
  O  O210  1  0.43752494  0.88143173  0.08484119  1
  O  O211  1  0.43756399  0.86033700  0.58471260  1
  O  O212  1  0.77123458  0.37391615  0.08335995  1
  O  O213  1  0.78384663  0.36067578  0.58341569  1
  O  O214  1  0.77100781  0.87223198  0.08669251  1
  O  O215  1  0.77308911  0.86800338  0.58883294  1
  O  O216  1  0.27193811  0.39017954  0.08478312  1
  O  O217  1  0.27120118  0.39337193  0.58114012  1
  O  O218  1  0.27265859  0.88902717  0.08560906  1
  O  O219  1  0.27037020  0.88046711  0.58526979  1
  O  O220  1  0.60378854  0.37051126  0.08482370  1
  O  O221  1  0.61946773  0.38172468  0.57447334  1
  O  O222  1  0.60353040  0.86861953  0.08620427  1
  O  O223  1  0.60369432  0.87112314  0.58594134  1
  O  O224  1  0.93911933  0.37850836  0.08496614  1
  O  O225  1  0.94466479  0.39479727  0.58986433  1
  O  O226  1  0.93693107  0.87687812  0.08615293  1
  O  O227  1  0.94035114  0.89323646  0.58976289  1
  O  O228  1  0.09889825  0.12796220  0.08255537  1
  O  O229  1  0.11763852  0.13068403  0.57530351  1
  O  O230  1  0.10111874  0.62986493  0.08370652  1
  O  O231  1  0.11789908  0.63729197  0.57725103  1
  O  O232  1  0.44755478  0.12018763  0.07214038  1
  O  O233  1  0.44450920  0.14315059  0.56247148  1
  O  O234  1  0.44916113  0.62197378  0.07579197  1
  O  O235  1  0.44133773  0.64376749  0.58570476  1
  O  O236  1  0.77488396  0.12724785  0.08536429  1
  O  O237  1  0.78292359  0.13913613  0.58479638  1
  O  O238  1  0.77611918  0.62791351  0.08685294  1
  O  O239  1  0.76494362  0.62614768  0.58328623  1
  O  O240  1  0.06075644  0.12268838  0.41646973  1
  O  O241  1  0.07040242  0.13790087  0.91361263  1
  O  O242  1  0.05383975  0.59617911  0.41252471  1
  O  O243  1  0.06106344  0.61386819  0.91467230  1
  O  O244  1  0.39367391  0.11922796  0.40905072  1
  O  O245  1  0.39075332  0.10852045  0.91102690  1
  O  O246  1  0.37883526  0.62258988  0.42370394  1
  O  O247  1  0.39308214  0.61149164  0.91380408  1
  O  O248  1  0.72906745  0.12354617  0.41558130  1
  O  O249  1  0.71188165  0.10744983  0.92099272  1
  O  O250  1  0.72699450  0.60693692  0.41417435  1
  O  O251  1  0.73039511  0.62320030  0.91693792  1
  O  O252  1  0.22889731  0.36570621  0.41072712  1
  O  O253  1  0.23150631  0.34479106  0.92116744  1
  O  O254  1  0.22426699  0.87247493  0.41673033  1
  O  O255  1  0.22123462  0.86299684  0.93623883  1
  O  O256  1  0.56231442  0.36341366  0.41247255  1
  O  O257  1  0.54658641  0.36673179  0.92303718  1
  O  O258  1  0.53881279  0.86166542  0.42181392  1
  O  O259  1  0.54741257  0.86130432  0.91460591  1
  O  O260  1  0.89800756  0.36753667  0.41347633  1
  O  O261  1  0.88724989  0.37135422  0.91831562  1
  O  O262  1  0.88432492  0.85249284  0.43423926  1
  O  O263  1  0.88294981  0.83311772  0.91843969  1
  O  O264  1  0.06346753  0.38511352  0.41232609  1
  O  O265  1  0.04786653  0.38947590  0.92164841  1
  O  O266  1  0.06651053  0.88947408  0.43044314  1
  O  O267  1  0.03786637  0.88582326  0.92568300  1
  O  O268  1  0.39603770  0.37266700  0.41113766  1
  O  O269  1  0.38411876  0.38697289  0.91327720  1
  O  O270  1  0.38084919  0.88890125  0.41183935  1
  O  O271  1  0.39385447  0.90390984  0.92076569  1
  O  O272  1  0.73108178  0.37128891  0.41248356  1
  O  O273  1  0.72847568  0.39810516  0.92390300  1
  O  O274  1  0.71058596  0.90862908  0.42883628  1
  O  O275  1  0.71074459  0.87350098  0.92885831  1
  O  O276  1  0.22782087  0.13118996  0.41313185  1
  O  O277  1  0.23331180  0.14283857  0.91606357  1
  O  O278  1  0.21411530  0.63768873  0.41346520  1
  O  O279  1  0.22748499  0.63947702  0.91517448  1
  O  O280  1  0.56123478  0.12648886  0.41314958  1
  O  O281  1  0.55012386  0.13979084  0.91170961  1
  O  O282  1  0.56978913  0.63790190  0.42363250  1
  O  O283  1  0.56311254  0.62108139  0.91525422  1
  O  O284  1  0.89182694  0.14840811  0.41220931  1
  O  O285  1  0.90772251  0.13732527  0.92744803  1
  O  O286  1  0.89414229  0.61986881  0.41735408  1
  O  O287  1  0.89668366  0.63501182  0.91748273  1
  O  O288  1  0.16588547  -0.00254012  0.08984544  1
  O  O289  1  0.16702636  -0.00593428  0.58420790  1
  O  O290  1  0.16129616  0.49802163  0.08724714  1
  O  O291  1  0.17459554  0.50493068  0.58420599  1
  O  O292  1  0.53523675  -0.00260069  0.08338227  1
  O  O293  1  0.50690665  -0.01338096  0.57584752  1
  O  O294  1  0.53297865  0.49784142  0.08453988  1
  O  O295  1  0.50520415  0.51429240  0.57324427  1
  O  O296  1  0.84782910  -0.00137200  0.08722063  1
  O  O297  1  0.82911611  -0.00070645  0.58841157  1
  O  O298  1  0.85096679  0.49947560  0.08529272  1
  O  O299  1  0.83086296  0.49743369  0.58505142  1
  O  O300  1  0.00994754  0.24877084  0.08495560  1
  O  O301  1  0.00321268  0.26376592  0.57069443  1
  O  O302  1  0.01073071  0.74952737  0.08744889  1
  O  O303  1  -0.00607062  0.76129981  0.57957412  1
  O  O304  1  0.34298320  0.26271892  0.07378807  1
  O  O305  1  0.31439912  0.25913882  0.57735473  1
  O  O306  1  0.34563922  0.76252117  0.07658446  1
  O  O307  1  0.33346957  0.75030110  0.58531970  1
  O  O308  1  0.69065464  0.24927475  0.08545194  1
  O  O309  1  0.68343903  0.25057915  0.58303387  1
  O  O310  1  0.68997678  0.74805355  0.08685785  1
  O  O311  1  0.68522241  0.74975114  0.58405914  1
  O  O312  1  0.15667122  0.00437180  0.41197852  1
  O  O313  1  0.15704854  0.01712657  0.92815636  1
  O  O314  1  0.16911540  0.49746540  0.41174464  1
  O  O315  1  0.17272939  0.50863352  0.92588887  1
  O  O316  1  0.48358264  -0.00000256  0.41178371  1
  O  O317  1  0.50696454  0.00248716  0.91167061  1
  O  O318  1  0.49042907  0.48883727  0.42059321  1
  O  O319  1  0.48600229  0.49781295  0.91542765  1
  O  O320  1  0.84403934  0.01660221  0.42657850  1
  O  O321  1  0.83952714  -0.00718583  0.93624231  1
  O  O322  1  0.82169237  0.49247500  0.41409662  1
  O  O323  1  0.82953045  0.50658980  0.91627227  1
  O  O324  1  0.32036560  0.24744507  0.41131265  1
  O  O325  1  0.34663628  0.24642205  0.90891909  1
  O  O326  1  0.31263329  0.75394675  0.41436122  1
  O  O327  1  0.34189316  0.74257742  0.92133903  1
  O  O328  1  0.65129606  0.24679912  0.41235524  1
  O  O329  1  0.66499177  0.24192949  0.92336206  1
  O  O330  1  0.68078626  0.74272213  0.41953351  1
  O  O331  1  0.64213569  0.74447933  0.91823295  1
  O  O332  1  1.00006324  0.25405604  0.41279601  1
  O  O333  1  0.98860525  0.25776805  0.92333994  1
  O  O334  1  1.00421597  0.73012915  0.42429815  1
  O  O335  1  1.00689952  0.74459782  0.91561432  1
  O  O336  1  0.21265935  0.09144625  0.18982771  1
  O  O337  1  0.20898566  0.08145811  0.69117322  1
  O  O338  1  0.20803273  0.58312999  0.19314920  1
  O  O339  1  0.21231345  0.58694182  0.69359550  1
  O  O340  1  0.54522347  0.08293068  0.19017111  1
  O  O341  1  0.54576699  0.08299504  0.69922781  1
  O  O342  1  0.54763592  0.58213521  0.19304124  1
  O  O343  1  0.53948753  0.58317689  0.69237537  1
  O  O344  1  0.87704399  0.08113196  0.19700937  1
  O  O345  1  0.86915400  0.08239555  0.69457323  1
  O  O346  1  0.87807746  0.58070872  0.19566480  1
  O  O347  1  0.87339623  0.58483326  0.69261937  1
  O  O348  1  0.04404534  0.33363189  0.19380607  1
  O  O349  1  0.04737259  0.32959904  0.69096303  1
  O  O350  1  0.04430516  0.83567080  0.19549296  1
  O  O351  1  0.04018074  0.83291430  0.69655220  1
  O  O352  1  0.37605747  0.33562113  0.19096967  1
  O  O353  1  0.37363523  0.33615048  0.68912126  1
  O  O354  1  0.37745406  0.83563516  0.19326754  1
  O  O355  1  0.37573035  0.83362642  0.69468569  1
  O  O356  1  0.71458479  0.33695541  0.19338478  1
  O  O357  1  0.71162985  0.33502973  0.69196564  1
  O  O358  1  0.71136329  0.83047724  0.19633845  1
  O  O359  1  0.70814614  0.83034909  0.69655732  1
  O  O360  1  0.20867854  0.41563351  0.19436113  1
  O  O361  1  0.21164976  0.41903193  0.69264055  1
  O  O362  1  0.21156820  0.90818308  0.19517271  1
  O  O363  1  0.21079345  0.91601135  0.69530871  1
  O  O364  1  0.54536759  0.41590967  0.19404455  1
  O  O365  1  0.54239779  0.41941361  0.69741311  1
  O  O366  1  0.54513707  0.91710684  0.19435727  1
  O  O367  1  0.54118049  0.91316318  0.69368539  1
  O  O368  1  0.87774950  0.41640732  0.19389934  1
  O  O369  1  0.86656949  0.41901915  0.69596009  1
  O  O370  1  0.87541054  0.91582104  0.19619399  1
  O  O371  1  0.87517515  0.91546246  0.69810594  1
  O  O372  1  0.04281183  0.16728355  0.19379561  1
  O  O373  1  0.04811907  0.17501186  0.69943820  1
  O  O374  1  0.04440342  0.66177104  0.19544514  1
  O  O375  1  0.04480767  0.66869164  0.70293884  1
  O  O376  1  0.37917102  0.16652406  0.19615662  1
  O  O377  1  0.37939846  0.16655326  0.69767585  1
  O  O378  1  0.37638028  0.66800795  0.19950766  1
  O  O379  1  0.37193164  0.66955819  0.69540901  1
  O  O380  1  0.71149057  0.16538906  0.19492077  1
  O  O381  1  0.70985348  0.16843018  0.69292465  1
  O  O382  1  0.71303722  0.66439334  0.19735427  1
  O  O383  1  0.71156116  0.66980553  0.69480978  1
  O  O384  1  0.11827883  0.09271137  0.30540089  1
  O  O385  1  0.13760239  0.08504825  0.80928128  1
  O  O386  1  0.12416620  0.57993414  0.30373476  1
  O  O387  1  0.12794173  0.58348337  0.80794798  1
  O  O388  1  0.45899341  0.08317043  0.30150486  1
  O  O389  1  0.45592071  0.08164137  0.80261110  1
  O  O390  1  0.45587470  0.58105296  0.29873582  1
  O  O391  1  0.45579603  0.58031493  0.80439139  1
  O  O392  1  0.78995046  0.08270531  0.30841120  1
  O  O393  1  0.78811293  0.08361291  0.80047171  1
  O  O394  1  0.79173030  0.57862352  0.30528308  1
  O  O395  1  0.79335979  0.58723151  0.80663906  1
  O  O396  1  0.29046921  0.33188382  0.30142894  1
  O  O397  1  0.29272419  0.33162232  0.80323456  1
  O  O398  1  0.28680071  0.83354679  0.30417610  1
  O  O399  1  0.28854266  0.83427892  0.80037531  1
  O  O400  1  0.62308786  0.33389744  0.30277884  1
  O  O401  1  0.62219560  0.33307426  0.79678684  1
  O  O402  1  0.62068217  0.83369494  0.29970740  1
  O  O403  1  0.62125390  0.83109258  0.80878161  1
  O  O404  1  0.96008929  0.33539888  0.30372676  1
  O  O405  1  0.95132205  0.33167178  0.80978252  1
  O  O406  1  0.95343224  0.83316895  0.30421585  1
  O  O407  1  0.95668725  0.82999933  0.80903240  1
  O  O408  1  0.12518205  0.41583295  0.30271879  1
  O  O409  1  0.13626598  0.41870439  0.80093450  1
  O  O410  1  0.11656296  0.91028179  0.31025529  1
  O  O411  1  0.12279808  0.91702423  0.80340277  1
  O  O412  1  0.45800614  0.41385098  0.30359435  1
  O  O413  1  0.45410905  0.41551569  0.80518948  1
  O  O414  1  0.45514893  0.91614164  0.30423373  1
  O  O415  1  0.45676432  0.91783736  0.80474021  1
  O  O416  1  0.79254499  0.41379484  0.30402846  1
  O  O417  1  0.78842802  0.41988262  0.80806173  1
  O  O418  1  0.78935342  0.91679300  0.30248742  1
  O  O419  1  0.78458924  0.91515877  0.80150208  1
  O  O420  1  0.28809421  0.16704465  0.30196055  1
  O  O421  1  0.29211667  0.16600319  0.80205003  1
  O  O422  1  0.28633575  0.66645240  0.30664706  1
  O  O423  1  0.29174704  0.66615901  0.80618741  1
  O  O424  1  0.62057012  0.16303766  0.30354693  1
  O  O425  1  0.62393846  0.16757348  0.80648595  1
  O  O426  1  0.62554140  0.66370348  0.30756776  1
  O  O427  1  0.62405546  0.66659468  0.80626180  1
  O  O428  1  0.96204656  0.16974599  0.30447655  1
  O  O429  1  0.95156702  0.17744560  0.81068137  1
  O  O430  1  0.95457507  0.65718025  0.30841722  1
  O  O431  1  0.95547602  0.66653175  0.80607666  1
  F  F432  1  0.03074521  -0.00081913  0.20120806  1
  F  F433  1  0.04749829  -0.00838517  0.70031091  1
  F  F434  1  0.04451495  0.49868294  0.20090494  1
  F  F435  1  0.05060255  0.51305632  0.69685435  1
  F  F436  1  0.38027602  -0.00116778  0.19810295  1
  F  F437  1  0.37849958  -0.00293257  0.70013463  1
  F  F438  1  0.37801174  0.49749770  0.19937716  1
  F  F439  1  0.37867378  0.50068508  0.70072260  1
  F  F440  1  0.71206805  0.00062590  0.20205865  1
  F  F441  1  0.70715217  -0.00254494  0.70028551  1
  F  F442  1  0.71360574  0.49881967  0.20196539  1
  F  F443  1  0.71154935  0.50013256  0.70259723  1
  F  F444  1  0.21093500  0.25141062  0.19884642  1
  F  F445  1  0.21300039  0.25087995  0.70161894  1
  F  F446  1  0.21070450  0.74873696  0.20154640  1
  F  F447  1  0.21048406  0.74995453  0.70293967  1
  F  F448  1  0.54005178  0.25079870  0.19640912  1
  F  F449  1  0.54462033  0.24866584  0.69757307  1
  F  F450  1  0.54572653  0.74644647  0.20191151  1
  F  F451  1  0.54629961  0.75419265  0.70099810  1
  F  F452  1  0.88435933  0.25783440  0.19583738  1
  F  F453  1  0.87821337  0.25283340  0.70315781  1
  F  F454  1  0.87142410  0.74692445  0.20140405  1
  F  F455  1  0.87742812  0.75087446  0.70472454  1
  F  F456  1  0.30020189  0.00262823  0.29781538  1
  F  F457  1  0.28940284  0.00164663  0.79511422  1
  F  F458  1  0.28810406  0.49846340  0.29529074  1
  F  F459  1  0.29051450  0.50216882  0.79510412  1
  F  F460  1  0.61987795  0.00245561  0.29570146  1
  F  F461  1  0.62011220  -0.00321536  0.79789825  1
  F  F462  1  0.62324030  0.49722243  0.29665304  1
  F  F463  1  0.61971157  0.49830281  0.80254103  1
  F  F464  1  0.95440193  0.00167654  0.30230305  1
  F  F465  1  0.94910861  -0.00903556  0.80465283  1
  F  F466  1  0.95620631  0.49677118  0.29720787  1
  F  F467  1  0.94864374  0.51232295  0.80090100  1
  F  F468  1  0.12220478  0.25204495  0.29538384  1
  F  F469  1  0.12485667  0.25330320  0.80023529  1
  F  F470  1  0.12540760  0.74742113  0.29962281  1
  F  F471  1  0.12340909  0.75127021  0.80117146  1
  F  F472  1  0.45463797  0.25138127  0.29597383  1
  F  F473  1  0.45632098  0.25298272  0.79401999  1
  F  F474  1  0.45376999  0.75176252  0.29804526  1
  F  F475  1  0.45276419  0.75389631  0.80060721  1
  F  F476  1  0.79359764  0.25370284  0.30072585  1
  F  F477  1  0.78506547  0.25175360  0.79674029  1
  F  F478  1  0.78765342  0.74599110  0.30062707  1
  F  F479  1  0.78580505  0.74851182  0.79913032  1
