# generated using pymatgen
data_K24Na3Li5Mg64Fe17Si79(O5F)48
_symmetry_space_group_name_H-M   'P 1'
_cell_length_a   16.09076389
_cell_length_b   18.58737191
_cell_length_c   20.55584072
_cell_angle_alpha   89.98610144
_cell_angle_beta   99.99532280
_cell_angle_gamma   90.02442029
_symmetry_Int_Tables_number   1
_chemical_formula_structural   K24Na3Li5Mg64Fe17Si79(O5F)48
_chemical_formula_sum   'K24 Na3 Li5 Mg64 Fe17 Si79 O240 F48'
_cell_volume   6054.62928819
_cell_formula_units_Z   1
loop_
 _symmetry_equiv_pos_site_id
 _symmetry_equiv_pos_as_xyz
  1  'x, y, z'
loop_
 _atom_site_type_symbol
 _atom_site_label
 _atom_site_symmetry_multiplicity
 _atom_site_fract_x
 _atom_site_fract_y
 _atom_site_fract_z
 _atom_site_occupancy
  K  K0  1  0.00536371  -0.01125039  0.01194514  1
  K  K1  1  0.00352454  -0.00850528  0.49696948  1
  K  K2  1  -0.00057992  0.50586672  -0.00454755  1
  K  K3  1  0.00734861  0.50544533  0.50322565  1
  K  K4  1  0.33226933  -0.00610519  0.00447907  1
  K  K5  1  0.33648225  0.00066177  0.50146841  1
  K  K6  1  0.33190134  0.49483631  -0.00266136  1
  K  K7  1  0.31020006  0.50937078  0.50157243  1
  K  K8  1  0.67168426  0.00370969  0.00842745  1
  K  K9  1  0.66107242  -0.00690654  0.48765922  1
  K  K10  1  0.67475792  0.50373147  0.00109080  1
  K  K11  1  0.65924025  0.50477183  0.49942287  1
  K  K12  1  0.16478055  0.25743578  -0.00318773  1
  K  K13  1  0.17576564  0.26205762  0.50787373  1
  K  K14  1  0.15675288  0.73563219  0.00600183  1
  K  K15  1  0.17669057  0.74983450  0.50464189  1
  K  K16  1  0.50060712  0.25438253  -0.00397742  1
  K  K17  1  0.50065074  0.25375297  0.50664338  1
  K  K18  1  0.50619428  0.74451115  0.00755202  1
  K  K19  1  0.49279699  0.74804261  0.49319316  1
  K  K20  1  0.82035947  0.24644259  -0.00402891  1
  K  K21  1  0.83351256  0.25694012  0.49489386  1
  K  K22  1  0.84218650  0.74691550  0.00779403  1
  K  K23  1  0.83244777  0.74543514  0.49616270  1
  Na  Na24  1  0.50045512  0.00015844  0.24941863  1
  Na  Na25  1  0.16182337  0.66854487  0.75487618  1
  Na  Na26  1  0.00219870  0.58298048  0.75955232  1
  Li  Li27  1  0.34302363  0.25699999  0.75014359  1
  Li  Li28  1  0.65577610  0.25459873  0.74749736  1
  Li  Li29  1  0.49820356  0.32951332  0.74823521  1
  Li  Li30  1  0.16782378  0.66371274  0.25829536  1
  Li  Li31  1  0.82793244  0.16714723  0.24196431  1
  Mg  Mg32  1  0.83540183  0.49788748  0.24731411  1
  Mg  Mg33  1  0.49963556  0.00208931  0.74589835  1
  Mg  Mg34  1  0.49813561  0.49637405  0.74974266  1
  Mg  Mg35  1  0.67330313  0.24997978  0.24632434  1
  Mg  Mg36  1  0.32853259  0.74780350  0.25404143  1
  Mg  Mg37  1  0.83212715  0.00357171  0.24484750  1
  Mg  Mg38  1  -0.00043143  0.25136172  0.75048068  1
  Mg  Mg39  1  -0.00067196  0.75156446  0.75339880  1
  Mg  Mg40  1  0.16524347  0.49795888  0.75257691  1
  Mg  Mg41  1  0.33681094  0.24883418  0.25135487  1
  Mg  Mg42  1  0.66481281  0.74887249  0.25010381  1
  Mg  Mg43  1  0.83183314  0.50035931  0.75511056  1
  Mg  Mg44  1  -0.00142032  0.24771576  0.24840839  1
  Mg  Mg45  1  0.16811987  0.50145680  0.25651762  1
  Mg  Mg46  1  0.83327052  0.00157030  0.74931696  1
  Mg  Mg47  1  0.33265322  0.75176101  0.74512092  1
  Mg  Mg48  1  0.50222802  0.49994105  0.25056078  1
  Mg  Mg49  1  0.16935431  0.00304248  0.74363935  1
  Mg  Mg50  1  0.16699060  -0.00275505  0.24954103  1
  Mg  Mg51  1  0.66629661  0.74899411  0.75170079  1
  Mg  Mg52  1  0.00298274  0.74737229  0.25129084  1
  Mg  Mg53  1  0.83554961  0.66490433  0.75499116  1
  Mg  Mg54  1  0.49934796  0.83265214  0.25340488  1
  Mg  Mg55  1  0.66762078  0.08536279  0.24531426  1
  Mg  Mg56  1  0.33194902  0.58345930  0.25772994  1
  Mg  Mg57  1  0.66545930  0.58542720  0.24842741  1
  Mg  Mg58  1  0.83044012  0.33268241  0.75344497  1
  Mg  Mg59  1  0.33648613  0.41452590  0.25258107  1
  Mg  Mg60  1  0.66827161  0.58224611  0.75401396  1
  Mg  Mg61  1  0.50035510  0.17363330  0.74671279  1
  Mg  Mg62  1  0.17008174  0.33501712  0.75093280  1
  Mg  Mg63  1  0.32807532  0.58352273  0.74865023  1
  Mg  Mg64  1  0.33144563  0.91670882  0.74310080  1
  Mg  Mg65  1  0.66426034  0.91655585  0.24980103  1
  Mg  Mg66  1  0.49772280  0.66478020  0.74926551  1
  Mg  Mg67  1  -0.00269761  0.08393884  0.24759125  1
  Mg  Mg68  1  0.49790405  0.83480284  0.74531877  1
  Mg  Mg69  1  0.66509876  0.08791623  0.74744401  1
  Mg  Mg70  1  0.83523563  0.83451821  0.75368576  1
  Mg  Mg71  1  0.50443781  0.33481415  0.24864650  1
  Mg  Mg72  1  0.00282122  0.91754052  0.74820440  1
  Mg  Mg73  1  0.66616747  0.91717961  0.74799189  1
  Mg  Mg74  1  0.83178878  0.66516971  0.24954600  1
  Mg  Mg75  1  0.66738063  0.41574856  0.24585118  1
  Mg  Mg76  1  0.33415464  0.91376671  0.25092711  1
  Mg  Mg77  1  0.00013166  0.41443196  0.25039355  1
  Mg  Mg78  1  0.33455372  0.08853947  0.74550151  1
  Mg  Mg79  1  -0.00127061  0.91420956  0.24677867  1
  Mg  Mg80  1  0.66333925  0.41223574  0.75162267  1
  Mg  Mg81  1  0.00306695  0.58357419  0.25180425  1
  Mg  Mg82  1  0.16703981  0.83699374  0.74368859  1
  Mg  Mg83  1  0.33384051  0.41284534  0.74888470  1
  Mg  Mg84  1  0.33683474  0.08170835  0.25354073  1
  Mg  Mg85  1  0.00114402  0.41606272  0.75268454  1
  Mg  Mg86  1  0.00104733  0.08556271  0.74822026  1
  Mg  Mg87  1  0.83093998  0.83432340  0.24497029  1
  Mg  Mg88  1  0.49874310  0.66425043  0.25241496  1
  Mg  Mg89  1  0.83031109  0.16833803  0.74970648  1
  Mg  Mg90  1  0.16489039  0.82937267  0.25235932  1
  Mg  Mg91  1  0.16767194  0.16427226  0.25164367  1
  Mg  Mg92  1  0.17032907  0.17064811  0.74653987  1
  Mg  Mg93  1  0.50352944  0.16626483  0.24935669  1
  Mg  Mg94  1  0.83223223  0.33082573  0.24532059  1
  Mg  Mg95  1  0.16779609  0.33265215  0.25183502  1
  Fe  Fe96  1  0.97889172  0.67525187  0.89726485  1
  Fe  Fe97  1  0.18859004  0.41502060  0.60953186  1
  Fe  Fe98  1  0.02801340  0.82608525  0.11034190  1
  Fe  Fe99  1  0.36383812  0.83357806  0.60438175  1
  Fe  Fe100  1  0.52194424  0.42099257  0.10828228  1
  Fe  Fe101  1  0.86651871  0.41316359  0.10884057  1
  Fe  Fe102  1  0.68506106  0.16256539  0.10542669  1
  Fe  Fe103  1  0.80882405  0.58106102  0.89578033  1
  Fe  Fe104  1  0.18907682  0.92306777  0.60295387  1
  Fe  Fe105  1  0.30621142  0.66754723  0.39441418  1
  Fe  Fe106  1  0.64055843  0.66207843  0.39181358  1
  Fe  Fe107  1  0.13459683  0.58473467  0.39455802  1
  Fe  Fe108  1  0.69032445  0.33428154  0.10382858  1
  Fe  Fe109  1  0.51732328  0.91452830  0.11092855  1
  Fe  Fe110  1  0.14347563  0.41523940  0.89414020  1
  Fe  Fe111  1  0.47473761  0.92010104  0.39236046  1
  Fe  Fe112  1  0.69124658  0.66879977  0.10953265  1
  Si  Si113  1  0.52615343  0.58031404  0.61569562  1
  Si  Si114  1  0.02936332  0.65698458  0.11707253  1
  Si  Si115  1  0.96809139  0.83564674  0.38362933  1
  Si  Si116  1  0.96448305  0.66941932  0.38822673  1
  Si  Si117  1  0.35695493  0.66080608  0.61249607  1
  Si  Si118  1  0.18422768  0.58474377  0.61519799  1
  Si  Si119  1  0.31057644  0.33023798  0.38737911  1
  Si  Si120  1  0.47319673  0.41852619  0.88398292  1
  Si  Si121  1  0.80443806  0.08539677  0.88408071  1
  Si  Si122  1  0.47004877  0.58409218  0.88451536  1
  Si  Si123  1  0.14187174  0.08061510  0.38613208  1
  Si  Si124  1  0.31090018  0.67070120  0.88490353  1
  Si  Si125  1  0.14572563  0.92326872  0.88194450  1
  Si  Si126  1  0.19646566  0.57495459  0.11968142  1
  Si  Si127  1  0.18808056  0.09511070  0.60814438  1
  Si  Si128  1  0.80822564  0.08383811  0.38190102  1
  Si  Si129  1  0.30497633  0.83945191  0.38937049  1
  Si  Si130  1  0.80618914  0.92040878  0.38271468  1
  Si  Si131  1  0.63963988  0.83434495  0.88338449  1
  Si  Si132  1  0.35468379  0.82637585  0.11464228  1
  Si  Si133  1  0.14217385  0.41098910  0.38906256  1
  Si  Si134  1  0.35263245  0.66544942  0.11831858  1
  Si  Si135  1  0.69782418  0.83371933  0.61626024  1
  Si  Si136  1  0.85481796  0.41906343  0.61586801  1
  Si  Si137  1  0.02153143  0.83265227  0.60982413  1
  Si  Si138  1  0.80483767  0.40819133  0.88827105  1
  Si  Si139  1  0.69455183  0.16750624  0.61298840  1
  Si  Si140  1  0.01961263  0.16960048  0.61370282  1
  Si  Si141  1  0.52737912  0.08584533  0.61172154  1
  Si  Si142  1  0.47132544  0.57516805  0.39250858  1
  Si  Si143  1  0.97511115  0.16143553  0.88417060  1
  Si  Si144  1  0.63730263  0.16789763  0.88186183  1
  Si  Si145  1  0.80505404  0.92021886  0.88489554  1
  Si  Si146  1  0.19950283  0.41306419  0.11910559  1
  Si  Si147  1  0.30859252  0.16497260  0.38800533  1
  Si  Si148  1  0.51470400  0.58659565  0.11127316  1
  Si  Si149  1  0.64683122  0.83137401  0.39125725  1
  Si  Si150  1  0.68952630  0.84078935  0.10950404  1
  Si  Si151  1  0.52979426  0.41605047  0.61468681  1
  Si  Si152  1  0.48007667  0.09300670  0.38949299  1
  Si  Si153  1  0.63479753  0.66746984  0.88694532  1
  Si  Si154  1  0.36243840  0.16890027  0.61211418  1
  Si  Si155  1  0.86171458  0.58282503  0.11459141  1
  Si  Si156  1  0.47948717  0.40954011  0.38771120  1
  Si  Si157  1  0.85984705  0.91695430  0.61484943  1
  Si  Si158  1  0.69415815  0.33309260  0.61549142  1
  Si  Si159  1  0.31148894  0.16667534  0.88177879  1
  Si  Si160  1  0.03626516  0.33061762  0.11370719  1
  Si  Si161  1  0.13589869  0.91488767  0.38448750  1
  Si  Si162  1  0.81516286  0.41558342  0.38482006  1
  Si  Si163  1  0.15126570  0.58209375  0.89473851  1
  Si  Si164  1  0.97866682  0.84623419  0.88784128  1
  Si  Si165  1  0.36348908  0.33532983  0.61167095  1
  Si  Si166  1  0.68937351  0.66829281  0.61609661  1
  Si  Si167  1  0.63464191  0.33288632  0.88197245  1
  Si  Si168  1  0.51605320  0.08441648  0.11054991  1
  Si  Si169  1  0.35649121  0.16838417  0.11623145  1
  Si  Si170  1  0.30879700  0.83559327  0.88324174  1
  Si  Si171  1  0.53535373  0.91959023  0.61042861  1
  Si  Si172  1  0.14616039  0.08682338  0.88215289  1
  Si  Si173  1  0.03081962  0.16459968  0.11398887  1
  Si  Si174  1  0.31228031  0.33050257  0.88734764  1
  Si  Si175  1  0.19624790  0.08174886  0.11659469  1
  Si  Si176  1  0.47467345  0.91833867  0.88232237  1
  Si  Si177  1  0.36021191  0.32990665  0.11515703  1
  Si  Si178  1  0.97026911  0.32722767  0.88799956  1
  Si  Si179  1  0.86288443  0.08407259  0.11002478  1
  Si  Si180  1  0.80687340  0.57769033  0.38686308  1
  Si  Si181  1  0.19570748  0.91563471  0.11406433  1
  Si  Si182  1  0.01586055  0.33213142  0.61279401  1
  Si  Si183  1  0.01713784  0.67011675  0.61623478  1
  Si  Si184  1  0.97640677  0.16258230  0.38451514  1
  Si  Si185  1  0.86031665  0.91774057  0.11040941  1
  Si  Si186  1  0.85739242  0.08229591  0.61293300  1
  Si  Si187  1  0.97681265  0.32632902  0.38560097  1
  Si  Si188  1  0.85345772  0.58413348  0.61593726  1
  Si  Si189  1  0.47495840  0.08252368  0.88225438  1
  Si  Si190  1  0.64643030  0.17118303  0.38507084  1
  Si  Si191  1  0.64909482  0.33449710  0.38581252  1
  O  O192  1  0.27661488  0.11485305  0.08701693  1
  O  O193  1  0.26935228  0.13334586  0.58109401  1
  O  O194  1  0.27667970  0.60815281  0.08852879  1
  O  O195  1  0.26632342  0.62029827  0.58773000  1
  O  O196  1  0.59371728  0.09989329  0.07165470  1
  O  O197  1  0.60402314  0.12799897  0.58246667  1
  O  O198  1  0.59468575  0.61173533  0.07788105  1
  O  O199  1  0.60006419  0.62682774  0.58713162  1
  O  O200  1  0.94961089  0.11459366  0.08355797  1
  O  O201  1  0.94053487  0.11385118  0.58492408  1
  O  O202  1  0.95369145  0.59896773  0.09122860  1
  O  O203  1  0.93219655  0.62068251  0.58571463  1
  O  O204  1  0.12692895  0.35345279  0.09118190  1
  O  O205  1  0.09173568  0.35741840  0.57656673  1
  O  O206  1  0.11599727  0.87131212  0.07542960  1
  O  O207  1  0.09438814  0.86293335  0.57265931  1
  O  O208  1  0.43881705  0.34825727  0.07985922  1
  O  O209  1  0.44336006  0.37381614  0.58207193  1
  O  O210  1  0.43284030  0.84505395  0.07760954  1
  O  O211  1  0.46108526  0.86967973  0.57409948  1
  O  O212  1  0.79019646  0.34511753  0.07228621  1
  O  O213  1  0.76891907  0.37373799  0.58344693  1
  O  O214  1  0.77512825  0.87133650  0.08276909  1
  O  O215  1  0.77965680  0.86449329  0.58681271  1
  O  O216  1  0.28297633  0.38708864  0.08966729  1
  O  O217  1  0.27796508  0.37283819  0.57270953  1
  O  O218  1  0.27969994  0.88573726  0.08702392  1
  O  O219  1  0.27734098  0.89225057  0.56451268  1
  O  O220  1  0.61603130  0.40728693  0.07075414  1
  O  O221  1  0.60520914  0.37345986  0.58410858  1
  O  O222  1  0.61635968  0.89689977  0.07662726  1
  O  O223  1  0.62322353  0.89052942  0.58738231  1
  O  O224  1  0.96694539  0.38558544  0.07759910  1
  O  O225  1  0.93126789  0.38148783  0.58442646  1
  O  O226  1  0.93477003  0.88424757  0.07620830  1
  O  O227  1  0.93809921  0.88522843  0.58326951  1
  O  O228  1  0.11225756  0.12962227  0.08574548  1
  O  O229  1  0.10492508  0.14891885  0.58419266  1
  O  O230  1  0.11382692  0.62381448  0.09126348  1
  O  O231  1  0.10016208  0.63684405  0.58959490  1
  O  O232  1  0.43869273  0.14530564  0.08490981  1
  O  O233  1  0.43687414  0.12455664  0.58084223  1
  O  O234  1  0.43764022  0.64704101  0.08784939  1
  O  O235  1  0.43261014  0.61261036  0.58688439  1
  O  O236  1  0.78447292  0.13068259  0.07329032  1
  O  O237  1  0.77242828  0.12875754  0.58162545  1
  O  O238  1  0.79405560  0.64405249  0.08359253  1
  O  O239  1  0.76579093  0.62948822  0.58470258  1
  O  O240  1  0.06429140  0.11884669  0.41667422  1
  O  O241  1  0.06294687  0.11642427  0.91140191  1
  O  O242  1  0.04048662  0.62233832  0.42752416  1
  O  O243  1  0.07616196  0.61989064  0.92651638  1
  O  O244  1  0.39865527  0.12788518  0.42020140  1
  O  O245  1  0.39378742  0.11564332  0.91125407  1
  O  O246  1  0.38859732  0.59585344  0.42304956  1
  O  O247  1  0.39281842  0.62030664  0.91609481  1
  O  O248  1  0.73135882  0.12267825  0.41398195  1
  O  O249  1  0.72952324  0.12919070  0.91188778  1
  O  O250  1  0.72709787  0.59477810  0.42223991  1
  O  O251  1  0.71120667  0.61954272  0.92338102  1
  O  O252  1  0.23303242  0.36846789  0.41589593  1
  O  O253  1  0.23762056  0.35527441  0.92609025  1
  O  O254  1  0.21444679  0.86323001  0.41376565  1
  O  O255  1  0.22928645  0.87421328  0.91182865  1
  O  O256  1  0.56732105  0.36460503  0.41692836  1
  O  O257  1  0.55918257  0.37309089  0.91319358  1
  O  O258  1  0.57058802  0.86290759  0.42565093  1
  O  O259  1  0.56192209  0.87427693  0.91166710  1
  O  O260  1  0.89800842  0.36473591  0.41464023  1
  O  O261  1  0.88184334  0.34990510  0.91217456  1
  O  O262  1  0.89285600  0.87654002  0.41472731  1
  O  O263  1  0.89765451  0.88670950  0.91418824  1
  O  O264  1  0.06772958  0.36320594  0.41639067  1
  O  O265  1  0.04876716  0.37372780  0.92527692  1
  O  O266  1  0.05341437  0.88280064  0.41260375  1
  O  O267  1  0.06115251  0.90027253  0.91120643  1
  O  O268  1  0.40213304  0.36806750  0.41714421  1
  O  O269  1  0.39737561  0.37959466  0.91566603  1
  O  O270  1  0.37224916  0.90064767  0.42075280  1
  O  O271  1  0.39501205  0.88267809  0.91157154  1
  O  O272  1  0.73397621  0.38253942  0.41624324  1
  O  O273  1  0.72269878  0.37309259  0.91502997  1
  O  O274  1  0.72937310  0.88657814  0.41518615  1
  O  O275  1  0.72875726  0.87690546  0.91215513  1
  O  O276  1  0.23080438  0.12330574  0.41578837  1
  O  O277  1  0.22842783  0.13648011  0.91263595  1
  O  O278  1  0.22160293  0.63923266  0.43906858  1
  O  O279  1  0.23303600  0.63884002  0.91697870  1
  O  O280  1  0.56396762  0.14510088  0.41673393  1
  O  O281  1  0.56238008  0.12557942  0.91261798  1
  O  O282  1  0.54991276  0.62445605  0.42812971  1
  O  O283  1  0.54962681  0.63723352  0.91248738  1
  O  O284  1  0.89762477  0.12484639  0.41370742  1
  O  O285  1  0.89713965  0.12150193  0.91307542  1
  O  O286  1  0.87909114  0.63883526  0.41422105  1
  O  O287  1  0.89436384  0.63844930  0.93800309  1
  O  O288  1  0.18237521  0.00039002  0.08653664  1
  O  O289  1  0.16385674  0.01961095  0.57175589  1
  O  O290  1  0.17597715  0.49330103  0.08851314  1
  O  O291  1  0.16465947  0.50883185  0.57658042  1
  O  O292  1  0.47311234  0.00722286  0.08703069  1
  O  O293  1  0.52486525  0.00353769  0.58283272  1
  O  O294  1  0.47491478  0.51113303  0.08062402  1
  O  O295  1  0.52940681  0.49888880  0.58463630  1
  O  O296  1  0.84816578  0.00083342  0.08124245  1
  O  O297  1  0.84080731  -0.00069961  0.58521535  1
  O  O298  1  0.82903144  0.50605028  0.08272701  1
  O  O299  1  0.84120590  0.50134761  0.58565700  1
  O  O300  1  0.01928221  0.24678931  0.08521204  1
  O  O301  1  -0.01299577  0.24898403  0.58586872  1
  O  O302  1  0.00947515  0.73236489  0.07754043  1
  O  O303  1  -0.00427762  0.75069894  0.58202503  1
  O  O304  1  0.32404912  0.24881941  0.09013056  1
  O  O305  1  0.36323184  0.25064676  0.58240480  1
  O  O306  1  0.31877910  0.74511216  0.08985049  1
  O  O307  1  0.35342077  0.73716427  0.57568981  1
  O  O308  1  0.64818324  0.24847032  0.06616911  1
  O  O309  1  0.68830643  0.25040021  0.58444308  1
  O  O310  1  0.66679748  0.76228832  0.07631718  1
  O  O311  1  0.67921016  0.75175951  0.58753721  1
  O  O312  1  0.15070031  -0.00217168  0.41466264  1
  O  O313  1  0.16822074  0.00531957  0.91143254  1
  O  O314  1  0.14777028  0.48718107  0.42536641  1
  O  O315  1  0.17394817  0.50533406  0.93308498  1
  O  O316  1  0.50223897  0.01589199  0.42320655  1
  O  O317  1  0.48712415  0.00019937  0.91216718  1
  O  O318  1  0.49476276  0.49007592  0.41803102  1
  O  O319  1  0.48526832  0.50183976  0.91413033  1
  O  O320  1  0.81914920  0.00235062  0.41424828  1
  O  O321  1  0.80451504  0.00303638  0.91333227  1
  O  O322  1  0.84009450  0.49610885  0.41487150  1
  O  O323  1  0.82769833  0.48418025  0.92421688  1
  O  O324  1  0.31395634  0.24764479  0.41722860  1
  O  O325  1  0.33519617  0.24624746  0.91293381  1
  O  O326  1  0.33558794  0.76280233  0.42231860  1
  O  O327  1  0.32532600  0.75440961  0.91410677  1
  O  O328  1  0.66882857  0.25264716  0.41604321  1
  O  O329  1  0.64180665  0.24947824  0.91136062  1
  O  O330  1  0.67607944  0.75393601  0.42480591  1
  O  O331  1  0.64624551  0.75257310  0.91209980  1
  O  O332  1  0.98302014  0.24412558  0.41653263  1
  O  O333  1  0.98708252  0.24218747  0.91468616  1
  O  O334  1  0.97459593  0.75443945  0.41465056  1
  O  O335  1  0.99916791  0.77265385  0.92702363  1
  O  O336  1  0.21043147  0.08390221  0.19693825  1
  O  O337  1  0.20852929  0.08921288  0.68915262  1
  O  O338  1  0.21716208  0.57207541  0.19871698  1
  O  O339  1  0.20884809  0.57777804  0.69457293  1
  O  O340  1  0.54431880  0.09270677  0.19059999  1
  O  O341  1  0.54459401  0.08433124  0.69195205  1
  O  O342  1  0.53776958  0.58353134  0.19303441  1
  O  O343  1  0.54465599  0.58228306  0.69623814  1
  O  O344  1  0.88089094  0.08169462  0.19033839  1
  O  O345  1  0.87547265  0.08374392  0.69345391  1
  O  O346  1  0.87834743  0.58282751  0.19660178  1
  O  O347  1  0.86500881  0.58265727  0.69485667  1
  O  O348  1  0.04816653  0.32948312  0.19495888  1
  O  O349  1  0.03624323  0.33092095  0.69325943  1
  O  O350  1  0.04426373  0.83209084  0.20155895  1
  O  O351  1  0.04020033  0.83763697  0.69082846  1
  O  O352  1  0.37815149  0.33121036  0.19650570  1
  O  O353  1  0.37671461  0.33693989  0.69077411  1
  O  O354  1  0.37320700  0.82903442  0.19522183  1
  O  O355  1  0.38003796  0.83544557  0.69730946  1
  O  O356  1  0.71144464  0.33429986  0.19750342  1
  O  O357  1  0.71285012  0.33443027  0.69476628  1
  O  O358  1  0.71008005  0.83617872  0.19139942  1
  O  O359  1  0.71261982  0.83442221  0.69676446  1
  O  O360  1  0.21443619  0.41295787  0.19971554  1
  O  O361  1  0.21272871  0.41526045  0.70029225  1
  O  O362  1  0.20789696  0.91594310  0.19480394  1
  O  O363  1  0.21057284  0.92131747  0.69579743  1
  O  O364  1  0.54435809  0.41734152  0.20121717  1
  O  O365  1  0.54627887  0.41941018  0.69389645  1
  O  O366  1  0.54864698  0.90612424  0.20019265  1
  O  O367  1  0.54674963  0.91914470  0.69176450  1
  O  O368  1  0.88218392  0.41388385  0.20154713  1
  O  O369  1  0.87267026  0.41564542  0.69596689  1
  O  O370  1  0.87739338  0.91812364  0.19168500  1
  O  O371  1  0.87675491  0.91911861  0.69539533  1
  O  O372  1  0.04737289  0.16458147  0.19464224  1
  O  O373  1  0.03970398  0.16682523  0.69412007  1
  O  O374  1  0.04105142  0.66529080  0.19671447  1
  O  O375  1  0.03177282  0.67657515  0.69427138  1
  O  O376  1  0.37536084  0.16613659  0.19696679  1
  O  O377  1  0.38071568  0.16360308  0.69125564  1
  O  O378  1  0.37450928  0.66351736  0.19850768  1
  O  O379  1  0.37740695  0.66534667  0.69354458  1
  O  O380  1  0.70915705  0.16676706  0.19662881  1
  O  O381  1  0.71439455  0.16171575  0.69211491  1
  O  O382  1  0.71212370  0.66724811  0.20124566  1
  O  O383  1  0.70760328  0.66863942  0.69629307  1
  O  O384  1  0.12410772  0.08244717  0.30573900  1
  O  O385  1  0.12524990  0.08614778  0.80162021  1
  O  O386  1  0.12009614  0.57986696  0.30397153  1
  O  O387  1  0.13430048  0.57260740  0.81586537  1
  O  O388  1  0.45510139  0.09496407  0.30975468  1
  O  O389  1  0.45789620  0.08304544  0.80188941  1
  O  O390  1  0.45794630  0.57828889  0.31089018  1
  O  O391  1  0.45482694  0.58345480  0.80399159  1
  O  O392  1  0.79179955  0.08210183  0.30286084  1
  O  O393  1  0.78945009  0.08363993  0.80360591  1
  O  O394  1  0.79095642  0.57907718  0.30633394  1
  O  O395  1  0.78699134  0.58392499  0.80279966  1
  O  O396  1  0.29313413  0.32986192  0.30700947  1
  O  O397  1  0.29056794  0.33335932  0.80755041  1
  O  O398  1  0.28601499  0.83623549  0.30780043  1
  O  O399  1  0.29070090  0.83640247  0.80334263  1
  O  O400  1  0.62728891  0.33364332  0.30640661  1
  O  O401  1  0.62037686  0.33380383  0.80307567  1
  O  O402  1  0.62794388  0.83098709  0.31008207  1
  O  O403  1  0.62250583  0.83596301  0.80262075  1
  O  O404  1  0.96084548  0.32833698  0.30583401  1
  O  O405  1  0.95552623  0.32847258  0.80675835  1
  O  O406  1  0.95132453  0.83580814  0.30371790  1
  O  O407  1  0.95650592  0.84279890  0.80664836  1
  O  O408  1  0.12472850  0.41132868  0.30809888  1
  O  O409  1  0.12045856  0.41151933  0.80277982  1
  O  O410  1  0.12008993  0.91904220  0.30441203  1
  O  O411  1  0.12513588  0.92374305  0.80172246  1
  O  O412  1  0.45808603  0.41086610  0.30776885  1
  O  O413  1  0.45352901  0.42025978  0.80454641  1
  O  O414  1  0.44957014  0.90967973  0.30300619  1
  O  O415  1  0.45860996  0.91925524  0.80193784  1
  O  O416  1  0.79238501  0.41571540  0.30536567  1
  O  O417  1  0.78635307  0.41304255  0.80706762  1
  O  O418  1  0.79158403  0.91851864  0.30256650  1
  O  O419  1  0.78839067  0.91988077  0.80411484  1
  O  O420  1  0.29033843  0.16563100  0.30759590  1
  O  O421  1  0.28855793  0.16302185  0.80241094  1
  O  O422  1  0.28956746  0.66566505  0.30373356  1
  O  O423  1  0.30110693  0.67104341  0.80547118  1
  O  O424  1  0.62550596  0.16910067  0.30547328  1
  O  O425  1  0.62074639  0.16288952  0.80250544  1
  O  O426  1  0.61931066  0.66449849  0.30068093  1
  O  O427  1  0.62064964  0.66733807  0.80559720  1
  O  O428  1  0.96529329  0.16407481  0.30537168  1
  O  O429  1  0.95576722  0.16312136  0.80363081  1
  O  O430  1  0.95353494  0.66740123  0.30756772  1
  O  O431  1  0.94884889  0.67995997  0.80678859  1
  F  F432  1  0.04649784  0.00120611  0.20067440  1
  F  F433  1  0.04357463  0.00327210  0.69931002  1
  F  F434  1  0.04869819  0.49495561  0.20439335  1
  F  F435  1  0.04510169  0.49170852  0.69969068  1
  F  F436  1  0.36219059  0.00093462  0.20075077  1
  F  F437  1  0.37993975  0.00275531  0.69798952  1
  F  F438  1  0.37927219  0.49810040  0.20855246  1
  F  F439  1  0.37907578  0.50160986  0.70033214  1
  F  F440  1  0.71302449  -0.00002813  0.19857612  1
  F  F441  1  0.71293401  0.00122619  0.70043699  1
  F  F442  1  0.71288253  0.50103741  0.20277406  1
  F  F443  1  0.70917060  0.49745954  0.70355851  1
  F  F444  1  0.21428982  0.24771807  0.20528491  1
  F  F445  1  0.20408820  0.25195492  0.69833368  1
  F  F446  1  0.21119473  0.75408821  0.20248471  1
  F  F447  1  0.21568295  0.75971323  0.69656279  1
  F  F448  1  0.54640865  0.25114370  0.20415237  1
  F  F449  1  0.54579184  0.24408546  0.69159981  1
  F  F450  1  0.54248678  0.74912549  0.20411185  1
  F  F451  1  0.54703237  0.74971014  0.70117858  1
  F  F452  1  0.88368581  0.24968919  0.20057910  1
  F  F453  1  0.87774726  0.24897799  0.70147077  1
  F  F454  1  0.87996749  0.74992578  0.20284802  1
  F  F455  1  0.87308016  0.75579866  0.70248911  1
  F  F456  1  0.28413960  0.00209804  0.30101054  1
  F  F457  1  0.29062185  0.00435202  0.79397316  1
  F  F458  1  0.29034938  0.49281550  0.30458586  1
  F  F459  1  0.29288460  0.50006265  0.79903248  1
  F  F460  1  0.63689135  0.00379719  0.30082053  1
  F  F461  1  0.62196323  0.00110230  0.79537868  1
  F  F462  1  0.62377977  0.50023210  0.29858987  1
  F  F463  1  0.61907599  0.49953782  0.79937072  1
  F  F464  1  0.95453849  -0.00003054  0.29568059  1
  F  F465  1  0.95507941  0.00280551  0.79630937  1
  F  F466  1  0.95711496  0.49894659  0.30007969  1
  F  F467  1  0.94708156  0.48749328  0.80371120  1
  F  F468  1  0.12290911  0.24737828  0.29925373  1
  F  F469  1  0.11953467  0.24704681  0.79780174  1
  F  F470  1  0.11754927  0.75380169  0.30551320  1
  F  F471  1  0.11718357  0.76907826  0.80057507  1
  F  F472  1  0.45687635  0.25107935  0.29909997  1
  F  F473  1  0.45763490  0.24649623  0.79902244  1
  F  F474  1  0.45305332  0.74716758  0.29958552  1
  F  F475  1  0.45756064  0.75106227  0.79636326  1
  F  F476  1  0.79064094  0.25444848  0.30186371  1
  F  F477  1  0.79298903  0.24682290  0.80017017  1
  F  F478  1  0.78940388  0.75388604  0.29751236  1
  F  F479  1  0.78408308  0.75449732  0.80074273  1
