# generated using pymatgen
data_K24Na3Li5Mg64Fe17Si79(O5F)48
_symmetry_space_group_name_H-M   'P 1'
_cell_length_a   16.09230345
_cell_length_b   18.58110390
_cell_length_c   20.54164296
_cell_angle_alpha   90.02063547
_cell_angle_beta   100.01711275
_cell_angle_gamma   89.96146618
_symmetry_Int_Tables_number   1
_chemical_formula_structural   K24Na3Li5Mg64Fe17Si79(O5F)48
_chemical_formula_sum   'K24 Na3 Li5 Mg64 Fe17 Si79 O240 F48'
_cell_volume   6048.57900033
_cell_formula_units_Z   1
loop_
 _symmetry_equiv_pos_site_id
 _symmetry_equiv_pos_as_xyz
  1  'x, y, z'
loop_
 _atom_site_type_symbol
 _atom_site_label
 _atom_site_symmetry_multiplicity
 _atom_site_fract_x
 _atom_site_fract_y
 _atom_site_fract_z
 _atom_site_occupancy
  K  K0  1  -0.01153357  -0.00907576  0.00453243  1
  K  K1  1  -0.00493700  0.00145301  0.49796787  1
  K  K2  1  -0.00135018  0.50147009  -0.00451619  1
  K  K3  1  0.00059478  0.50836050  0.50364890  1
  K  K4  1  0.33426187  0.00416618  -0.00339110  1
  K  K5  1  0.34045117  0.00048854  0.50498778  1
  K  K6  1  0.33177074  0.49700129  -0.00787803  1
  K  K7  1  0.33645639  0.49590536  0.51045309  1
  K  K8  1  0.67502105  0.00542177  -0.00121864  1
  K  K9  1  0.67495799  -0.00004394  0.50557124  1
  K  K10  1  0.66443610  0.50388366  -0.01234721  1
  K  K11  1  0.66759961  0.50280927  0.51097238  1
  K  K12  1  0.18020250  0.24574694  -0.00658991  1
  K  K13  1  0.17323063  0.24801510  0.50441275  1
  K  K14  1  0.16722489  0.75397828  0.00100867  1
  K  K15  1  0.16701722  0.75192719  0.50101560  1
  K  K16  1  0.48891895  0.24689423  -0.01613848  1
  K  K17  1  0.50292057  0.25338008  0.51496993  1
  K  K18  1  0.49977041  0.75203781  -0.00003981  1
  K  K19  1  0.50637166  0.75501781  0.50672777  1
  K  K20  1  0.82811111  0.24695568  -0.00373405  1
  K  K21  1  0.82970495  0.23918222  0.50696865  1
  K  K22  1  0.82960691  0.75397769  -0.00189774  1
  K  K23  1  0.83590786  0.75077976  0.49256246  1
  Na  Na24  1  0.16547359  -0.00094404  0.24210390  1
  Na  Na25  1  0.16528618  0.32959554  0.24869872  1
  Na  Na26  1  0.83534984  0.67371048  0.26104708  1
  Li  Li27  1  0.33374280  0.24989917  0.74460311  1
  Li  Li28  1  0.50631873  -0.00014567  0.74957773  1
  Li  Li29  1  0.66484735  0.92054675  0.75978583  1
  Li  Li30  1  0.83773973  0.83245476  0.25344633  1
  Li  Li31  1  0.83185979  0.66877637  0.75575031  1
  Mg  Mg32  1  0.66913358  0.75266389  0.75724215  1
  Mg  Mg33  1  0.33296604  0.75177533  0.74580022  1
  Mg  Mg34  1  0.66766784  0.24880271  0.25225634  1
  Mg  Mg35  1  0.67028264  0.75025091  0.25452658  1
  Mg  Mg36  1  -0.00190004  0.75069435  0.25357951  1
  Mg  Mg37  1  0.16731900  -0.00060024  0.74462016  1
  Mg  Mg38  1  0.66671716  0.25101052  0.74807165  1
  Mg  Mg39  1  0.50204398  0.49975355  0.74983237  1
  Mg  Mg40  1  0.83585231  -0.00121776  0.25284723  1
  Mg  Mg41  1  0.16743285  0.50045531  0.74797419  1
  Mg  Mg42  1  0.00277125  0.24939075  0.74883218  1
  Mg  Mg43  1  0.83335191  0.50250003  0.25561703  1
  Mg  Mg44  1  0.00053388  0.24876571  0.25013423  1
  Mg  Mg45  1  0.33254859  0.24766477  0.24630422  1
  Mg  Mg46  1  0.33396805  0.75172498  0.24360427  1
  Mg  Mg47  1  -0.00498576  0.74973370  0.75029609  1
  Mg  Mg48  1  0.49817843  0.50189105  0.24824066  1
  Mg  Mg49  1  0.16652121  0.49852513  0.25015586  1
  Mg  Mg50  1  0.83035863  -0.00067625  0.75177923  1
  Mg  Mg51  1  0.83246181  0.50156533  0.75411583  1
  Mg  Mg52  1  0.50194932  -0.00172246  0.24747027  1
  Mg  Mg53  1  0.50422279  0.83779096  0.75288654  1
  Mg  Mg54  1  0.82946318  0.83318942  0.75523858  1
  Mg  Mg55  1  0.00174454  0.08384532  0.74825755  1
  Mg  Mg56  1  -0.00368460  0.58500570  0.75036674  1
  Mg  Mg57  1  0.33216009  0.58435947  0.74708795  1
  Mg  Mg58  1  0.66441060  0.08080397  0.74936404  1
  Mg  Mg59  1  0.67055402  0.08325508  0.25205969  1
  Mg  Mg60  1  0.16988635  0.16634154  0.74585202  1
  Mg  Mg61  1  0.67100889  0.58717311  0.75510027  1
  Mg  Mg62  1  0.16966099  0.33235129  0.74646668  1
  Mg  Mg63  1  0.16494375  0.16540710  0.24366808  1
  Mg  Mg64  1  0.33362048  0.91845206  0.74609530  1
  Mg  Mg65  1  0.33325285  0.41324923  0.74534205  1
  Mg  Mg66  1  0.83537759  0.16317253  0.25327021  1
  Mg  Mg67  1  0.49742477  0.33322926  0.74741274  1
  Mg  Mg68  1  0.33156273  0.08167668  0.24455358  1
  Mg  Mg69  1  0.16476531  0.83435380  0.74645493  1
  Mg  Mg70  1  0.83379112  0.16574496  0.74859200  1
  Mg  Mg71  1  0.83173924  0.33504757  0.74958461  1
  Mg  Mg72  1  0.66647266  0.41644419  0.25241498  1
  Mg  Mg73  1  0.50301389  0.66794119  0.75099254  1
  Mg  Mg74  1  -0.00167994  0.91369341  0.25003587  1
  Mg  Mg75  1  0.49907062  0.83367022  0.24574088  1
  Mg  Mg76  1  0.33106269  0.41545867  0.24891162  1
  Mg  Mg77  1  0.33191227  0.91537570  0.24343751  1
  Mg  Mg78  1  0.33521575  0.08394388  0.74561560  1
  Mg  Mg79  1  0.16532900  0.66487645  0.24967190  1
  Mg  Mg80  1  0.49705800  0.16524960  0.74771138  1
  Mg  Mg81  1  0.67186387  0.91438277  0.25226145  1
  Mg  Mg82  1  0.00001841  0.58472290  0.25522755  1
  Mg  Mg83  1  0.49866326  0.33418353  0.25008398  1
  Mg  Mg84  1  0.50103855  0.16485684  0.24906879  1
  Mg  Mg85  1  0.00040992  0.41681074  0.25270928  1
  Mg  Mg86  1  0.16643312  0.83434953  0.24558744  1
  Mg  Mg87  1  0.83432469  0.33417918  0.25329108  1
  Mg  Mg88  1  0.66704444  0.58470344  0.25245812  1
  Mg  Mg89  1  -0.00254273  0.91492261  0.75123087  1
  Mg  Mg90  1  0.16428748  0.66577433  0.74616011  1
  Mg  Mg91  1  0.66740688  0.41548596  0.75024364  1
  Mg  Mg92  1  -0.00028585  0.08272752  0.24795540  1
  Mg  Mg93  1  0.33091062  0.58593797  0.24557954  1
  Mg  Mg94  1  0.00027771  0.41588974  0.75078418  1
  Mg  Mg95  1  0.49664042  0.66687044  0.24622432  1
  Fe  Fe96  1  0.69700384  0.33148168  0.60702509  1
  Fe  Fe97  1  0.18781691  0.09408962  0.10312152  1
  Fe  Fe98  1  0.86264863  0.07936330  0.11073543  1
  Fe  Fe99  1  0.52446967  0.42103720  0.60841970  1
  Fe  Fe100  1  0.02408811  0.17037678  0.60919125  1
  Fe  Fe101  1  0.18987335  0.58692658  0.60679883  1
  Fe  Fe102  1  0.80861416  0.08453879  0.39462144  1
  Fe  Fe103  1  0.35788829  0.84000847  0.10314458  1
  Fe  Fe104  1  0.35400766  0.66470941  0.10444539  1
  Fe  Fe105  1  0.18555596  0.91460724  0.60676260  1
  Fe  Fe106  1  0.18345035  0.92013706  0.10216718  1
  Fe  Fe107  1  0.81172397  0.41206741  0.89240469  1
  Fe  Fe108  1  0.98009654  0.66445125  0.39706974  1
  Fe  Fe109  1  0.36086754  0.16203219  0.60782893  1
  Fe  Fe110  1  0.64384902  0.66983566  0.89407832  1
  Fe  Fe111  1  0.30570350  0.33025692  0.88562876  1
  Fe  Fe112  1  0.80665612  0.92241554  0.89218048  1
  Si  Si113  1  0.80783978  0.91406926  0.39009812  1
  Si  Si114  1  0.47265871  0.41921884  0.38501716  1
  Si  Si115  1  0.69511563  0.16992849  0.11432112  1
  Si  Si116  1  0.97939414  0.32976828  0.88635650  1
  Si  Si117  1  0.53261030  0.08498311  0.11491086  1
  Si  Si118  1  0.52441805  0.41807063  0.11499837  1
  Si  Si119  1  0.13926072  0.58526029  0.88441134  1
  Si  Si120  1  0.53110730  0.58339306  0.11189182  1
  Si  Si121  1  0.68988883  0.33434555  0.11691435  1
  Si  Si122  1  0.14926009  0.57871399  0.38955752  1
  Si  Si123  1  0.85589221  0.91439469  0.61712788  1
  Si  Si124  1  0.80760327  0.41279300  0.38973281  1
  Si  Si125  1  0.02271381  0.17570738  0.10792067  1
  Si  Si126  1  0.30470395  0.66654009  0.88253555  1
  Si  Si127  1  0.85317816  0.42064074  0.11726862  1
  Si  Si128  1  0.52719439  0.59055459  0.61377842  1
  Si  Si129  1  0.47098656  0.08059344  0.38290302  1
  Si  Si130  1  0.85892266  0.90923105  0.11746120  1
  Si  Si131  1  0.30786168  0.15904198  0.88510320  1
  Si  Si132  1  0.18591088  0.57624740  0.11042535  1
  Si  Si133  1  0.47055572  0.58468943  0.88574304  1
  Si  Si134  1  0.98152422  0.16735654  0.88402978  1
  Si  Si135  1  0.01647535  0.83002961  0.61344112  1
  Si  Si136  1  0.53596664  0.91806588  0.11234167  1
  Si  Si137  1  0.14726744  0.41615061  0.38563639  1
  Si  Si138  1  0.35771525  0.33536552  0.11344141  1
  Si  Si139  1  0.47222336  0.41810317  0.88604972  1
  Si  Si140  1  0.18658956  0.41273873  0.11472925  1
  Si  Si141  1  0.86020419  0.07814110  0.61490672  1
  Si  Si142  1  0.02277328  0.82445344  0.11338611  1
  Si  Si143  1  0.18903516  0.08271989  0.60725238  1
  Si  Si144  1  0.30576241  0.83126498  0.88299917  1
  Si  Si145  1  0.63373949  0.16873675  0.38867314  1
  Si  Si146  1  0.98039261  0.17113846  0.38931182  1
  Si  Si147  1  0.97569798  0.83220639  0.88950050  1
  Si  Si148  1  0.46807293  0.91443318  0.88485803  1
  Si  Si149  1  0.35518171  0.33439804  0.60718571  1
  Si  Si150  1  0.01425457  0.33707386  0.11562444  1
  Si  Si151  1  0.69409709  0.83027920  0.61819971  1
  Si  Si152  1  0.14208201  0.07730122  0.88354714  1
  Si  Si153  1  0.13999287  0.91288245  0.88387430  1
  Si  Si154  1  0.18793050  0.41626759  0.61011789  1
  Si  Si155  1  0.53173858  0.07859219  0.61207998  1
  Si  Si156  1  0.36207752  0.83683942  0.61135944  1
  Si  Si157  1  0.97959720  0.33728213  0.38839114  1
  Si  Si158  1  0.97721763  0.66797605  0.88627072  1
  Si  Si159  1  0.81486456  0.58259944  0.89318215  1
  Si  Si160  1  0.81233503  0.09336448  0.88732090  1
  Si  Si161  1  0.02191487  0.65968289  0.11590951  1
  Si  Si162  1  0.86531022  0.41967629  0.61396614  1
  Si  Si163  1  0.69336808  0.66696041  0.11952948  1
  Si  Si164  1  0.69396062  0.16055002  0.61311707  1
  Si  Si165  1  0.64029528  0.83063105  0.38598202  1
  Si  Si166  1  0.14148011  0.91886585  0.38365071  1
  Si  Si167  1  0.63660385  0.33149125  0.88812563  1
  Si  Si168  1  0.47492019  0.07875425  0.88274090  1
  Si  Si169  1  0.63715788  0.83798215  0.89396491  1
  Si  Si170  1  0.63769005  0.33449039  0.38612672  1
  Si  Si171  1  0.69540289  0.66814399  0.61873902  1
  Si  Si172  1  0.47551683  0.91513895  0.38363347  1
  Si  Si173  1  0.02402159  0.33820116  0.61359467  1
  Si  Si174  1  0.47059840  0.58460794  0.38469380  1
  Si  Si175  1  0.80138645  0.57796503  0.39258414  1
  Si  Si176  1  0.85657307  0.58247726  0.61833907  1
  Si  Si177  1  0.63771740  0.16605949  0.88339346  1
  Si  Si178  1  0.30721440  0.66954781  0.38419280  1
  Si  Si179  1  0.30872024  0.16522944  0.38292853  1
  Si  Si180  1  0.85683774  0.58248288  0.11991036  1
  Si  Si181  1  0.01671957  0.66852386  0.61369787  1
  Si  Si182  1  0.98034933  0.83632419  0.39112950  1
  Si  Si183  1  0.13913562  0.41916162  0.88619799  1
  Si  Si184  1  0.36633384  0.16821540  0.10999400  1
  Si  Si185  1  0.53128452  0.91331754  0.61836120  1
  Si  Si186  1  0.30719306  0.83491555  0.38343677  1
  Si  Si187  1  0.14110339  0.08646503  0.38181492  1
  Si  Si188  1  0.31297218  0.32971835  0.38410688  1
  Si  Si189  1  0.36343895  0.67140062  0.61195502  1
  Si  Si190  1  0.69583535  0.83028274  0.11973651  1
  Si  Si191  1  0.63642667  0.66429703  0.38681246  1
  O  O192  1  0.28806184  0.12382342  0.07098829  1
  O  O193  1  0.27495786  0.09544964  0.57667431  1
  O  O194  1  0.26245855  0.60075399  0.07467148  1
  O  O195  1  0.28823515  0.61953519  0.57612373  1
  O  O196  1  0.61157912  0.12045891  0.08573500  1
  O  O197  1  0.61939717  0.10200183  0.58513079  1
  O  O198  1  0.61819039  0.61085897  0.08705913  1
  O  O199  1  0.61130950  0.62157340  0.58599598  1
  O  O200  1  0.95191401  0.11844151  0.07422672  1
  O  O201  1  0.93743948  0.10278895  0.57952618  1
  O  O202  1  0.93884651  0.60902198  0.08820908  1
  O  O203  1  0.93730435  0.61338137  0.58733649  1
  O  O204  1  0.10143192  0.36380233  0.08988112  1
  O  O205  1  0.11034711  0.35903116  0.58477777  1
  O  O206  1  0.09724299  0.84962756  0.07537057  1
  O  O207  1  0.09576545  0.84890684  0.57817749  1
  O  O208  1  0.43440309  0.37815230  0.08558688  1
  O  O209  1  0.42818442  0.36835976  0.57026602  1
  O  O210  1  0.46042581  0.86904207  0.07542242  1
  O  O211  1  0.44845578  0.86431415  0.58482048  1
  O  O212  1  0.77052272  0.36970611  0.08888549  1
  O  O213  1  0.79729719  0.36277522  0.57740008  1
  O  O214  1  0.78072978  0.85230454  0.09144436  1
  O  O215  1  0.77331359  0.86489785  0.58691067  1
  O  O216  1  0.26692866  0.37574190  0.08518219  1
  O  O217  1  0.27010279  0.38566264  0.58163486  1
  O  O218  1  0.27812049  0.90485584  0.06360920  1
  O  O219  1  0.28464859  0.88596453  0.57499760  1
  O  O220  1  0.60344147  0.37947549  0.08751173  1
  O  O221  1  0.61133899  0.39064110  0.56604759  1
  O  O222  1  0.62296760  0.88901007  0.08810593  1
  O  O223  1  0.60969533  0.87700509  0.58606296  1
  O  O224  1  0.93587640  0.39324190  0.08664885  1
  O  O225  1  0.95687944  0.40472767  0.58984520  1
  O  O226  1  0.93791165  0.87278315  0.08732749  1
  O  O227  1  0.93639317  0.88444900  0.58556296  1
  O  O228  1  0.10883378  0.16921654  0.07782065  1
  O  O229  1  0.12255326  0.14671868  0.57815191  1
  O  O230  1  0.09954945  0.62406437  0.08358281  1
  O  O231  1  0.09559117  0.64777030  0.57819180  1
  O  O232  1  0.45193282  0.13616313  0.08496827  1
  O  O233  1  0.45540599  0.12670245  0.57226475  1
  O  O234  1  0.45324937  0.63027747  0.07537962  1
  O  O235  1  0.45318590  0.65106214  0.58772339  1
  O  O236  1  0.77085361  0.14239362  0.07926865  1
  O  O237  1  0.77808619  0.12865672  0.58655658  1
  O  O238  1  0.77907775  0.63844304  0.09347881  1
  O  O239  1  0.77430797  0.63250255  0.58788184  1
  O  O240  1  0.06771995  0.12522076  0.41646989  1
  O  O241  1  0.06090325  0.11274573  0.91180913  1
  O  O242  1  0.07479814  0.60453868  0.42719628  1
  O  O243  1  0.06153048  0.61922127  0.91672184  1
  O  O244  1  0.39111402  0.11509392  0.41212151  1
  O  O245  1  0.39692432  0.11474040  0.91471832  1
  O  O246  1  0.39609500  0.62751169  0.41384283  1
  O  O247  1  0.38335264  0.61303841  0.91136008  1
  O  O248  1  0.71926370  0.13260795  0.42640369  1
  O  O249  1  0.73116294  0.13239584  0.91408665  1
  O  O250  1  0.72015310  0.61768047  0.41897348  1
  O  O251  1  0.73907506  0.61383465  0.92857450  1
  O  O252  1  0.22982496  0.36348636  0.41053906  1
  O  O253  1  0.21835407  0.37365896  0.92365777  1
  O  O254  1  0.23127596  0.87568464  0.41355107  1
  O  O255  1  0.22346993  0.86311678  0.91098662  1
  O  O256  1  0.56563643  0.38375525  0.41274696  1
  O  O257  1  0.55834293  0.37216102  0.91566551  1
  O  O258  1  0.56316674  0.87185352  0.41597657  1
  O  O259  1  0.54820735  0.86538113  0.91843701  1
  O  O260  1  0.89950592  0.37428401  0.41756471  1
  O  O261  1  0.90147465  0.34788876  0.92340596  1
  O  O262  1  0.89765331  0.87217447  0.41772093  1
  O  O263  1  0.90168945  0.86269105  0.92554237  1
  O  O264  1  0.06551584  0.38470076  0.41623897  1
  O  O265  1  0.05467474  0.38868471  0.91306884  1
  O  O266  1  0.06491336  0.88735347  0.41939316  1
  O  O267  1  0.06304792  0.87843409  0.91600240  1
  O  O268  1  0.39848232  0.37644356  0.41529543  1
  O  O269  1  0.40019099  0.38580944  0.92365069  1
  O  O270  1  0.39753510  0.87607760  0.41299099  1
  O  O271  1  0.38615583  0.88168153  0.91457563  1
  O  O272  1  0.73203939  0.36644216  0.41552593  1
  O  O273  1  0.72109635  0.37032964  0.92671405  1
  O  O274  1  0.73086602  0.86732650  0.41714848  1
  O  O275  1  0.70948727  0.89559105  0.92496195  1
  O  O276  1  0.22886152  0.13077568  0.41154203  1
  O  O277  1  0.22948712  0.11910627  0.91528812  1
  O  O278  1  0.23337858  0.62921933  0.41582800  1
  O  O279  1  0.22329519  0.63427735  0.91205564  1
  O  O280  1  0.55376581  0.12832053  0.41403481  1
  O  O281  1  0.56448788  0.12069685  0.91386286  1
  O  O282  1  0.55833586  0.62609850  0.41652776  1
  O  O283  1  0.54697100  0.63292923  0.92369296  1
  O  O284  1  0.90685400  0.13886799  0.42511642  1
  O  O285  1  0.89595054  0.14590186  0.91326553  1
  O  O286  1  0.88539686  0.61988633  0.42634882  1
  O  O287  1  0.89868124  0.63583648  0.91778987  1
  O  O288  1  0.14153706  0.00834991  0.06889408  1
  O  O289  1  0.14710278  0.00593564  0.57841686  1
  O  O290  1  0.16292218  0.49276531  0.08291548  1
  O  O291  1  0.16211253  0.49325062  0.57481625  1
  O  O292  1  0.52114394  0.00285870  0.08597808  1
  O  O293  1  0.51645131  -0.00601285  0.58539134  1
  O  O294  1  0.51774144  0.49917573  0.08496389  1
  O  O295  1  0.49963551  0.51644030  0.57559833  1
  O  O296  1  0.83554353  -0.01468086  0.07936008  1
  O  O297  1  0.83344846  -0.00439080  0.58865546  1
  O  O298  1  0.82961010  0.50188855  0.08820622  1
  O  O299  1  0.83681830  0.50173244  0.58636964  1
  O  O300  1  -0.01490204  0.25836022  0.08505309  1
  O  O301  1  -0.01318440  0.26384746  0.57969031  1
  O  O302  1  -0.00031747  0.74043191  0.08690827  1
  O  O303  1  -0.01930471  0.74907986  0.58972506  1
  O  O304  1  0.35703969  0.25367057  0.08405889  1
  O  O305  1  0.33180974  0.25523543  0.57504027  1
  O  O306  1  0.32495013  0.75137124  0.06478033  1
  O  O307  1  0.34372046  0.75376621  0.58335276  1
  O  O308  1  0.67247041  0.25329756  0.08756550  1
  O  O309  1  0.67142009  0.23624534  0.57543440  1
  O  O310  1  0.67021954  0.74840695  0.09028643  1
  O  O311  1  0.68023031  0.74898920  0.58491630  1
  O  O312  1  0.15626187  0.00308729  0.40911573  1
  O  O313  1  0.15545759  -0.00511125  0.91264421  1
  O  O314  1  0.17542602  0.49571590  0.41637417  1
  O  O315  1  0.15310486  0.50343637  0.91410962  1
  O  O316  1  0.48456708  -0.00191995  0.41269847  1
  O  O317  1  0.48418669  -0.00310980  0.91417512  1
  O  O318  1  0.47494626  0.50186998  0.41366521  1
  O  O319  1  0.48815757  0.50173710  0.91334882  1
  O  O320  1  0.81278278  -0.00968483  0.42947268  1
  O  O321  1  0.83126595  0.01749568  0.92460993  1
  O  O322  1  0.80619083  0.49348560  0.42182595  1
  O  O323  1  0.84190593  0.50413237  0.92671712  1
  O  O324  1  0.32572085  0.24730748  0.41362530  1
  O  O325  1  0.32035114  0.23658730  0.92163206  1
  O  O326  1  0.31614937  0.75218975  0.41397549  1
  O  O327  1  0.32287189  0.74854062  0.91187711  1
  O  O328  1  0.62986557  0.25330122  0.41400031  1
  O  O329  1  0.63551083  0.24717028  0.91542205  1
  O  O330  1  0.64315191  0.74740365  0.41556651  1
  O  O331  1  0.66122509  0.76147096  0.93175342  1
  O  O332  1  0.99769640  0.25555413  0.41659348  1
  O  O333  1  1.01356778  0.24794656  0.91072709  1
  O  O334  1  0.99691129  0.75961326  0.42937598  1
  O  O335  1  0.99830271  0.74907284  0.91630419  1
  O  O336  1  0.21752011  0.09145914  0.19396051  1
  O  O337  1  0.20786486  0.08218906  0.68962831  1
  O  O338  1  0.20689490  0.58022564  0.19189202  1
  O  O339  1  0.21030743  0.58448529  0.69861125  1
  O  O340  1  0.54783231  0.08470178  0.19579476  1
  O  O341  1  0.54602738  0.08621682  0.69169929  1
  O  O342  1  0.54357729  0.58210781  0.19343350  1
  O  O343  1  0.54362271  0.58526918  0.69446419  1
  O  O344  1  0.87816976  0.08416771  0.20225663  1
  O  O345  1  0.87878779  0.08185004  0.69579371  1
  O  O346  1  0.87932250  0.57613043  0.19908236  1
  O  O347  1  0.87654399  0.58077664  0.69791193  1
  O  O348  1  0.02859915  0.33584831  0.19523411  1
  O  O349  1  0.04344630  0.33533121  0.69494538  1
  O  O350  1  0.04419835  0.82867504  0.19423170  1
  O  O351  1  0.03878015  0.83288538  0.69453058  1
  O  O352  1  0.37758568  0.33493468  0.19396599  1
  O  O353  1  0.37958398  0.33835538  0.68763679  1
  O  O354  1  0.38120372  0.83333783  0.19681295  1
  O  O355  1  0.37672926  0.83470634  0.69216014  1
  O  O356  1  0.70861154  0.33488755  0.19776312  1
  O  O357  1  0.71127958  0.33268872  0.69909403  1
  O  O358  1  0.70710757  0.83089742  0.19940887  1
  O  O359  1  0.71162848  0.82789621  0.69718040  1
  O  O360  1  0.21321243  0.42096741  0.19371988  1
  O  O361  1  0.20668206  0.41947147  0.69106367  1
  O  O362  1  0.21621090  0.90659474  0.19254184  1
  O  O363  1  0.21004227  0.91449976  0.69857343  1
  O  O364  1  0.54228225  0.41652690  0.19581458  1
  O  O365  1  0.54599004  0.41767666  0.70109376  1
  O  O366  1  0.54807159  0.91750428  0.19368554  1
  O  O367  1  0.54614999  0.91328411  0.69707705  1
  O  O368  1  0.87206390  0.41776006  0.19796685  1
  O  O369  1  0.87912248  0.41799024  0.69493057  1
  O  O370  1  0.87693057  0.91719875  0.19742041  1
  O  O371  1  0.87681739  0.91455295  0.69709288  1
  O  O372  1  0.03890970  0.17023047  0.18980715  1
  O  O373  1  0.04545282  0.16646737  0.70080394  1
  O  O374  1  0.04515000  0.66058473  0.19600334  1
  O  O375  1  0.03971224  0.66637946  0.69462201  1
  O  O376  1  0.38247824  0.16741245  0.19126793  1
  O  O377  1  0.37941670  0.16505773  0.69811203  1
  O  O378  1  0.37713074  0.66542401  0.19784039  1
  O  O379  1  0.37684660  0.66845086  0.69306787  1
  O  O380  1  0.70953106  0.16955656  0.19549938  1
  O  O381  1  0.71119593  0.16609102  0.69402026  1
  O  O382  1  0.70247548  0.66580141  0.19889806  1
  O  O383  1  0.70991744  0.66827346  0.69799161  1
  O  O384  1  0.11816962  0.09024556  0.30263049  1
  O  O385  1  0.12458033  0.07911439  0.80333086  1
  O  O386  1  0.12887030  0.58066815  0.30832017  1
  O  O387  1  0.12107119  0.58501038  0.80423042  1
  O  O388  1  0.45776264  0.08257493  0.30243939  1
  O  O389  1  0.45643454  0.08309933  0.80380655  1
  O  O390  1  0.45581289  0.58274809  0.30435166  1
  O  O391  1  0.45516328  0.58551754  0.80462750  1
  O  O392  1  0.78713602  0.08452044  0.30311114  1
  O  O393  1  0.79299866  0.08788035  0.80669431  1
  O  O394  1  0.78233847  0.57382897  0.31261655  1
  O  O395  1  0.79160873  0.58054450  0.81261742  1
  O  O396  1  0.30231961  0.33154861  0.30480767  1
  O  O397  1  0.28749088  0.33554069  0.79559568  1
  O  O398  1  0.29120527  0.83198384  0.30372728  1
  O  O399  1  0.28898046  0.83090166  0.80277329  1
  O  O400  1  0.62171228  0.33473660  0.30525308  1
  O  O401  1  0.62405630  0.33225891  0.80779691  1
  O  O402  1  0.61975683  0.83358429  0.30598879  1
  O  O403  1  0.62035753  0.83088962  0.81357932  1
  O  O404  1  0.95685455  0.33639982  0.30792330  1
  O  O405  1  0.95838242  0.33253808  0.80525549  1
  O  O406  1  0.96464783  0.83345223  0.31116429  1
  O  O407  1  0.95744867  0.83332569  0.80854581  1
  O  O408  1  0.12136395  0.42141495  0.30651683  1
  O  O409  1  0.12394408  0.41831257  0.80526974  1
  O  O410  1  0.12019136  0.90939669  0.30486452  1
  O  O411  1  0.12039700  0.91380593  0.80357292  1
  O  O412  1  0.45603378  0.41780631  0.30429932  1
  O  O413  1  0.45427482  0.41724823  0.80538754  1
  O  O414  1  0.46091044  0.91590412  0.30366718  1
  O  O415  1  0.45034983  0.91210553  0.80540862  1
  O  O416  1  0.78947757  0.41466316  0.30887189  1
  O  O417  1  0.79034271  0.41664870  0.80105253  1
  O  O418  1  0.78778856  0.92070498  0.31029876  1
  O  O419  1  0.79165438  0.91851654  0.80211891  1
  O  O420  1  0.29426310  0.16713194  0.30302380  1
  O  O421  1  0.28629840  0.15882604  0.80548137  1
  O  O422  1  0.28918348  0.66640737  0.30393895  1
  O  O423  1  0.28824930  0.66827340  0.80228445  1
  O  O424  1  0.62184935  0.16775064  0.30727103  1
  O  O425  1  0.62260425  0.16695079  0.80335233  1
  O  O426  1  0.61845849  0.66352148  0.30664959  1
  O  O427  1  0.62198344  0.66745543  0.80241956  1
  O  O428  1  0.95784768  0.17033459  0.30845357  1
  O  O429  1  0.95864053  0.16602117  0.80382190  1
  O  O430  1  0.97026333  0.66592362  0.30739353  1
  O  O431  1  0.96212873  0.66693326  0.80662295  1
  F  F432  1  0.02959053  -0.00220142  0.19844250  1
  F  F433  1  0.04309584  -0.00280646  0.70195383  1
  F  F434  1  0.04399986  0.50009499  0.20469296  1
  F  F435  1  0.04449608  0.50133127  0.70382080  1
  F  F436  1  0.38500358  0.00057819  0.19786711  1
  F  F437  1  0.37459082  -0.00091091  0.69890446  1
  F  F438  1  0.37884630  0.49876646  0.20059539  1
  F  F439  1  0.37969551  0.50162592  0.70160744  1
  F  F440  1  0.71113778  -0.00087263  0.20306120  1
  F  F441  1  0.71651767  0.00775533  0.69890918  1
  F  F442  1  0.71097366  0.49826402  0.20511917  1
  F  F443  1  0.71184124  0.50436129  0.70376231  1
  F  F444  1  0.21888639  0.24496751  0.19642569  1
  F  F445  1  0.20464509  0.24901279  0.69709313  1
  F  F446  1  0.21156650  0.74519701  0.20047269  1
  F  F447  1  0.21040948  0.74973244  0.69908475  1
  F  F448  1  0.54696998  0.25148588  0.20265173  1
  F  F449  1  0.54665276  0.25059271  0.70007315  1
  F  F450  1  0.54783077  0.74882219  0.20368076  1
  F  F451  1  0.54611219  0.75309585  0.70390877  1
  F  F452  1  0.87559229  0.25159782  0.20634277  1
  F  F453  1  0.87957141  0.25012008  0.70298376  1
  F  F454  1  0.88427907  0.75691545  0.20293177  1
  F  F455  1  0.87754297  0.75398972  0.70515728  1
  F  F456  1  0.30548700  -0.00166422  0.29896100  1
  F  F457  1  0.28715945  0.00014475  0.79678699  1
  F  F458  1  0.29019318  0.50089172  0.29689095  1
  F  F459  1  0.28887989  0.49983410  0.79666012  1
  F  F460  1  0.62087253  0.00004238  0.29883144  1
  F  F461  1  0.62435856  0.00602879  0.80203366  1
  F  F462  1  0.61761022  0.49893451  0.29879456  1
  F  F463  1  0.62238503  0.50255953  0.80072138  1
  F  F464  1  0.95704883  -0.00088860  0.30275398  1
  F  F465  1  0.95571458  0.00040888  0.79821575  1
  F  F466  1  0.95449657  0.49767857  0.30295157  1
  F  F467  1  0.95686593  0.49984695  0.79998889  1
  F  F468  1  0.11773541  0.24143013  0.29870828  1
  F  F469  1  0.12396188  0.25192985  0.79868298  1
  F  F470  1  0.12579250  0.74859261  0.29680526  1
  F  F471  1  0.12072894  0.74981804  0.79501119  1
  F  F472  1  0.45586067  0.24960869  0.29603280  1
  F  F473  1  0.46311353  0.25131370  0.79909559  1
  F  F474  1  0.45648033  0.74942895  0.29914508  1
  F  F475  1  0.45160711  0.75038692  0.79627531  1
  F  F476  1  0.78665369  0.25203884  0.30114338  1
  F  F477  1  0.78938377  0.24804951  0.79831118  1
  F  F478  1  0.77463145  0.75337133  0.31677584  1
  F  F479  1  0.78770796  0.75322725  0.80624796  1
