# generated using pymatgen
data_K24Na3Li5Mg64Fe17Si79(O5F)48
_symmetry_space_group_name_H-M   'P 1'
_cell_length_a   16.07816196
_cell_length_b   18.57848020
_cell_length_c   20.54398723
_cell_angle_alpha   89.99399198
_cell_angle_beta   100.01239611
_cell_angle_gamma   90.01410667
_symmetry_Int_Tables_number   1
_chemical_formula_structural   K24Na3Li5Mg64Fe17Si79(O5F)48
_chemical_formula_sum   'K24 Na3 Li5 Mg64 Fe17 Si79 O240 F48'
_cell_volume   6043.18912916
_cell_formula_units_Z   1
loop_
 _symmetry_equiv_pos_site_id
 _symmetry_equiv_pos_as_xyz
  1  'x, y, z'
loop_
 _atom_site_type_symbol
 _atom_site_label
 _atom_site_symmetry_multiplicity
 _atom_site_fract_x
 _atom_site_fract_y
 _atom_site_fract_z
 _atom_site_occupancy
  K  K0  1  0.00361041  0.00205179  -0.00473428  1
  K  K1  1  -0.00111653  -0.00038621  0.50505820  1
  K  K2  1  0.01248542  0.50210295  -0.00166161  1
  K  K3  1  0.00919204  0.48901531  0.50890696  1
  K  K4  1  0.31878023  0.00132324  -0.00454845  1
  K  K5  1  0.33406841  0.00480301  0.50805602  1
  K  K6  1  0.32589090  0.50478463  0.00281087  1
  K  K7  1  0.32805702  0.49051797  0.49749074  1
  K  K8  1  0.66933873  -0.00390977  -0.00680425  1
  K  K9  1  0.67593907  0.01058998  0.50492214  1
  K  K10  1  0.67234754  0.49824791  0.00394107  1
  K  K11  1  0.66930919  0.49153690  0.49621514  1
  K  K12  1  0.16850529  0.25023821  -0.00669799  1
  K  K13  1  0.17338227  0.25653547  0.51405298  1
  K  K14  1  0.16590843  0.74792592  -0.00126697  1
  K  K15  1  0.16311491  0.74296925  0.50448030  1
  K  K16  1  0.50050595  0.25509126  -0.00616461  1
  K  K17  1  0.49402187  0.25554204  0.49928344  1
  K  K18  1  0.50273761  0.74493161  0.00211616  1
  K  K19  1  0.49607208  0.74724987  0.49982999  1
  K  K20  1  0.82967708  0.24965061  -0.00408534  1
  K  K21  1  0.83976827  0.25620687  0.50902121  1
  K  K22  1  0.82652656  0.75107943  0.00270278  1
  K  K23  1  0.83782186  0.74792866  0.49868558  1
  Na  Na24  1  0.32755564  0.24566134  0.74585603  1
  Na  Na25  1  0.50263592  0.82989913  0.24758091  1
  Na  Na26  1  0.83417942  0.82685805  0.24875110  1
  Li  Li27  1  -0.00582362  0.74902975  0.24775206  1
  Li  Li28  1  0.49833645  0.49797671  0.25206913  1
  Li  Li29  1  0.32890052  0.08856785  0.74902864  1
  Li  Li30  1  0.16644016  0.66593330  0.75416797  1
  Li  Li31  1  0.17219162  0.16909343  0.74579164  1
  Mg  Mg32  1  0.33436855  0.25225828  0.25180427  1
  Mg  Mg33  1  0.00163987  0.74942043  0.75208049  1
  Mg  Mg34  1  0.16461072  0.50051857  0.74903308  1
  Mg  Mg35  1  0.49655277  0.49922465  0.75114214  1
  Mg  Mg36  1  0.83394429  0.50019740  0.24747104  1
  Mg  Mg37  1  0.16860215  0.49990269  0.25179317  1
  Mg  Mg38  1  0.66840191  0.74702158  0.24987001  1
  Mg  Mg39  1  0.83348020  0.50078522  0.74853587  1
  Mg  Mg40  1  0.00072991  0.25163803  0.24935199  1
  Mg  Mg41  1  0.66314568  0.74936853  0.75487523  1
  Mg  Mg42  1  0.33625991  0.75119047  0.25063244  1
  Mg  Mg43  1  0.00306538  0.24862923  0.74588579  1
  Mg  Mg44  1  0.32813476  0.75120964  0.75326534  1
  Mg  Mg45  1  0.17048687  0.00580532  0.75098246  1
  Mg  Mg46  1  0.16721407  -0.00190030  0.24736508  1
  Mg  Mg47  1  0.49637377  0.00192563  0.75009040  1
  Mg  Mg48  1  0.50093341  -0.00140179  0.25009471  1
  Mg  Mg49  1  0.66763672  0.25164454  0.24875916  1
  Mg  Mg50  1  0.83477885  -0.00377682  0.25055429  1
  Mg  Mg51  1  0.66719753  0.24881502  0.74610033  1
  Mg  Mg52  1  0.83268696  0.00204494  0.74885738  1
  Mg  Mg53  1  0.16674564  0.33699559  0.25197428  1
  Mg  Mg54  1  0.50066487  0.16661135  0.24995032  1
  Mg  Mg55  1  0.66417652  0.58183194  0.25001506  1
  Mg  Mg56  1  -0.00047826  0.91176733  0.24866897  1
  Mg  Mg57  1  0.16431105  0.83369723  0.24801089  1
  Mg  Mg58  1  0.66756203  0.41629252  0.74821013  1
  Mg  Mg59  1  0.66571917  0.41612882  0.25016062  1
  Mg  Mg60  1  0.83329898  0.33519005  0.24765849  1
  Mg  Mg61  1  0.16539737  0.66932998  0.25328982  1
  Mg  Mg62  1  0.00038858  0.91735267  0.74845673  1
  Mg  Mg63  1  0.16844906  0.83371066  0.75121886  1
  Mg  Mg64  1  0.16519079  0.16605034  0.24804696  1
  Mg  Mg65  1  0.66713201  0.08296063  0.24850019  1
  Mg  Mg66  1  0.00290538  0.58597790  0.74942022  1
  Mg  Mg67  1  0.50086794  0.33755568  0.25119258  1
  Mg  Mg68  1  0.66592263  0.91519122  0.75412610  1
  Mg  Mg69  1  0.83371423  0.66518632  0.75238332  1
  Mg  Mg70  1  0.16623507  0.33258417  0.74741373  1
  Mg  Mg71  1  0.49838132  0.33203385  0.74892642  1
  Mg  Mg72  1  0.83318662  0.66651778  0.24961005  1
  Mg  Mg73  1  0.00271314  0.41629452  0.24787172  1
  Mg  Mg74  1  0.33329143  0.91913172  0.75360527  1
  Mg  Mg75  1  0.83267705  0.16511417  0.24792085  1
  Mg  Mg76  1  0.33289039  0.91538940  0.24736620  1
  Mg  Mg77  1  0.83441221  0.33459413  0.74607177  1
  Mg  Mg78  1  0.83194587  0.83427248  0.75103866  1
  Mg  Mg79  1  0.83245974  0.16427096  0.74745350  1
  Mg  Mg80  1  0.33275931  0.08363119  0.24779681  1
  Mg  Mg81  1  0.49696256  0.66581543  0.75445321  1
  Mg  Mg82  1  0.66778795  0.08481693  0.74726683  1
  Mg  Mg83  1  0.32652287  0.58494600  0.75182272  1
  Mg  Mg84  1  0.49932705  0.83504326  0.75528401  1
  Mg  Mg85  1  0.49795599  0.16574868  0.74952252  1
  Mg  Mg86  1  0.33613905  0.58402366  0.25392327  1
  Mg  Mg87  1  0.33035549  0.41355799  0.75051882  1
  Mg  Mg88  1  0.66792883  0.91409354  0.25052907  1
  Mg  Mg89  1  0.66714065  0.58358461  0.75396531  1
  Mg  Mg90  1  0.00032789  0.58687118  0.25233342  1
  Mg  Mg91  1  -0.00072527  0.08258062  0.24846854  1
  Mg  Mg92  1  0.50084614  0.66260474  0.25243904  1
  Mg  Mg93  1  0.00078226  0.08538308  0.74744686  1
  Mg  Mg94  1  -0.00003773  0.41646678  0.74628926  1
  Mg  Mg95  1  0.33594525  0.41838130  0.25244938  1
  Fe  Fe96  1  0.68549626  0.17141722  0.60466473  1
  Fe  Fe97  1  0.19997808  0.41706216  0.11118133  1
  Fe  Fe98  1  0.63939123  0.83022844  0.89352053  1
  Fe  Fe99  1  0.13905307  0.41744671  0.39244030  1
  Fe  Fe100  1  0.19748432  0.41638775  0.60907520  1
  Fe  Fe101  1  0.85872071  0.08331696  0.60533364  1
  Fe  Fe102  1  0.68697126  0.66589091  0.11009894  1
  Fe  Fe103  1  0.81075808  0.08501268  0.89036810  1
  Fe  Fe104  1  0.47277832  0.41849415  0.39224147  1
  Fe  Fe105  1  0.19007432  0.91403370  0.10740049  1
  Fe  Fe106  1  0.02877161  0.33167231  0.10839918  1
  Fe  Fe107  1  0.14417295  0.41480928  0.88903683  1
  Fe  Fe108  1  0.30897930  0.83828264  0.89165299  1
  Fe  Fe109  1  0.14413420  0.58841990  0.88889446  1
  Fe  Fe110  1  0.85734039  0.41999099  0.60687727  1
  Fe  Fe111  1  0.69598938  0.33347680  0.10898438  1
  Fe  Fe112  1  0.81024537  0.57974124  0.89064966  1
  Si  Si113  1  0.97781306  0.83304676  0.38618151  1
  Si  Si114  1  0.30917974  0.67404773  0.38806327  1
  Si  Si115  1  0.69023078  0.16156009  0.11140063  1
  Si  Si116  1  0.80966471  0.08117428  0.38487841  1
  Si  Si117  1  0.52264445  0.08199505  0.11421652  1
  Si  Si118  1  0.36442612  0.16380793  0.61299416  1
  Si  Si119  1  0.14409881  0.58997056  0.39054500  1
  Si  Si120  1  0.35763080  0.83408011  0.61663751  1
  Si  Si121  1  0.01933852  0.16432396  0.11276731  1
  Si  Si122  1  0.86548986  0.42106370  0.11119219  1
  Si  Si123  1  0.52725781  0.92059992  0.11522597  1
  Si  Si124  1  0.47302235  0.41320223  0.88508309  1
  Si  Si125  1  0.18948864  0.08734780  0.11173666  1
  Si  Si126  1  0.81020875  0.41050506  0.88501057  1
  Si  Si127  1  0.68426794  0.33894201  0.60914936  1
  Si  Si128  1  0.63609654  0.65767697  0.89041413  1
  Si  Si129  1  0.96715041  0.33233544  0.38697777  1
  Si  Si130  1  0.36793465  0.33204918  0.61133892  1
  Si  Si131  1  0.14215148  0.08391039  0.88384659  1
  Si  Si132  1  0.47930589  0.91778228  0.38587129  1
  Si  Si133  1  0.47551197  0.59013022  0.39185203  1
  Si  Si134  1  0.31155446  0.83911929  0.38692307  1
  Si  Si135  1  0.03045642  0.16215936  0.61019852  1
  Si  Si136  1  0.52335174  0.07824573  0.60986499  1
  Si  Si137  1  0.02684336  0.83611225  0.61378542  1
  Si  Si138  1  0.68533636  0.83676089  0.11302504  1
  Si  Si139  1  0.30513645  0.32553643  0.39127289  1
  Si  Si140  1  0.80919430  0.58214021  0.38691910  1
  Si  Si141  1  0.30972435  0.32631297  0.88753546  1
  Si  Si142  1  0.13510075  0.91866530  0.88528885  1
  Si  Si143  1  0.64096146  0.33461800  0.88237122  1
  Si  Si144  1  0.81081603  0.91728662  0.38736851  1
  Si  Si145  1  0.02524067  0.66705859  0.11955616  1
  Si  Si146  1  0.36001880  0.66695377  0.11716644  1
  Si  Si147  1  0.30771338  0.16049843  0.88263045  1
  Si  Si148  1  0.46750147  0.57885107  0.88618060  1
  Si  Si149  1  0.19794095  0.08443545  0.61359875  1
  Si  Si150  1  0.02536157  0.32856850  0.60749056  1
  Si  Si151  1  0.68777513  0.83093625  0.61566627  1
  Si  Si152  1  0.14020468  0.08193622  0.38457087  1
  Si  Si153  1  0.98032215  0.17008373  0.88560177  1
  Si  Si154  1  0.80434231  0.41669516  0.38442531  1
  Si  Si155  1  0.31372095  0.67118929  0.88932345  1
  Si  Si156  1  0.47381307  0.92431248  0.89116146  1
  Si  Si157  1  0.52549527  0.42181732  0.61573630  1
  Si  Si158  1  0.64121285  0.33070723  0.38806840  1
  Si  Si159  1  0.97299112  0.66708708  0.38759185  1
  Si  Si160  1  0.64467323  0.16572522  0.38431306  1
  Si  Si161  1  0.02010444  0.83072616  0.11171957  1
  Si  Si162  1  0.47861198  0.08166549  0.38534105  1
  Si  Si163  1  0.52906950  0.41456446  0.11459437  1
  Si  Si164  1  0.35902837  0.16864345  0.11485412  1
  Si  Si165  1  0.64391696  0.66765180  0.38877640  1
  Si  Si166  1  0.02373770  0.67192075  0.61439788  1
  Si  Si167  1  0.35537697  0.66992707  0.61641590  1
  Si  Si168  1  0.47523638  0.08639400  0.88402690  1
  Si  Si169  1  0.85385194  0.91078568  0.61135969  1
  Si  Si170  1  0.18964190  0.58652466  0.61287953  1
  Si  Si171  1  0.81182349  0.91532761  0.88871076  1
  Si  Si172  1  0.30988628  0.16001137  0.38506303  1
  Si  Si173  1  0.52270581  0.91416878  0.61572170  1
  Si  Si174  1  0.64803029  0.83316497  0.38749908  1
  Si  Si175  1  0.36278816  0.83277001  0.11268682  1
  Si  Si176  1  0.97300839  0.33272257  0.88238451  1
  Si  Si177  1  0.51987025  0.57675532  0.11631712  1
  Si  Si178  1  0.97433546  0.16614722  0.38435253  1
  Si  Si179  1  0.68549604  0.66754132  0.61600194  1
  Si  Si180  1  0.51984198  0.58554596  0.61697459  1
  Si  Si181  1  0.19242149  0.92031243  0.61391387  1
  Si  Si182  1  0.97349910  0.83445511  0.88262276  1
  Si  Si183  1  0.19052451  0.58979998  0.11746872  1
  Si  Si184  1  0.14137925  0.91616841  0.38689783  1
  Si  Si185  1  0.97257121  0.67133786  0.88878553  1
  Si  Si186  1  0.63708938  0.16867687  0.88582772  1
  Si  Si187  1  0.85692576  0.91507167  0.11491424  1
  Si  Si188  1  0.85794025  0.07774428  0.11434105  1
  Si  Si189  1  0.86105634  0.58538040  0.11482478  1
  Si  Si190  1  0.85577805  0.59219561  0.61028326  1
  Si  Si191  1  0.36823923  0.33302676  0.11428426  1
  O  O192  1  0.27266409  0.12362197  0.08594065  1
  O  O193  1  0.27576865  0.12111801  0.58136822  1
  O  O194  1  0.27093102  0.62621183  0.08858340  1
  O  O195  1  0.26687783  0.63072464  0.58396166  1
  O  O196  1  0.60729772  0.10836604  0.08605741  1
  O  O197  1  0.59774908  0.10483616  0.57249871  1
  O  O198  1  0.59563375  0.60320268  0.07882876  1
  O  O199  1  0.60065713  0.61896416  0.58665107  1
  O  O200  1  0.94351326  0.10417582  0.08785999  1
  O  O201  1  0.95661324  0.10978892  0.57217028  1
  O  O202  1  0.95010943  0.60960534  0.09033357  1
  O  O203  1  0.93141794  0.63700528  0.58100171  1
  O  O204  1  0.12560292  0.34645144  0.07421480  1
  O  O205  1  0.10393570  0.35996348  0.57592685  1
  O  O206  1  0.09391753  0.85871962  0.07304036  1
  O  O207  1  0.10237551  0.87871340  0.58323729  1
  O  O208  1  0.45762245  0.35175573  0.08892091  1
  O  O209  1  0.45231448  0.36476271  0.58380137  1
  O  O210  1  0.45107359  0.86323247  0.09056726  1
  O  O211  1  0.43772503  0.86661833  0.58498971  1
  O  O212  1  0.79229562  0.36505876  0.07756488  1
  O  O213  1  0.76178221  0.36409076  0.57339156  1
  O  O214  1  0.77143190  0.86842767  0.08855720  1
  O  O215  1  0.77072052  0.85733780  0.58514316  1
  O  O216  1  0.30026008  0.39074243  0.08065340  1
  O  O217  1  0.28790897  0.37631415  0.57308107  1
  O  O218  1  0.28537040  0.88040678  0.07415909  1
  O  O219  1  0.27068487  0.87885043  0.58529291  1
  O  O220  1  0.60743508  0.39712037  0.07660905  1
  O  O221  1  0.61152634  0.40315203  0.58772087  1
  O  O222  1  0.61053294  0.89674891  0.08438728  1
  O  O223  1  0.60369020  0.87990870  0.58578361  1
  O  O224  1  0.95147460  0.40647445  0.08247263  1
  O  O225  1  0.94218232  0.37304863  0.57150924  1
  O  O226  1  0.93357187  0.87833300  0.08340259  1
  O  O227  1  0.93533752  0.87329624  0.58329397  1
  O  O228  1  0.10636650  0.13870111  0.08624825  1
  O  O229  1  0.11551211  0.13259351  0.58177568  1
  O  O230  1  0.11068150  0.64457139  0.09039892  1
  O  O231  1  0.10145563  0.63294672  0.58542282  1
  O  O232  1  0.44031056  0.13329946  0.08658363  1
  O  O233  1  0.43646053  0.12269945  0.57768817  1
  O  O234  1  0.43520442  0.62618455  0.08746884  1
  O  O235  1  0.43614072  0.63456484  0.58714252  1
  O  O236  1  0.77367728  0.12590903  0.08570261  1
  O  O237  1  0.77345266  0.14288785  0.56292714  1
  O  O238  1  0.78665670  0.63826985  0.07983184  1
  O  O239  1  0.76719842  0.63976770  0.58506326  1
  O  O240  1  0.06383286  0.12384886  0.41318276  1
  O  O241  1  0.06490321  0.12111290  0.91526810  1
  O  O242  1  0.06472457  0.63044526  0.41903407  1
  O  O243  1  0.04732649  0.61870519  0.92301479  1
  O  O244  1  0.39619152  0.11312650  0.41384911  1
  O  O245  1  0.39159635  0.11105261  0.91486724  1
  O  O246  1  0.39821265  0.63437141  0.42073532  1
  O  O247  1  0.38597675  0.60738759  0.91579922  1
  O  O248  1  0.72850348  0.11650173  0.41206667  1
  O  O249  1  0.71430256  0.11966232  0.92302648  1
  O  O250  1  0.73092749  0.62117768  0.41755763  1
  O  O251  1  0.70608397  0.59718196  0.91740785  1
  O  O252  1  0.22144089  0.34729582  0.42056851  1
  O  O253  1  0.23468480  0.35246671  0.92480802  1
  O  O254  1  0.23482675  0.88060857  0.41653823  1
  O  O255  1  0.20812046  0.86539795  0.92127860  1
  O  O256  1  0.56759251  0.35936429  0.42520210  1
  O  O257  1  0.56162302  0.36993213  0.91238085  1
  O  O258  1  0.56595711  0.87101155  0.41393853  1
  O  O259  1  0.54677711  0.86904257  0.92570261  1
  O  O260  1  0.88248511  0.36290002  0.41361837  1
  O  O261  1  0.88130638  0.34718897  0.90725068  1
  O  O262  1  0.90073281  0.87542786  0.41586398  1
  O  O263  1  0.88829239  0.85542118  0.91157129  1
  O  O264  1  0.04349717  0.38137403  0.42301682  1
  O  O265  1  0.04097830  0.39066673  0.91691464  1
  O  O266  1  0.06891059  0.87286817  0.41985724  1
  O  O267  1  0.04596195  0.89445413  0.90978742  1
  O  O268  1  0.38457936  0.37323069  0.42681767  1
  O  O269  1  0.39921678  0.37211753  0.91647587  1
  O  O270  1  0.40094654  0.88129045  0.41772619  1
  O  O271  1  0.38798985  0.91095346  0.92095584  1
  O  O272  1  0.72427928  0.38240197  0.41337365  1
  O  O273  1  0.72453283  0.38204017  0.91275632  1
  O  O274  1  0.73505953  0.87779278  0.42017946  1
  O  O275  1  0.73283043  0.88979877  0.92274497  1
  O  O276  1  0.23175362  0.11989068  0.41399745  1
  O  O277  1  0.22907473  0.12729621  0.91737338  1
  O  O278  1  0.22870959  0.64101084  0.41794234  1
  O  O279  1  0.23134429  0.65404436  0.92200293  1
  O  O280  1  0.56344639  0.13011977  0.41280710  1
  O  O281  1  0.55060659  0.14417903  0.91382884  1
  O  O282  1  0.56374246  0.63704800  0.42064770  1
  O  O283  1  0.54756052  0.63071795  0.91492010  1
  O  O284  1  0.89763828  0.12450835  0.41323929  1
  O  O285  1  0.90405239  0.14434959  0.92245466  1
  O  O286  1  0.89625692  0.62669255  0.41890822  1
  O  O287  1  0.88678721  0.65500053  0.91852725  1
  O  O288  1  0.17190855  0.01023868  0.07642651  1
  O  O289  1  0.18625249  0.00118766  0.58007683  1
  O  O290  1  0.16936413  0.51239504  0.08369762  1
  O  O291  1  0.17860083  0.51067831  0.57449912  1
  O  O292  1  0.49828992  0.00126082  0.08462714  1
  O  O293  1  0.50235337  -0.00611106  0.58363316  1
  O  O294  1  0.49103108  0.49448225  0.09042689  1
  O  O295  1  0.49861412  0.50395457  0.58840782  1
  O  O296  1  0.83821046  -0.00318259  0.08385586  1
  O  O297  1  0.83436263  -0.01373332  0.57391486  1
  O  O298  1  0.83472991  0.50366293  0.08773686  1
  O  O299  1  0.84250845  0.51571558  0.57294821  1
  O  O300  1  -0.01484707  0.23902468  0.07969053  1
  O  O301  1  0.01267202  0.24414315  0.58031484  1
  O  O302  1  -0.00380103  0.74681146  0.08889777  1
  O  O303  1  0.02256710  0.75443399  0.58268169  1
  O  O304  1  0.34538449  0.24998819  0.08554121  1
  O  O305  1  0.35853859  0.24725631  0.58429933  1
  O  O306  1  0.35393088  0.74864821  0.08622743  1
  O  O307  1  0.34547676  0.75225452  0.58568379  1
  O  O308  1  0.66939997  0.23834901  0.07634820  1
  O  O309  1  0.64392434  0.26402247  0.57796787  1
  O  O310  1  0.66086335  0.76053943  0.07736578  1
  O  O311  1  0.66379195  0.74938488  0.58608606  1
  O  O312  1  0.14432854  -0.00028865  0.41546934  1
  O  O313  1  0.15324677  0.00136359  0.91470326  1
  O  O314  1  0.16166463  0.51245795  0.42517913  1
  O  O315  1  0.17774503  0.50165003  0.92798796  1
  O  O316  1  0.49581792  0.00015043  0.41681751  1
  O  O317  1  0.50641070  0.00722467  0.91479079  1
  O  O318  1  0.48727568  0.51303006  0.42860892  1
  O  O319  1  0.48601398  0.49589224  0.91400152  1
  O  O320  1  0.82173521  0.00008500  0.41748915  1
  O  O321  1  0.84557147  -0.00780661  0.92062716  1
  O  O322  1  0.81925825  0.49877423  0.41581776  1
  O  O323  1  0.84205377  0.48547538  0.92070062  1
  O  O324  1  0.32569483  0.23987584  0.41634122  1
  O  O325  1  0.33169954  0.24212352  0.91310472  1
  O  O326  1  0.32007585  0.75742801  0.41799024  1
  O  O327  1  0.35364303  0.74753875  0.91945075  1
  O  O328  1  0.66419272  0.24654755  0.41387094  1
  O  O329  1  0.65425116  0.25287594  0.91224530  1
  O  O330  1  0.65933310  0.75089525  0.41873072  1
  O  O331  1  0.66128666  0.73544529  0.92376797  1
  O  O332  1  0.97979759  0.24766979  0.41393878  1
  O  O333  1  1.00533345  0.25258001  0.91081540  1
  O  O334  1  0.97875521  0.75073356  0.41739663  1
  O  O335  1  1.00394746  0.75514809  0.91120697  1
  O  O336  1  0.20918973  0.08441294  0.19325929  1
  O  O337  1  0.21179895  0.07894864  0.69169900  1
  O  O338  1  0.21094863  0.58773445  0.19880650  1
  O  O339  1  0.21147338  0.58284655  0.69238261  1
  O  O340  1  0.54218015  0.08398175  0.19510668  1
  O  O341  1  0.54348257  0.08108929  0.69058422  1
  O  O342  1  0.54260482  0.58173526  0.19662426  1
  O  O343  1  0.54026502  0.58524553  0.69722076  1
  O  O344  1  0.87539109  0.08108791  0.19527033  1
  O  O345  1  0.87833837  0.08205535  0.69736357  1
  O  O346  1  0.87756809  0.58300485  0.19608103  1
  O  O347  1  0.87537830  0.58849167  0.69079073  1
  O  O348  1  0.04574063  0.33066041  0.20142460  1
  O  O349  1  0.03740655  0.33232200  0.68820630  1
  O  O350  1  0.04522298  0.83778875  0.19170621  1
  O  O351  1  0.04350578  0.83583228  0.69364690  1
  O  O352  1  0.37923568  0.32990570  0.19526980  1
  O  O353  1  0.38302730  0.33969055  0.69086045  1
  O  O354  1  0.36822988  0.83390823  0.19248372  1
  O  O355  1  0.37780918  0.83393738  0.69628159  1
  O  O356  1  0.71311952  0.33198236  0.20117012  1
  O  O357  1  0.70768690  0.33599242  0.69084324  1
  O  O358  1  0.69781118  0.83365012  0.19293462  1
  O  O359  1  0.70786949  0.83213077  0.69564533  1
  O  O360  1  0.21623191  0.41656013  0.20370719  1
  O  O361  1  0.21373171  0.41828751  0.69972369  1
  O  O362  1  0.21104853  0.91693871  0.19984232  1
  O  O363  1  0.20805839  0.91907624  0.69336749  1
  O  O364  1  0.55006343  0.41079001  0.19475020  1
  O  O365  1  0.54225918  0.41938238  0.69615879  1
  O  O366  1  0.54894189  0.92631030  0.19479733  1
  O  O367  1  0.54149232  0.91473454  0.69559499  1
  O  O368  1  0.87859552  0.41680490  0.19335774  1
  O  O369  1  0.87559893  0.41904957  0.69840646  1
  O  O370  1  0.88087694  0.92222149  0.19421012  1
  O  O371  1  0.87374442  0.91373724  0.69212676  1
  O  O372  1  0.04097208  0.16394613  0.19436749  1
  O  O373  1  0.03900890  0.16336273  0.68989034  1
  O  O374  1  0.04636332  0.66605772  0.19952080  1
  O  O375  1  0.03513963  0.67139139  0.69335172  1
  O  O376  1  0.37747602  0.16609971  0.19573739  1
  O  O377  1  0.38567432  0.15946546  0.69109995  1
  O  O378  1  0.37727604  0.66732544  0.19777303  1
  O  O379  1  0.37479290  0.66808336  0.69642037  1
  O  O380  1  0.70905022  0.16365322  0.19289647  1
  O  O381  1  0.70926205  0.16700170  0.69681613  1
  O  O382  1  0.71079789  0.66353672  0.20162786  1
  O  O383  1  0.70399054  0.66795816  0.69605833  1
  O  O384  1  0.12353611  0.08187302  0.30414535  1
  O  O385  1  0.12011574  0.08101051  0.80451010  1
  O  O386  1  0.12485591  0.58770350  0.30992622  1
  O  O387  1  0.12105112  0.58309282  0.79797137  1
  O  O388  1  0.45858986  0.08277755  0.30484012  1
  O  O389  1  0.46145188  0.08403586  0.80440967  1
  O  O390  1  0.45541935  0.58842677  0.31198998  1
  O  O391  1  0.45315589  0.58108342  0.80533941  1
  O  O392  1  0.79146155  0.08192227  0.30438399  1
  O  O393  1  0.78715836  0.08228359  0.79923180  1
  O  O394  1  0.79193908  0.58082303  0.30714367  1
  O  O395  1  0.78842918  0.58261286  0.79824221  1
  O  O396  1  0.29163818  0.32814113  0.30985786  1
  O  O397  1  0.28922561  0.33682264  0.80841614  1
  O  O398  1  0.29382762  0.83679589  0.30716475  1
  O  O399  1  0.28815791  0.83578164  0.79974644  1
  O  O400  1  0.62265037  0.33027484  0.30729499  1
  O  O401  1  0.62357531  0.33450637  0.80186024  1
  O  O402  1  0.63528200  0.83297106  0.30855047  1
  O  O403  1  0.62041268  0.83254140  0.80116352  1
  O  O404  1  0.95276902  0.33167982  0.30608223  1
  O  O405  1  0.95616847  0.33235553  0.80143794  1
  O  O406  1  0.96669500  0.83564736  0.30803676  1
  O  O407  1  0.95524477  0.83471639  0.80165540  1
  O  O408  1  0.12093784  0.41897421  0.30156351  1
  O  O409  1  0.11888901  0.41655016  0.79688769  1
  O  O410  1  0.12383120  0.91725217  0.30695002  1
  O  O411  1  0.12175931  0.91811524  0.80437003  1
  O  O412  1  0.45452368  0.41424855  0.30179264  1
  O  O413  1  0.45557558  0.41525484  0.80460604  1
  O  O414  1  0.45430438  0.92293128  0.30685856  1
  O  O415  1  0.45829697  0.91881457  0.80929727  1
  O  O416  1  0.79093163  0.41789945  0.30432019  1
  O  O417  1  0.78756056  0.41602080  0.80402545  1
  O  O418  1  0.78797657  0.92181509  0.30824146  1
  O  O419  1  0.79043454  0.91584819  0.80659254  1
  O  O420  1  0.29063687  0.16203187  0.30462625  1
  O  O421  1  0.28479860  0.15792415  0.80509605  1
  O  O422  1  0.29119821  0.67056730  0.30803560  1
  O  O423  1  0.29631287  0.66838967  0.80829178  1
  O  O424  1  0.62487712  0.16475234  0.30368953  1
  O  O425  1  0.62275410  0.16628963  0.80502180  1
  O  O426  1  0.62337539  0.66515438  0.30919924  1
  O  O427  1  0.61928278  0.66363890  0.80828257  1
  O  O428  1  0.95658504  0.16435954  0.30380172  1
  O  O429  1  0.95852701  0.16660723  0.80479624  1
  O  O430  1  0.95393524  0.66312601  0.30855505  1
  O  O431  1  0.95549582  0.66852885  0.80673828  1
  F  F432  1  0.04555736  -0.00028653  0.20291486  1
  F  F433  1  0.04624075  -0.00142139  0.69983655  1
  F  F434  1  0.04669553  0.50508864  0.20450801  1
  F  F435  1  0.04028408  0.50265544  0.69514828  1
  F  F436  1  0.37926237  0.00169649  0.20118375  1
  F  F437  1  0.38161452  -0.00924915  0.69835611  1
  F  F438  1  0.37294575  0.50359083  0.20435895  1
  F  F439  1  0.37783975  0.50220716  0.70240950  1
  F  F440  1  0.71340211  0.00020830  0.20279641  1
  F  F441  1  0.70952452  -0.00557215  0.70025996  1
  F  F442  1  0.71290746  0.49932400  0.20203206  1
  F  F443  1  0.70751558  0.50133062  0.70004362  1
  F  F444  1  0.21416387  0.24792461  0.20498059  1
  F  F445  1  0.19841102  0.25572006  0.69068651  1
  F  F446  1  0.21424901  0.75092689  0.20390166  1
  F  F447  1  0.21234539  0.75486363  0.69733122  1
  F  F448  1  0.54564351  0.24773663  0.20336619  1
  F  F449  1  0.54562256  0.24992211  0.70025321  1
  F  F450  1  0.54992584  0.73750697  0.20131440  1
  F  F451  1  0.54160651  0.74730379  0.70277684  1
  F  F452  1  0.87804442  0.24771812  0.20257416  1
  F  F453  1  0.87812247  0.24897079  0.70005312  1
  F  F454  1  0.88099273  0.73869835  0.19777909  1
  F  F455  1  0.87644382  0.75068552  0.70261031  1
  F  F456  1  0.28919797  0.00247939  0.29847483  1
  F  F457  1  0.28606669  -0.00379318  0.80019581  1
  F  F458  1  0.28906745  0.50425420  0.30426870  1
  F  F459  1  0.29007750  0.50128554  0.79944348  1
  F  F460  1  0.62266588  0.00199842  0.29997687  1
  F  F461  1  0.61989870  0.00096905  0.79549556  1
  F  F462  1  0.63009213  0.49869760  0.30177313  1
  F  F463  1  0.61880527  0.49869696  0.79736290  1
  F  F464  1  0.95671662  0.00032462  0.29954076  1
  F  F465  1  0.95490234  -0.00212446  0.79566153  1
  F  F466  1  0.95436786  0.49952954  0.29783199  1
  F  F467  1  0.95430756  0.50377172  0.79464391  1
  F  F468  1  0.12150599  0.24360978  0.30007469  1
  F  F469  1  0.11819284  0.25335407  0.79590488  1
  F  F470  1  0.13151784  0.75418561  0.30282467  1
  F  F471  1  0.11890131  0.75554248  0.79771065  1
  F  F472  1  0.45592348  0.24657195  0.29950194  1
  F  F473  1  0.46700616  0.25072856  0.80058705  1
  F  F474  1  0.45176706  0.74352880  0.30363522  1
  F  F475  1  0.45346551  0.75031785  0.79863064  1
  F  F476  1  0.78904852  0.24487315  0.29872766  1
  F  F477  1  0.78756042  0.25221316  0.79476582  1
  F  F478  1  0.78512715  0.74051206  0.30638956  1
  F  F479  1  0.78592848  0.75011543  0.79707094  1
