# generated using pymatgen
data_K24Na3Li5Mg64Fe17Si79(O5F)48
_symmetry_space_group_name_H-M   'P 1'
_cell_length_a   16.08115812
_cell_length_b   18.57268190
_cell_length_c   20.54507964
_cell_angle_alpha   90.01063169
_cell_angle_beta   100.00512212
_cell_angle_gamma   89.96772696
_symmetry_Int_Tables_number   1
_chemical_formula_structural   K24Na3Li5Mg64Fe17Si79(O5F)48
_chemical_formula_sum   'K24 Na3 Li5 Mg64 Fe17 Si79 O240 F48'
_cell_volume   6042.88476450
_cell_formula_units_Z   1
loop_
 _symmetry_equiv_pos_site_id
 _symmetry_equiv_pos_as_xyz
  1  'x, y, z'
loop_
 _atom_site_type_symbol
 _atom_site_label
 _atom_site_symmetry_multiplicity
 _atom_site_fract_x
 _atom_site_fract_y
 _atom_site_fract_z
 _atom_site_occupancy
  K  K0  1  -0.00606786  -0.00801808  0.00379088  1
  K  K1  1  0.00564285  0.01125024  0.49616123  1
  K  K2  1  0.00753103  0.49872591  -0.00102564  1
  K  K3  1  -0.00440822  0.50849637  0.50043553  1
  K  K4  1  0.33427439  -0.00056422  0.00216791  1
  K  K5  1  0.32045022  -0.00632046  0.49555062  1
  K  K6  1  0.33461148  0.50169282  0.00490958  1
  K  K7  1  0.33183616  0.50188210  0.49681957  1
  K  K8  1  0.67660060  -0.00184525  0.00552386  1
  K  K9  1  0.66263633  -0.00231091  0.49794987  1
  K  K10  1  0.65635534  0.49772118  0.00347378  1
  K  K11  1  0.66431121  0.49671062  0.49071017  1
  K  K12  1  0.16215985  0.25655949  -0.00229217  1
  K  K13  1  0.16433991  0.24419009  0.49903357  1
  K  K14  1  0.17202487  0.75106941  0.00383733  1
  K  K15  1  0.17567733  0.74694857  0.49421191  1
  K  K16  1  0.51093885  0.24941316  0.00519459  1
  K  K17  1  0.50582091  0.25420649  0.49715493  1
  K  K18  1  0.50214629  0.74783549  0.00284535  1
  K  K19  1  0.48645570  0.74249028  0.49111119  1
  K  K20  1  0.82521489  0.24638812  0.00091482  1
  K  K21  1  0.82701642  0.24537366  0.49753570  1
  K  K22  1  0.83128083  0.75787836  0.01419938  1
  K  K23  1  0.83391144  0.74525017  0.49024745  1
  Na  Na24  1  0.16680176  -0.00065422  0.25228338  1
  Na  Na25  1  0.83585656  0.67275713  0.24558644  1
  Na  Na26  1  0.34337180  0.42259834  0.24802380  1
  Li  Li27  1  0.50044547  0.49726562  0.25641630  1
  Li  Li28  1  -0.00080446  0.75197865  0.25153364  1
  Li  Li29  1  0.49948944  0.83328931  0.75297586  1
  Li  Li30  1  0.66848434  0.08155338  0.75412254  1
  Li  Li31  1  0.49781535  0.34024809  0.25113885  1
  Mg  Mg32  1  0.33446258  0.24785758  0.74832542  1
  Mg  Mg33  1  0.33583554  0.74961783  0.75191797  1
  Mg  Mg34  1  0.83266134  0.00071351  0.24888504  1
  Mg  Mg35  1  0.50299914  -0.00179152  0.75169455  1
  Mg  Mg36  1  -0.00087143  0.25149730  0.24844282  1
  Mg  Mg37  1  0.16668391  0.00158576  0.74592953  1
  Mg  Mg38  1  0.66743334  0.74980269  0.24814471  1
  Mg  Mg39  1  0.66306568  0.25037906  0.24763784  1
  Mg  Mg40  1  0.83509565  0.49948079  0.74982939  1
  Mg  Mg41  1  0.83229546  0.50459143  0.24963248  1
  Mg  Mg42  1  0.16977070  0.50091303  0.25017792  1
  Mg  Mg43  1  0.49991029  0.00141291  0.24787868  1
  Mg  Mg44  1  0.82832754  -0.00091910  0.75413649  1
  Mg  Mg45  1  0.16678314  0.49907611  0.74767705  1
  Mg  Mg46  1  0.66227338  0.75170765  0.75436913  1
  Mg  Mg47  1  0.33005875  0.75008092  0.25223666  1
  Mg  Mg48  1  -0.00029479  0.75062469  0.75078776  1
  Mg  Mg49  1  0.00145133  0.24988112  0.74820072  1
  Mg  Mg50  1  0.33731777  0.25214795  0.24832935  1
  Mg  Mg51  1  0.50102017  0.49825534  0.75452765  1
  Mg  Mg52  1  0.66845339  0.24776012  0.75299141  1
  Mg  Mg53  1  0.16400113  0.16470884  0.74480878  1
  Mg  Mg54  1  -0.00214723  0.08495045  0.74798579  1
  Mg  Mg55  1  0.16343153  0.33391980  0.74635400  1
  Mg  Mg56  1  0.50494427  0.16335771  0.75118233  1
  Mg  Mg57  1  0.49811719  0.66309719  0.25134070  1
  Mg  Mg58  1  0.83556686  0.33496871  0.75061994  1
  Mg  Mg59  1  0.49906327  0.66666334  0.75313946  1
  Mg  Mg60  1  0.83496580  0.83193807  0.24875071  1
  Mg  Mg61  1  0.66810994  0.91535105  0.24769805  1
  Mg  Mg62  1  0.33255758  0.41397180  0.74993860  1
  Mg  Mg63  1  0.33266371  0.91589239  0.25194124  1
  Mg  Mg64  1  0.83213791  0.16404816  0.75272460  1
  Mg  Mg65  1  0.83240608  0.66727175  0.75110902  1
  Mg  Mg66  1  0.83043412  0.83480681  0.75515175  1
  Mg  Mg67  1  0.16717052  0.83486531  0.75061580  1
  Mg  Mg68  1  -0.00250458  0.91664684  0.75223861  1
  Mg  Mg69  1  0.17154836  0.33459177  0.24798847  1
  Mg  Mg70  1  0.00051706  0.41501100  0.74749473  1
  Mg  Mg71  1  0.33532393  0.91489018  0.74949491  1
  Mg  Mg72  1  0.00113439  0.58470485  0.74940624  1
  Mg  Mg73  1  0.50403983  0.33178277  0.75306615  1
  Mg  Mg74  1  0.66460893  0.91725970  0.75618868  1
  Mg  Mg75  1  0.66407361  0.58438561  0.24989109  1
  Mg  Mg76  1  0.66805327  0.08646805  0.24721026  1
  Mg  Mg77  1  0.33408792  0.08390492  0.24846755  1
  Mg  Mg78  1  0.49922921  0.83399786  0.24919257  1
  Mg  Mg79  1  0.00163554  0.41789717  0.24794702  1
  Mg  Mg80  1  0.00079352  0.91469253  0.25049838  1
  Mg  Mg81  1  0.00127562  0.58620709  0.24961026  1
  Mg  Mg82  1  0.65934625  0.41780968  0.25021269  1
  Mg  Mg83  1  0.66907407  0.41363345  0.75239202  1
  Mg  Mg84  1  0.33252487  0.08276118  0.74596975  1
  Mg  Mg85  1  -0.00145846  0.08440726  0.24759093  1
  Mg  Mg86  1  0.82992508  0.16649635  0.24896942  1
  Mg  Mg87  1  0.33484699  0.58362184  0.24956603  1
  Mg  Mg88  1  0.16729394  0.16674879  0.24746411  1
  Mg  Mg89  1  0.16929838  0.66500995  0.75030447  1
  Mg  Mg90  1  0.50228823  0.17003603  0.24687306  1
  Mg  Mg91  1  0.83050866  0.33683913  0.24664260  1
  Mg  Mg92  1  0.33095213  0.58431043  0.75076797  1
  Mg  Mg93  1  0.66736443  0.58363977  0.75302663  1
  Mg  Mg94  1  0.16511791  0.66707721  0.25252395  1
  Mg  Mg95  1  0.16716273  0.83319764  0.25350104  1
  Fe  Fe96  1  0.14257870  0.41661100  0.88884630  1
  Fe  Fe97  1  0.80786656  0.91154560  0.89610417  1
  Fe  Fe98  1  0.01692153  0.16405181  0.60578853  1
  Fe  Fe99  1  0.19636297  0.08181346  0.60505187  1
  Fe  Fe100  1  0.80944784  0.07807742  0.39050205  1
  Fe  Fe101  1  0.30914618  0.67253270  0.89208362  1
  Fe  Fe102  1  0.63962825  0.16467766  0.38980592  1
  Fe  Fe103  1  0.68979811  0.16705236  0.10541653  1
  Fe  Fe104  1  0.85536448  0.42219818  0.60836806  1
  Fe  Fe105  1  0.30537951  0.84014452  0.39325134  1
  Fe  Fe106  1  0.02284033  0.33449676  0.60560854  1
  Fe  Fe107  1  0.64416896  0.33373174  0.89259989  1
  Fe  Fe108  1  0.30582870  0.66457082  0.39123826  1
  Fe  Fe109  1  0.69144802  0.83294589  0.10730219  1
  Fe  Fe110  1  0.97884373  0.66583979  0.38784886  1
  Fe  Fe111  1  0.19000917  0.58290402  0.60785182  1
  Fe  Fe112  1  0.47581376  0.57512371  0.39151588  1
  Si  Si113  1  0.63391396  0.82932717  0.88998469  1
  Si  Si114  1  0.19414186  0.91594276  0.11351975  1
  Si  Si115  1  0.48145119  0.40875713  0.38950114  1
  Si  Si116  1  0.98042134  0.82948796  0.88982315  1
  Si  Si117  1  0.52091064  0.41858954  0.11566750  1
  Si  Si118  1  0.30943447  0.84219307  0.88878104  1
  Si  Si119  1  0.97636003  0.33966127  0.38220025  1
  Si  Si120  1  0.02729896  0.66618863  0.11288404  1
  Si  Si121  1  0.19069898  0.58318188  0.11279764  1
  Si  Si122  1  0.47795017  0.08160938  0.88529604  1
  Si  Si123  1  0.52338857  0.91939178  0.61756557  1
  Si  Si124  1  0.13828083  0.57560795  0.38663091  1
  Si  Si125  1  0.80877827  0.42263759  0.88938267  1
  Si  Si126  1  0.64486769  0.16372934  0.88811180  1
  Si  Si127  1  0.14034387  0.58663729  0.88920687  1
  Si  Si128  1  0.30664642  0.32683506  0.88556642  1
  Si  Si129  1  0.52213008  0.58309555  0.11431737  1
  Si  Si130  1  0.01789026  0.83533534  0.61644103  1
  Si  Si131  1  0.97407150  0.16909365  0.88728946  1
  Si  Si132  1  0.31151962  0.32582558  0.38467058  1
  Si  Si133  1  0.97236423  0.17441387  0.38439078  1
  Si  Si134  1  0.02605357  0.33412766  0.11163827  1
  Si  Si135  1  0.36636286  0.33387867  0.61553849  1
  Si  Si136  1  0.64887133  0.33231545  0.38619687  1
  Si  Si137  1  0.36756655  0.66513556  0.61434088  1
  Si  Si138  1  0.19117396  0.41769750  0.11267664  1
  Si  Si139  1  0.01985097  0.67074771  0.61372040  1
  Si  Si140  1  0.35698539  0.66665288  0.11430958  1
  Si  Si141  1  0.53089531  0.08265362  0.61769760  1
  Si  Si142  1  0.35729525  0.33253161  0.11217620  1
  Si  Si143  1  0.68508613  0.83325529  0.61790106  1
  Si  Si144  1  0.68893261  0.34095432  0.11077391  1
  Si  Si145  1  0.18956856  0.90856667  0.61193173  1
  Si  Si146  1  0.68800814  0.66041282  0.10999447  1
  Si  Si147  1  0.14059975  0.08637704  0.88535112  1
  Si  Si148  1  0.81248160  0.91141051  0.38616954  1
  Si  Si149  1  0.35632014  0.83166538  0.11318242  1
  Si  Si150  1  0.85168995  0.59083971  0.61427437  1
  Si  Si151  1  0.85302930  0.07647574  0.61559259  1
  Si  Si152  1  0.53247542  0.58125060  0.61846632  1
  Si  Si153  1  0.14036868  0.92088243  0.88588380  1
  Si  Si154  1  0.03172124  0.83272980  0.11597463  1
  Si  Si155  1  0.97512405  0.83323658  0.38625451  1
  Si  Si156  1  0.13436057  0.08984796  0.38207223  1
  Si  Si157  1  0.69036651  0.67127824  0.61854447  1
  Si  Si158  1  0.80394450  0.58563797  0.38517986  1
  Si  Si159  1  0.47063999  0.08599754  0.38345427  1
  Si  Si160  1  0.13061135  0.92143392  0.38854167  1
  Si  Si161  1  0.31201902  0.16249524  0.88398700  1
  Si  Si162  1  0.19465083  0.08398295  0.11211869  1
  Si  Si163  1  0.81135142  0.58734475  0.88662121  1
  Si  Si164  1  0.97605034  0.66601803  0.88528263  1
  Si  Si165  1  0.14804896  0.41252078  0.38344322  1
  Si  Si166  1  0.51858026  0.91693811  0.11026023  1
  Si  Si167  1  0.81299440  0.08191685  0.89015885  1
  Si  Si168  1  0.63928338  0.66918080  0.38663844  1
  Si  Si169  1  0.86017498  0.41846272  0.11137878  1
  Si  Si170  1  0.51775466  0.08180200  0.10912633  1
  Si  Si171  1  0.64254171  0.83517539  0.38391417  1
  Si  Si172  1  0.19707425  0.41003843  0.60943210  1
  Si  Si173  1  0.69322463  0.32834636  0.61417686  1
  Si  Si174  1  0.97058541  0.33469852  0.88930330  1
  Si  Si175  1  0.86183797  0.58164614  0.11196309  1
  Si  Si176  1  0.02982932  0.16824094  0.11170817  1
  Si  Si177  1  0.36899048  0.16735275  0.61165110  1
  Si  Si178  1  0.86670997  0.91769203  0.11391311  1
  Si  Si179  1  0.69387239  0.16421653  0.61943131  1
  Si  Si180  1  0.35577484  0.16887973  0.11007182  1
  Si  Si181  1  0.64089715  0.66247520  0.88839274  1
  Si  Si182  1  0.47353473  0.91902528  0.88473944  1
  Si  Si183  1  0.30477227  0.16215072  0.38285018  1
  Si  Si184  1  0.47554409  0.57867676  0.88942849  1
  Si  Si185  1  0.47916191  0.92125694  0.38604888  1
  Si  Si186  1  0.80874394  0.42098935  0.38297549  1
  Si  Si187  1  0.53104622  0.41624093  0.61732971  1
  Si  Si188  1  0.86535990  0.08437073  0.11017675  1
  Si  Si189  1  0.46954982  0.41208127  0.88834788  1
  Si  Si190  1  0.36098745  0.83082505  0.61780341  1
  Si  Si191  1  0.85084869  0.91378377  0.61799417  1
  O  O192  1  0.26925943  0.12294498  0.07846547  1
  O  O193  1  0.29379854  0.11760370  0.57448960  1
  O  O194  1  0.26834381  0.62370874  0.08371422  1
  O  O195  1  0.28620636  0.62131033  0.57872664  1
  O  O196  1  0.59202935  0.11178475  0.07274872  1
  O  O197  1  0.61557594  0.10969446  0.59029810  1
  O  O198  1  0.60028518  0.61464689  0.07910734  1
  O  O199  1  0.61509828  0.61372945  0.59062096  1
  O  O200  1  0.94326863  0.12606279  0.08097224  1
  O  O201  1  0.93234913  0.09232713  0.58043294  1
  O  O202  1  0.93440220  0.62904203  0.08177962  1
  O  O203  1  0.93526561  0.62150842  0.58687579  1
  O  O204  1  0.10074478  0.37643193  0.08090040  1
  O  O205  1  0.13028288  0.34804302  0.58072413  1
  O  O206  1  0.10630727  0.87327536  0.08165817  1
  O  O207  1  0.10116456  0.86205770  0.58735253  1
  O  O208  1  0.43456208  0.37274777  0.08228180  1
  O  O209  1  0.44754951  0.36846229  0.58755254  1
  O  O210  1  0.43308350  0.86828868  0.08179751  1
  O  O211  1  0.43515024  0.87624481  0.58886911  1
  O  O212  1  0.76698810  0.38443674  0.08280282  1
  O  O213  1  0.76790158  0.35494784  0.57736464  1
  O  O214  1  0.78050113  0.88102750  0.07648346  1
  O  O215  1  0.77022584  0.86022874  0.58973113  1
  O  O216  1  0.26767898  0.37657252  0.08287084  1
  O  O217  1  0.28742122  0.38535395  0.58526257  1
  O  O218  1  0.27020591  0.87728394  0.08069467  1
  O  O219  1  0.26760467  0.86415367  0.58677410  1
  O  O220  1  0.60113728  0.38660734  0.08293298  1
  O  O221  1  0.60869027  0.37906612  0.58789756  1
  O  O222  1  0.59286001  0.88711012  0.07388300  1
  O  O223  1  0.60335594  0.88355179  0.58707666  1
  O  O224  1  0.93395099  0.37146516  0.08224689  1
  O  O225  1  0.95090600  0.40902838  0.57264731  1
  O  O226  1  0.94446581  0.87568054  0.08534838  1
  O  O227  1  0.93492307  0.88651513  0.58856673  1
  O  O228  1  0.10641243  0.12736540  0.08199360  1
  O  O229  1  0.10812590  0.13788286  0.56611415  1
  O  O230  1  0.10116132  0.62392774  0.07912242  1
  O  O231  1  0.09632152  0.64468548  0.57843867  1
  O  O232  1  0.43202777  0.13001563  0.07968146  1
  O  O233  1  0.45632416  0.13986640  0.58663304  1
  O  O234  1  0.43523496  0.62960010  0.08373937  1
  O  O235  1  0.45191871  0.63132500  0.58881048  1
  O  O236  1  0.77973958  0.12160674  0.07238170  1
  O  O237  1  0.77494059  0.13310057  0.58923258  1
  O  O238  1  0.76769239  0.61590737  0.08451961  1
  O  O239  1  0.77701411  0.65243683  0.59077982  1
  O  O240  1  0.05937715  0.12913110  0.41347475  1
  O  O241  1  0.06419105  0.12623462  0.91614697  1
  O  O242  1  0.05287672  0.58896129  0.41646457  1
  O  O243  1  0.04883954  0.60769333  0.91380892  1
  O  O244  1  0.38029028  0.10461781  0.40941179  1
  O  O245  1  0.39398115  0.11147527  0.91420936  1
  O  O246  1  0.39115730  0.60682497  0.43445273  1
  O  O247  1  0.40390028  0.61418590  0.92532190  1
  O  O248  1  0.71722490  0.09785847  0.42979079  1
  O  O249  1  0.72696675  0.11164126  0.91520708  1
  O  O250  1  0.72120491  0.61725494  0.41440123  1
  O  O251  1  0.73007870  0.61936948  0.91645417  1
  O  O252  1  0.22914718  0.36024061  0.41336577  1
  O  O253  1  0.22750334  0.34819462  0.92008702  1
  O  O254  1  0.21299053  0.88059279  0.42809214  1
  O  O255  1  0.22837866  0.87975841  0.91654061  1
  O  O256  1  0.56611979  0.35843136  0.41818325  1
  O  O257  1  0.54571556  0.36172719  0.92391870  1
  O  O258  1  0.56428062  0.87188214  0.41458093  1
  O  O259  1  0.54757756  0.86107884  0.91429424  1
  O  O260  1  0.89643466  0.37528526  0.41064133  1
  O  O261  1  0.88697934  0.36690686  0.91702955  1
  O  O262  1  0.88529046  0.85064605  0.41296734  1
  O  O263  1  0.90512215  0.85412978  0.92710412  1
  O  O264  1  0.06318144  0.38456434  0.41114193  1
  O  O265  1  0.04941539  0.38232494  0.92512206  1
  O  O266  1  0.04383046  0.89734628  0.41598458  1
  O  O267  1  0.06450747  0.88062578  0.91607995  1
  O  O268  1  0.39857433  0.36828363  0.41592410  1
  O  O269  1  0.38382159  0.38314636  0.91389429  1
  O  O270  1  0.40369218  0.89669786  0.42317406  1
  O  O271  1  0.38800661  0.89834206  0.91461528  1
  O  O272  1  0.72922269  0.38813767  0.41339983  1
  O  O273  1  0.72967479  0.40170701  0.92432122  1
  O  O274  1  0.72639914  0.88305934  0.41339701  1
  O  O275  1  0.71386337  0.87393269  0.92843592  1
  O  O276  1  0.22204491  0.13322002  0.41206209  1
  O  O277  1  0.23006652  0.12925510  0.91372555  1
  O  O278  1  0.20872751  0.63174628  0.42137185  1
  O  O279  1  0.20770197  0.64797741  0.92061387  1
  O  O280  1  0.53667410  0.14431759  0.41984086  1
  O  O281  1  0.56036625  0.13052706  0.91501545  1
  O  O282  1  0.56446341  0.64167555  0.42328471  1
  O  O283  1  0.56742616  0.61833829  0.91754816  1
  O  O284  1  0.89741380  0.14522306  0.41931912  1
  O  O285  1  0.89567813  0.13495854  0.91885776  1
  O  O286  1  0.88082617  0.63573942  0.42001272  1
  O  O287  1  0.89037548  0.64199646  0.91391999  1
  O  O288  1  0.18517666  0.00006621  0.08431647  1
  O  O289  1  0.17951300  -0.01514350  0.57463452  1
  O  O290  1  0.18353927  0.50026635  0.08207837  1
  O  O291  1  0.17146284  0.48818910  0.57622830  1
  O  O292  1  0.49169513  -0.00087610  0.08314462  1
  O  O293  1  0.51004420  0.00134055  0.58625286  1
  O  O294  1  0.50482578  0.50082451  0.08418504  1
  O  O295  1  0.51830460  0.49903974  0.58912186  1
  O  O296  1  0.87060032  0.00068378  0.08489209  1
  O  O297  1  0.81997586  -0.00606552  0.59146232  1
  O  O298  1  0.86304966  0.49963979  0.07916422  1
  O  O299  1  0.81658195  0.51669614  0.58012638  1
  O  O300  1  0.02407005  0.25124646  0.08195488  1
  O  O301  1  -0.02662022  0.25003085  0.57053665  1
  O  O302  1  0.02405539  0.75000693  0.08476118  1
  O  O303  1  -0.00835604  0.75409891  0.58976741  1
  O  O304  1  0.34360428  0.25059926  0.07807524  1
  O  O305  1  0.35438712  0.25188379  0.58567478  1
  O  O306  1  0.34350299  0.74922685  0.08322271  1
  O  O307  1  0.36414829  0.74930413  0.58841291  1
  O  O308  1  0.67988100  0.26348157  0.07440940  1
  O  O309  1  0.66739374  0.24488958  0.58922653  1
  O  O310  1  0.68138035  0.73773804  0.07245453  1
  O  O311  1  0.66153932  0.75157422  0.58931155  1
  O  O312  1  0.14357075  0.00785415  0.41060463  1
  O  O313  1  0.14872375  0.00372928  0.91605116  1
  O  O314  1  0.17234691  0.49288790  0.41135642  1
  O  O315  1  0.16961426  0.50950427  0.92297424  1
  O  O316  1  0.50304125  0.00503522  0.41010540  1
  O  O317  1  0.49864327  0.00013478  0.91520360  1
  O  O318  1  0.49816042  0.48336279  0.43123747  1
  O  O319  1  0.48841972  0.49490105  0.91589889  1
  O  O320  1  0.84467196  -0.01444687  0.42314166  1
  O  O321  1  0.83573423  0.00544958  0.92694027  1
  O  O322  1  0.82237763  0.50214950  0.41428654  1
  O  O323  1  0.83763851  0.50623582  0.91472172  1
  O  O324  1  0.32509601  0.24280733  0.41511430  1
  O  O325  1  0.33473483  0.24391529  0.91254737  1
  O  O326  1  0.32743612  0.75270439  0.43386423  1
  O  O327  1  0.33211221  0.76679020  0.92623376  1
  O  O328  1  0.67687683  0.25623612  0.42151529  1
  O  O329  1  0.66750558  0.24009751  0.92500539  1
  O  O330  1  0.66137180  0.75331973  0.41336148  1
  O  O331  1  0.64375932  0.74450316  0.91735089  1
  O  O332  1  0.99373637  0.25789098  0.41015500  1
  O  O333  1  0.98596218  0.25091672  0.91774669  1
  O  O334  1  1.01091248  0.75884089  0.42182766  1
  O  O335  1  1.00733609  0.74599988  0.91389409  1
  O  O336  1  0.21456304  0.08989049  0.19112978  1
  O  O337  1  0.21197647  0.08239480  0.69818458  1
  O  O338  1  0.20494860  0.58361044  0.19224345  1
  O  O339  1  0.21021115  0.58233081  0.70013429  1
  O  O340  1  0.53844173  0.08286071  0.18971377  1
  O  O341  1  0.54157592  0.08115449  0.69725900  1
  O  O342  1  0.54461489  0.58834358  0.19315585  1
  O  O343  1  0.54661428  0.58109554  0.69912486  1
  O  O344  1  0.87908862  0.08796557  0.19073421  1
  O  O345  1  0.87387790  0.07984606  0.69685928  1
  O  O346  1  0.88242564  0.57563685  0.19080044  1
  O  O347  1  0.87370815  0.58730125  0.69569663  1
  O  O348  1  0.04326490  0.33376606  0.19181457  1
  O  O349  1  0.04260239  0.33155574  0.69917936  1
  O  O350  1  0.05056890  0.83723326  0.19489688  1
  O  O351  1  0.03969669  0.83579052  0.69741840  1
  O  O352  1  0.37511764  0.32622193  0.19022466  1
  O  O353  1  0.38148657  0.33225007  0.69638435  1
  O  O354  1  0.37614334  0.83390071  0.19316774  1
  O  O355  1  0.37446925  0.83209226  0.69765637  1
  O  O356  1  0.70932158  0.33803265  0.19136325  1
  O  O357  1  0.71264036  0.33241968  0.69529422  1
  O  O358  1  0.70934678  0.83391652  0.19828706  1
  O  O359  1  0.70554659  0.83229217  0.69811229  1
  O  O360  1  0.20161442  0.41679198  0.19162548  1
  O  O361  1  0.21481051  0.41382984  0.69145599  1
  O  O362  1  0.21466560  0.91249771  0.19223907  1
  O  O363  1  0.20810209  0.91428669  0.69338300  1
  O  O364  1  0.54266467  0.41703508  0.19418410  1
  O  O365  1  0.54525234  0.41718176  0.69779701  1
  O  O366  1  0.53951871  0.91612145  0.19122884  1
  O  O367  1  0.54513347  0.91849700  0.69702758  1
  O  O368  1  0.87843790  0.41728706  0.19159894  1
  O  O369  1  0.87696026  0.41784760  0.70165164  1
  O  O370  1  0.87824019  0.91923379  0.19424691  1
  O  O371  1  0.87461451  0.91323733  0.69844373  1
  O  O372  1  0.04472445  0.16935317  0.19178689  1
  O  O373  1  0.04269367  0.16490179  0.69961095  1
  O  O374  1  0.04814185  0.66111319  0.19158753  1
  O  O375  1  0.04121104  0.66908431  0.69522088  1
  O  O376  1  0.37376104  0.16652562  0.19019387  1
  O  O377  1  0.38040866  0.16583344  0.69292380  1
  O  O378  1  0.37583283  0.67107295  0.19365371  1
  O  O379  1  0.38092556  0.66417530  0.69532215  1
  O  O380  1  0.71172095  0.16913452  0.19604737  1
  O  O381  1  0.71286921  0.16739216  0.69920696  1
  O  O382  1  0.69892287  0.66537082  0.18948128  1
  O  O383  1  0.70846372  0.66873936  0.69922363  1
  O  O384  1  0.11630044  0.09425663  0.30260812  1
  O  O385  1  0.12260191  0.08246393  0.80560875  1
  O  O386  1  0.12306367  0.57892890  0.30513382  1
  O  O387  1  0.12171838  0.58590627  0.80766704  1
  O  O388  1  0.45595150  0.08531908  0.30215337  1
  O  O389  1  0.45641412  0.08272747  0.80489437  1
  O  O390  1  0.45352092  0.58421776  0.30107339  1
  O  O391  1  0.45783284  0.58147528  0.80830533  1
  O  O392  1  0.78980959  0.08231305  0.29780181  1
  O  O393  1  0.79841899  0.08209203  0.81007373  1
  O  O394  1  0.78521693  0.58050323  0.30527306  1
  O  O395  1  0.79066515  0.58568366  0.80604398  1
  O  O396  1  0.28818458  0.32500721  0.30527722  1
  O  O397  1  0.29072917  0.32929468  0.80446807  1
  O  O398  1  0.28930285  0.83510967  0.30083264  1
  O  O399  1  0.28907370  0.83677980  0.80789148  1
  O  O400  1  0.63240126  0.33241667  0.30598740  1
  O  O401  1  0.62421788  0.33274177  0.80070111  1
  O  O402  1  0.62059928  0.83551207  0.30360903  1
  O  O403  1  0.62483090  0.83114127  0.81007029  1
  O  O404  1  0.95738745  0.33732953  0.30129705  1
  O  O405  1  0.95609460  0.33294833  0.80882880  1
  O  O406  1  0.95504628  0.83680952  0.30591153  1
  O  O407  1  0.95834248  0.83290788  0.80883377  1
  O  O408  1  0.12614658  0.41288841  0.30278287  1
  O  O409  1  0.12328948  0.41786473  0.79744514  1
  O  O410  1  0.11761526  0.91139402  0.30914551  1
  O  O411  1  0.12279575  0.91890480  0.80541899  1
  O  O412  1  0.46748925  0.41557527  0.31142266  1
  O  O413  1  0.45641365  0.41326880  0.80706648  1
  O  O414  1  0.45933671  0.91749549  0.30471837  1
  O  O415  1  0.45398484  0.92004019  0.80519949  1
  O  O416  1  0.79149419  0.41884523  0.30235638  1
  O  O417  1  0.78970177  0.41977510  0.80847729  1
  O  O418  1  0.79140161  0.91776650  0.30530150  1
  O  O419  1  0.78799864  0.91441182  0.80452049  1
  O  O420  1  0.28814240  0.16582251  0.30235329  1
  O  O421  1  0.29268470  0.16364995  0.80382676  1
  O  O422  1  0.28757394  0.66671797  0.29864609  1
  O  O423  1  0.29040198  0.66867312  0.80058487  1
  O  O424  1  0.62091469  0.16531182  0.29755952  1
  O  O425  1  0.62330435  0.16822501  0.80807239  1
  O  O426  1  0.62169728  0.66895965  0.30567113  1
  O  O427  1  0.62385043  0.66369933  0.80794285  1
  O  O428  1  0.95533251  0.17094303  0.30301008  1
  O  O429  1  0.95660767  0.16615977  0.80720638  1
  O  O430  1  0.96642186  0.66710679  0.29979749  1
  O  O431  1  0.95575319  0.66774346  0.80459812  1
  F  F432  1  0.03459349  0.00132316  0.19744741  1
  F  F433  1  0.04340429  -0.00198122  0.70298254  1
  F  F434  1  0.04669428  0.49844760  0.20042702  1
  F  F435  1  0.04362118  0.50437354  0.70102807  1
  F  F436  1  0.37825892  -0.00035365  0.19933510  1
  F  F437  1  0.37931026  -0.00127437  0.70116308  1
  F  F438  1  0.36632925  0.51485609  0.18522978  1
  F  F439  1  0.38203039  0.49866004  0.70492235  1
  F  F440  1  0.71084804  -0.00128494  0.19778429  1
  F  F441  1  0.71049655  -0.00352395  0.70479179  1
  F  F442  1  0.71180975  0.50048816  0.19970134  1
  F  F443  1  0.71118720  0.50085447  0.70517509  1
  F  F444  1  0.21107499  0.25001109  0.19812381  1
  F  F445  1  0.21504059  0.24825683  0.70175496  1
  F  F446  1  0.20945521  0.75057037  0.19797128  1
  F  F447  1  0.21132150  0.75316573  0.70270640  1
  F  F448  1  0.54608086  0.24725910  0.19444261  1
  F  F449  1  0.54567521  0.24797133  0.70217982  1
  F  F450  1  0.54292568  0.75077038  0.20183971  1
  F  F451  1  0.54698179  0.74436097  0.70390074  1
  F  F452  1  0.87971229  0.25329500  0.19884404  1
  F  F453  1  0.87772022  0.24814809  0.70600415  1
  F  F454  1  0.87788272  0.76428490  0.18906549  1
  F  F455  1  0.87660716  0.75259192  0.70551049  1
  F  F456  1  0.30071882  0.00203926  0.30011364  1
  F  F457  1  0.28774379  -0.00191325  0.79722487  1
  F  F458  1  0.28359735  0.50743038  0.29997766  1
  F  F459  1  0.29007188  0.49673637  0.79848883  1
  F  F460  1  0.62045057  -0.00031400  0.29231348  1
  F  F461  1  0.61809286  -0.00400761  0.80499908  1
  F  F462  1  0.62687713  0.50191799  0.29900885  1
  F  F463  1  0.62304188  0.49957377  0.80152370  1
  F  F464  1  0.95418789  0.00323713  0.29658734  1
  F  F465  1  0.95563657  -0.00023357  0.79952301  1
  F  F466  1  0.95467588  0.49780537  0.29573468  1
  F  F467  1  0.95560946  0.50400486  0.79879935  1
  F  F468  1  0.12075511  0.25202900  0.29415138  1
  F  F469  1  0.12544709  0.24741310  0.79930291  1
  F  F470  1  0.12778089  0.74979160  0.29925331  1
  F  F471  1  0.12058850  0.75226238  0.79739951  1
  F  F472  1  0.45217739  0.24432321  0.29721049  1
  F  F473  1  0.45516570  0.24703717  0.79792075  1
  F  F474  1  0.45423525  0.75204497  0.29734168  1
  F  F475  1  0.45359997  0.74500440  0.80234117  1
  F  F476  1  0.79055452  0.25445345  0.29483430  1
  F  F477  1  0.79016568  0.25080965  0.80103819  1
  F  F478  1  0.78235168  0.75803890  0.30109011  1
  F  F479  1  0.78688754  0.74892584  0.80120860  1
