# generated using pymatgen
data_K24Na3Li5Mg64Fe17Si79(O5F)48
_symmetry_space_group_name_H-M   'P 1'
_cell_length_a   16.09786687
_cell_length_b   18.59968381
_cell_length_c   20.56204150
_cell_angle_alpha   90.00050897
_cell_angle_beta   100.01791619
_cell_angle_gamma   90.00759605
_symmetry_Int_Tables_number   1
_chemical_formula_structural   K24Na3Li5Mg64Fe17Si79(O5F)48
_chemical_formula_sum   'K24 Na3 Li5 Mg64 Fe17 Si79 O240 F48'
_cell_volume   6062.72139863
_cell_formula_units_Z   1
loop_
 _symmetry_equiv_pos_site_id
 _symmetry_equiv_pos_as_xyz
  1  'x, y, z'
loop_
 _atom_site_type_symbol
 _atom_site_label
 _atom_site_symmetry_multiplicity
 _atom_site_fract_x
 _atom_site_fract_y
 _atom_site_fract_z
 _atom_site_occupancy
  K  K0  1  -0.00576311  0.00302550  0.00274846  1
  K  K1  1  -0.00529786  0.00912830  0.49707273  1
  K  K2  1  -0.00173826  0.49136122  -0.00535523  1
  K  K3  1  -0.00729922  0.49217655  0.50629335  1
  K  K4  1  0.33682735  0.00668017  0.00105468  1
  K  K5  1  0.33920493  0.01339910  0.50423398  1
  K  K6  1  0.32831716  0.50178086  -0.00615878  1
  K  K7  1  0.34396523  0.48873286  0.50948846  1
  K  K8  1  0.66572241  0.00499276  0.00161564  1
  K  K9  1  0.66842816  0.01070253  0.49903115  1
  K  K10  1  0.67224821  0.49214931  -0.00682498  1
  K  K11  1  0.67106989  0.49628721  0.51029478  1
  K  K12  1  0.17413107  0.25463753  -0.00643401  1
  K  K13  1  0.16858524  0.25762595  0.50510478  1
  K  K14  1  0.17439570  0.73855329  -0.00343166  1
  K  K15  1  0.17290546  0.75449507  0.50333244  1
  K  K16  1  0.49598184  0.25683333  -0.00138191  1
  K  K17  1  0.51290156  0.25324073  0.50765526  1
  K  K18  1  0.49082022  0.74152620  -0.00561191  1
  K  K19  1  0.50819397  0.74659509  0.50447765  1
  K  K20  1  0.83091732  0.25481963  -0.00120180  1
  K  K21  1  0.82132786  0.24554648  0.49356436  1
  K  K22  1  0.82831815  0.74656024  -0.00241961  1
  K  K23  1  0.83897717  0.73952627  0.50546398  1
  Na  Na24  1  0.33180514  0.74851747  0.75134378  1
  Na  Na25  1  0.16886312  0.16924903  0.75467851  1
  Na  Na26  1  0.66692346  0.41480925  0.74787789  1
  Li  Li27  1  0.67355633  0.25177367  0.74927092  1
  Li  Li28  1  0.49851675  0.49967437  0.24803641  1
  Li  Li29  1  -0.00729946  0.91926095  0.24569175  1
  Li  Li30  1  0.83285207  0.16459587  0.25549353  1
  Li  Li31  1  0.82651567  0.17438689  0.75030593  1
  Mg  Mg32  1  0.33311694  0.25057575  0.24435330  1
  Mg  Mg33  1  0.83281654  0.49927882  0.74896245  1
  Mg  Mg34  1  0.50128170  0.00161775  0.74843636  1
  Mg  Mg35  1  -0.00291948  0.24943145  0.24927138  1
  Mg  Mg36  1  0.66608684  0.74904664  0.24929310  1
  Mg  Mg37  1  0.50146065  0.49871755  0.74942796  1
  Mg  Mg38  1  -0.00020641  0.75358376  0.24764316  1
  Mg  Mg39  1  -0.00030744  0.24723685  0.75242673  1
  Mg  Mg40  1  0.16128998  -0.00064429  0.24730775  1
  Mg  Mg41  1  0.83392610  0.49919926  0.25303757  1
  Mg  Mg42  1  0.16738799  0.00093150  0.75266542  1
  Mg  Mg43  1  0.33373359  0.25176803  0.74901634  1
  Mg  Mg44  1  0.16690357  0.50064071  0.74982034  1
  Mg  Mg45  1  0.33359938  0.74981388  0.24656759  1
  Mg  Mg46  1  0.83249279  0.00529315  0.75079684  1
  Mg  Mg47  1  0.66751566  0.74982038  0.74967514  1
  Mg  Mg48  1  0.16685438  0.49861935  0.24489396  1
  Mg  Mg49  1  0.00039645  0.74866517  0.75018732  1
  Mg  Mg50  1  0.83543967  0.00078576  0.25213595  1
  Mg  Mg51  1  0.66890324  0.25004654  0.25709452  1
  Mg  Mg52  1  0.50128015  0.00292808  0.24914671  1
  Mg  Mg53  1  0.16515902  0.66446559  0.74835194  1
  Mg  Mg54  1  0.33407291  0.08571240  0.74978491  1
  Mg  Mg55  1  0.33235025  0.41818707  0.24414031  1
  Mg  Mg56  1  0.16247307  0.83511758  0.24752922  1
  Mg  Mg57  1  0.66474152  0.58197241  0.25200015  1
  Mg  Mg58  1  -0.00061958  0.08488075  0.75216479  1
  Mg  Mg59  1  -0.00061716  0.91759224  0.75143665  1
  Mg  Mg60  1  0.16199633  0.16531371  0.24472335  1
  Mg  Mg61  1  0.83570499  0.83554888  0.25057514  1
  Mg  Mg62  1  0.49920471  0.83453376  0.24760097  1
  Mg  Mg63  1  0.33326664  0.91609040  0.75151933  1
  Mg  Mg64  1  0.83415796  0.66653669  0.25190200  1
  Mg  Mg65  1  -0.00102336  0.41368272  0.75098271  1
  Mg  Mg66  1  0.33507475  0.41374890  0.74981276  1
  Mg  Mg67  1  0.16623749  0.83323225  0.75244759  1
  Mg  Mg68  1  0.33406357  0.58402535  0.24431809  1
  Mg  Mg69  1  0.16900569  0.33344755  0.75175254  1
  Mg  Mg70  1  0.66779070  0.41791229  0.25637117  1
  Mg  Mg71  1  0.83362221  0.33318225  0.25490471  1
  Mg  Mg72  1  -0.00635324  0.08232572  0.24935649  1
  Mg  Mg73  1  0.50302573  0.33217145  0.74720773  1
  Mg  Mg74  1  0.83356939  0.83554604  0.75066650  1
  Mg  Mg75  1  0.83075991  0.32808411  0.75132354  1
  Mg  Mg76  1  0.16419400  0.33386080  0.24467881  1
  Mg  Mg77  1  0.83449367  0.66336416  0.74977829  1
  Mg  Mg78  1  0.33045284  0.58349036  0.74912481  1
  Mg  Mg79  1  0.49894569  0.83322902  0.74882120  1
  Mg  Mg80  1  0.49951724  0.66523718  0.75003256  1
  Mg  Mg81  1  0.50041428  0.33747604  0.25130969  1
  Mg  Mg82  1  0.16653002  0.66593226  0.24681788  1
  Mg  Mg83  1  0.66711359  0.08868669  0.74930979  1
  Mg  Mg84  1  -0.00000961  0.41385495  0.24890499  1
  Mg  Mg85  1  0.66550518  0.91804497  0.74817837  1
  Mg  Mg86  1  0.50081741  0.16796577  0.25001125  1
  Mg  Mg87  1  0.33173548  0.08557140  0.24684745  1
  Mg  Mg88  1  0.66962324  0.91633093  0.25142604  1
  Mg  Mg89  1  0.00102004  0.58425983  0.25002690  1
  Mg  Mg90  1  0.49754025  0.66343639  0.24675412  1
  Mg  Mg91  1  -0.00052401  0.58396908  0.75057356  1
  Mg  Mg92  1  0.66877563  0.58334171  0.74774155  1
  Mg  Mg93  1  0.50278079  0.16762447  0.74689663  1
  Mg  Mg94  1  0.33144335  0.91694828  0.24752572  1
  Mg  Mg95  1  0.67139286  0.08742336  0.25285488  1
  Fe  Fe96  1  0.36050668  0.66809139  0.10665388  1
  Fe  Fe97  1  0.63825463  0.16732330  0.39369837  1
  Fe  Fe98  1  0.52550023  0.08333661  0.60867613  1
  Fe  Fe99  1  0.30675625  0.66294231  0.89135183  1
  Fe  Fe100  1  0.31359900  0.33616654  0.89281393  1
  Fe  Fe101  1  0.19325058  0.58404831  0.60638887  1
  Fe  Fe102  1  0.19254305  0.41702477  0.10576563  1
  Fe  Fe103  1  0.81368388  0.07933836  0.39335833  1
  Fe  Fe104  1  0.35765271  0.33389682  0.60867926  1
  Fe  Fe105  1  0.85292298  0.91566462  0.11007831  1
  Fe  Fe106  1  0.80658843  0.58082234  0.89172276  1
  Fe  Fe107  1  0.81147888  0.41939563  0.39372804  1
  Fe  Fe108  1  0.86055696  0.57606079  0.60875575  1
  Fe  Fe109  1  0.35674642  0.16537572  0.10727845  1
  Fe  Fe110  1  0.02706442  0.67111574  0.60845926  1
  Fe  Fe111  1  0.02226361  0.32869377  0.10700164  1
  Fe  Fe112  1  0.52945077  0.41830820  0.60583506  1
  Si  Si113  1  0.85705009  0.92367286  0.61608182  1
  Si  Si114  1  0.35135439  0.16511331  0.61007128  1
  Si  Si115  1  0.30638814  0.83228652  0.38362779  1
  Si  Si116  1  0.97316310  0.32764547  0.88580239  1
  Si  Si117  1  0.69689436  0.16508444  0.61479440  1
  Si  Si118  1  0.47242556  0.91478175  0.38374467  1
  Si  Si119  1  0.31390321  0.16312907  0.88819195  1
  Si  Si120  1  0.14253917  0.58168523  0.38360552  1
  Si  Si121  1  0.52854292  0.91838231  0.11478440  1
  Si  Si122  1  0.64082790  0.83534028  0.88410525  1
  Si  Si123  1  0.80823419  0.08319457  0.88639235  1
  Si  Si124  1  0.01999559  0.84019315  0.61463713  1
  Si  Si125  1  0.30227174  0.16652629  0.38175276  1
  Si  Si126  1  0.53421365  0.08435417  0.11239749  1
  Si  Si127  1  0.14144092  0.91882353  0.88872922  1
  Si  Si128  1  0.86148970  0.40584330  0.61400502  1
  Si  Si129  1  0.46681779  0.08071857  0.38629476  1
  Si  Si130  1  0.53165698  0.58000793  0.11355057  1
  Si  Si131  1  0.69643088  0.67182525  0.61215459  1
  Si  Si132  1  0.64226200  0.16469624  0.88711193  1
  Si  Si133  1  0.13274549  0.58232340  0.88884733  1
  Si  Si134  1  0.47569180  0.91793174  0.88532517  1
  Si  Si135  1  0.69357242  0.83687146  0.61446486  1
  Si  Si136  1  0.63860657  0.66964383  0.88610211  1
  Si  Si137  1  0.85798331  0.42105049  0.11437334  1
  Si  Si138  1  0.30620203  0.66702779  0.38368719  1
  Si  Si139  1  0.14196630  0.08157362  0.88818825  1
  Si  Si140  1  0.36425259  0.66494604  0.61253662  1
  Si  Si141  1  0.52896542  0.59169815  0.61124854  1
  Si  Si142  1  0.18480113  0.41731926  0.61163413  1
  Si  Si143  1  0.53222749  0.41554041  0.11817188  1
  Si  Si144  1  0.14113300  0.08231098  0.38369162  1
  Si  Si145  1  0.70064588  0.32670983  0.61376346  1
  Si  Si146  1  0.97497437  0.83671852  0.88654787  1
  Si  Si147  1  0.98179746  0.16818516  0.38715744  1
  Si  Si148  1  0.81143393  0.59156390  0.38794235  1
  Si  Si149  1  0.14201490  0.41726391  0.38414595  1
  Si  Si150  1  0.97989544  0.83050430  0.38449774  1
  Si  Si151  1  0.46511075  0.41898163  0.38237191  1
  Si  Si152  1  0.47087239  0.58422402  0.38333682  1
  Si  Si153  1  0.19120351  0.91465922  0.61565752  1
  Si  Si154  1  0.63947516  0.83170014  0.38539723  1
  Si  Si155  1  0.69273518  0.66216858  0.11686143  1
  Si  Si156  1  0.69690643  0.17231870  0.11803498  1
  Si  Si157  1  0.64212848  0.32695945  0.88437846  1
  Si  Si158  1  0.01666482  0.16007597  0.11162665  1
  Si  Si159  1  0.30778962  0.83874816  0.88906815  1
  Si  Si160  1  0.85882151  0.58549119  0.11719279  1
  Si  Si161  1  0.98007475  0.66861903  0.38455818  1
  Si  Si162  1  0.68655665  0.82570943  0.11280549  1
  Si  Si163  1  0.97149224  0.67212526  0.88975315  1
  Si  Si164  1  0.63523826  0.34078755  0.39181010  1
  Si  Si165  1  0.86127378  0.08575184  0.61730285  1
  Si  Si166  1  0.85267339  0.08193670  0.11401318  1
  Si  Si167  1  0.02532859  0.83302933  0.11163443  1
  Si  Si168  1  0.02837692  0.32639879  0.61679999  1
  Si  Si169  1  0.18829319  0.91484649  0.11351427  1
  Si  Si170  1  0.19156530  0.07767688  0.61612300  1
  Si  Si171  1  0.18415760  0.07910299  0.11076778  1
  Si  Si172  1  0.02571033  0.16215109  0.61675591  1
  Si  Si173  1  0.47797363  0.58196152  0.88564548  1
  Si  Si174  1  0.18405856  0.58574294  0.10932704  1
  Si  Si175  1  0.02206626  0.66935511  0.11424321  1
  Si  Si176  1  0.81189505  0.90676989  0.39048231  1
  Si  Si177  1  0.47791269  0.08205080  0.88631542  1
  Si  Si178  1  0.35749407  0.84165175  0.11101269  1
  Si  Si179  1  0.63761639  0.66596128  0.38490528  1
  Si  Si180  1  0.97723791  0.16334106  0.88746662  1
  Si  Si181  1  0.98052860  0.33220273  0.38932878  1
  Si  Si182  1  0.69488568  0.33560790  0.11821409  1
  Si  Si183  1  0.36444698  0.33848376  0.11081226  1
  Si  Si184  1  0.30450406  0.33153542  0.38141340  1
  Si  Si185  1  0.80717147  0.91829671  0.88568613  1
  Si  Si186  1  0.52158438  0.91274088  0.61111144  1
  Si  Si187  1  0.14281531  0.91732215  0.38355665  1
  Si  Si188  1  0.48574231  0.41872356  0.88915886  1
  Si  Si189  1  0.81129008  0.41012182  0.88743809  1
  Si  Si190  1  0.13540319  0.41634449  0.88737456  1
  Si  Si191  1  0.35770567  0.83178178  0.61565402  1
  O  O192  1  0.26159808  0.10536331  0.07611396  1
  O  O193  1  0.27033129  0.10863757  0.58431866  1
  O  O194  1  0.26306867  0.61433942  0.07710748  1
  O  O195  1  0.29441336  0.61011682  0.57486926  1
  O  O196  1  0.61639241  0.12053766  0.08595802  1
  O  O197  1  0.62292603  0.11208100  0.57760342  1
  O  O198  1  0.62063876  0.60342867  0.08722113  1
  O  O199  1  0.60868380  0.62952076  0.58274620  1
  O  O200  1  0.93923432  0.10321002  0.08508681  1
  O  O201  1  0.94397111  0.11175730  0.58530951  1
  O  O202  1  0.94084342  0.61625374  0.08775944  1
  O  O203  1  0.94556100  0.60839441  0.56641706  1
  O  O204  1  0.11518937  0.34862506  0.06898765  1
  O  O205  1  0.10905779  0.35629727  0.58664700  1
  O  O206  1  0.11450345  0.85616742  0.08531100  1
  O  O207  1  0.10501115  0.86961548  0.58656506  1
  O  O208  1  0.45553008  0.36087591  0.08834272  1
  O  O209  1  0.44068097  0.36295183  0.56217012  1
  O  O210  1  0.43538150  0.88496633  0.08492940  1
  O  O211  1  0.43995662  0.85889979  0.58363907  1
  O  O212  1  0.77350369  0.37119627  0.08777332  1
  O  O213  1  0.78932148  0.34586386  0.58597483  1
  O  O214  1  0.76181997  0.85200024  0.07617717  1
  O  O215  1  0.77384733  0.87376506  0.58642234  1
  O  O216  1  0.29813050  0.40048630  0.08099109  1
  O  O217  1  0.26413104  0.39389026  0.57738680  1
  O  O218  1  0.27431879  0.89335077  0.08536197  1
  O  O219  1  0.27149850  0.87925089  0.58582380  1
  O  O220  1  0.61352467  0.38540618  0.08695653  1
  O  O221  1  0.62872411  0.38236227  0.57904833  1
  O  O222  1  0.59908553  0.87127392  0.08489932  1
  O  O223  1  0.60549745  0.87896787  0.58438215  1
  O  O224  1  0.93269620  0.39500404  0.07741939  1
  O  O225  1  0.94676675  0.37594606  0.58702372  1
  O  O226  1  0.95179746  0.88647763  0.07707533  1
  O  O227  1  0.94258003  0.89883894  0.58875298  1
  O  O228  1  0.09920515  0.12667089  0.08352203  1
  O  O229  1  0.10615315  0.12535267  0.58841669  1
  O  O230  1  0.10509892  0.64390358  0.08534683  1
  O  O231  1  0.12149198  0.65695260  0.57072646  1
  O  O232  1  0.45000642  0.12407663  0.07514921  1
  O  O233  1  0.42772126  0.13562538  0.57454641  1
  O  O234  1  0.45715864  0.63198736  0.07718152  1
  O  O235  1  0.45280038  0.65020743  0.58402349  1
  O  O236  1  0.77987539  0.14426672  0.08856140  1
  O  O237  1  0.78531010  0.14044210  0.58843031  1
  O  O238  1  0.77987893  0.64009915  0.08966822  1
  O  O239  1  0.76965294  0.63963603  0.57687823  1
  O  O240  1  0.06460366  0.11589838  0.41621226  1
  O  O241  1  0.06550374  0.12043209  0.91992271  1
  O  O242  1  0.06074439  0.61554024  0.41147640  1
  O  O243  1  0.05551092  0.62402267  0.91746391  1
  O  O244  1  0.38188989  0.11421457  0.41031363  1
  O  O245  1  0.39770257  0.11207793  0.91786717  1
  O  O246  1  0.39650553  0.62835625  0.41411811  1
  O  O247  1  0.40103009  0.60412247  0.92256092  1
  O  O248  1  0.72953310  0.11467596  0.43484810  1
  O  O249  1  0.73133806  0.12128728  0.91804002  1
  O  O250  1  0.73017766  0.63124419  0.41404114  1
  O  O251  1  0.71622872  0.62355505  0.92564170  1
  O  O252  1  0.22523357  0.36727900  0.41132724  1
  O  O253  1  0.22173839  0.37922480  0.92390600  1
  O  O254  1  0.23039175  0.87229569  0.41452283  1
  O  O255  1  0.22859975  0.87631039  0.92014691  1
  O  O256  1  0.55018091  0.37644575  0.41518545  1
  O  O257  1  0.57071822  0.36988703  0.91871997  1
  O  O258  1  0.56330365  0.87563552  0.41321778  1
  O  O259  1  0.56170370  0.87141751  0.91406555  1
  O  O260  1  0.90506612  0.35909145  0.42591247  1
  O  O261  1  0.89507490  0.36048922  0.91805326  1
  O  O262  1  0.89659449  0.85521094  0.41529126  1
  O  O263  1  0.89414557  0.87317424  0.91472012  1
  O  O264  1  0.06428364  0.38379090  0.41608395  1
  O  O265  1  0.05737385  0.37446136  0.91487051  1
  O  O266  1  0.06309804  0.88153161  0.41322854  1
  O  O267  1  0.05992210  0.88373235  0.91637134  1
  O  O268  1  0.38643301  0.38069475  0.41124188  1
  O  O269  1  0.41156871  0.39037341  0.92710100  1
  O  O270  1  0.39772691  0.87037570  0.41277033  1
  O  O271  1  0.39488872  0.88738900  0.91592309  1
  O  O272  1  0.71301336  0.39271297  0.42353853  1
  O  O273  1  0.73221501  0.36767946  0.91327919  1
  O  O274  1  0.73124995  0.86572790  0.41730334  1
  O  O275  1  0.72753655  0.88081640  0.91391956  1
  O  O276  1  0.22448084  0.13096264  0.41328215  1
  O  O277  1  0.23189842  0.12293153  0.91351263  1
  O  O278  1  0.22778532  0.62888042  0.41247635  1
  O  O279  1  0.21728066  0.62147363  0.92626284  1
  O  O280  1  0.54576312  0.12384122  0.42498495  1
  O  O281  1  0.56488691  0.12537501  0.91850873  1
  O  O282  1  0.56242008  0.62300996  0.41411753  1
  O  O283  1  0.55298583  0.64165935  0.91164570  1
  O  O284  1  0.90824840  0.13947492  0.42451703  1
  O  O285  1  0.89848636  0.12356916  0.91632002  1
  O  O286  1  0.89384100  0.64556028  0.41142525  1
  O  O287  1  0.89627795  0.64385214  0.92587714  1
  O  O288  1  0.15873652  -0.00487500  0.08584035  1
  O  O289  1  0.17474119  -0.00419318  0.58419840  1
  O  O290  1  0.14917203  0.50917255  0.07955602  1
  O  O291  1  0.14818787  0.49315702  0.57884004  1
  O  O292  1  0.53225787  -0.00023665  0.08518284  1
  O  O293  1  0.49951811  -0.01135189  0.57524416  1
  O  O294  1  0.51271558  0.49667463  0.08755403  1
  O  O295  1  0.51038348  0.51569403  0.57412225  1
  O  O296  1  0.81830677  0.00787059  0.07674012  1
  O  O297  1  0.83505420  0.00452516  0.58655800  1
  O  O298  1  0.83285318  0.50505881  0.08889932  1
  O  O299  1  0.83460511  0.48155162  0.57781482  1
  O  O300  1  -0.01289887  0.23548010  0.07673096  1
  O  O301  1  0.01245233  0.24390717  0.58637678  1
  O  O302  1  -0.00077314  0.75020431  0.08443023  1
  O  O303  1  -0.01060334  0.76593293  0.57939824  1
  O  O304  1  0.33778219  0.26026818  0.07782822  1
  O  O305  1  0.31841626  0.24161990  0.57884837  1
  O  O306  1  0.34345504  0.76450906  0.07578812  1
  O  O307  1  0.33734553  0.74960129  0.58883841  1
  O  O308  1  0.67830037  0.25413279  0.08697321  1
  O  O309  1  0.67568470  0.24554058  0.58307028  1
  O  O310  1  0.66258276  0.74189558  0.08797893  1
  O  O311  1  0.68104339  0.75595034  0.58387235  1
  O  O312  1  0.15735328  -0.00042758  0.41330605  1
  O  O313  1  0.15239043  0.00000448  0.92090613  1
  O  O314  1  0.15919929  0.49993082  0.41273349  1
  O  O315  1  0.13087253  0.49898577  0.91583563  1
  O  O316  1  0.47217169  -0.00409586  0.41339271  1
  O  O317  1  0.49449751  -0.00079330  0.91549677  1
  O  O318  1  0.47158844  0.50208005  0.41187222  1
  O  O319  1  0.51318548  0.50209124  0.91327360  1
  O  O320  1  0.83115220  -0.01757877  0.42744434  1
  O  O321  1  0.81854152  -0.00016124  0.91687496  1
  O  O322  1  0.83327825  0.51564220  0.42343206  1
  O  O323  1  0.82249333  0.48668186  0.92651483  1
  O  O324  1  0.31718861  0.24879750  0.41082993  1
  O  O325  1  0.32722286  0.23982542  0.92517877  1
  O  O326  1  0.31220782  0.74997158  0.41311317  1
  O  O327  1  0.32457742  0.76024797  0.92145156  1
  O  O328  1  0.64762871  0.26215496  0.42563196  1
  O  O329  1  0.65192009  0.24567619  0.91958126  1
  O  O330  1  0.63658079  0.74895068  0.41385001  1
  O  O331  1  0.65306106  0.75412045  0.91396564  1
  O  O332  1  1.01079429  0.25022255  0.41383846  1
  O  O333  1  0.98708022  0.24552769  0.91678924  1
  O  O334  1  1.00657173  0.74928113  0.41400172  1
  O  O335  1  0.99167187  0.75617906  0.91724419  1
  O  O336  1  0.20668430  0.08119962  0.19194560  1
  O  O337  1  0.21298948  0.07449417  0.69543878  1
  O  O338  1  0.20647106  0.58611369  0.19137003  1
  O  O339  1  0.20855800  0.58190976  0.69849806  1
  O  O340  1  0.54450670  0.08285755  0.19304608  1
  O  O341  1  0.54511900  0.08146404  0.70033671  1
  O  O342  1  0.54745597  0.58668682  0.19366406  1
  O  O343  1  0.54627447  0.58806602  0.69214222  1
  O  O344  1  0.87536160  0.07889617  0.19370867  1
  O  O345  1  0.88154284  0.07903201  0.69651543  1
  O  O346  1  0.87766606  0.58535236  0.19777620  1
  O  O347  1  0.88106164  0.58363010  0.70067272  1
  O  O348  1  0.04257376  0.33236327  0.19976843  1
  O  O349  1  0.04448769  0.32927151  0.69701807  1
  O  O350  1  0.04459324  0.83085933  0.19197342  1
  O  O351  1  0.04006817  0.83834658  0.69579803  1
  O  O352  1  0.37821509  0.33448835  0.19242877  1
  O  O353  1  0.38000668  0.33295116  0.70038149  1
  O  O354  1  0.37584022  0.83703553  0.19236947  1
  O  O355  1  0.37956907  0.84102912  0.69463624  1
  O  O356  1  0.71034494  0.33432382  0.19822467  1
  O  O357  1  0.71834640  0.32597098  0.69268263  1
  O  O358  1  0.70677899  0.83059973  0.19394597  1
  O  O359  1  0.71080735  0.83654314  0.69504247  1
  O  O360  1  0.21043850  0.41643750  0.19872839  1
  O  O361  1  0.20557469  0.41760845  0.69299414  1
  O  O362  1  0.20864243  0.91552343  0.19421106  1
  O  O363  1  0.20942025  0.91585420  0.69606184  1
  O  O364  1  0.54996203  0.41537445  0.19793068  1
  O  O365  1  0.53282660  0.41815927  0.69538562  1
  O  O366  1  0.54440896  0.91672053  0.19545507  1
  O  O367  1  0.54231502  0.91505611  0.69225767  1
  O  O368  1  0.87811542  0.41949506  0.19514387  1
  O  O369  1  0.87902977  0.41239778  0.69481257  1
  O  O370  1  0.87113525  0.91607055  0.20063703  1
  O  O371  1  0.87435447  0.91925979  0.69664756  1
  O  O372  1  0.03930658  0.16371268  0.19269043  1
  O  O373  1  0.03709349  0.16371272  0.69577910  1
  O  O374  1  0.04144643  0.66812310  0.19504813  1
  O  O375  1  0.04235436  0.66779315  0.70180847  1
  O  O376  1  0.37871914  0.16520682  0.19932640  1
  O  O377  1  0.37417463  0.16327952  0.69152504  1
  O  O378  1  0.37779039  0.66950179  0.19852066  1
  O  O379  1  0.38263799  0.65970409  0.69226386  1
  O  O380  1  0.70801826  0.17111473  0.19711963  1
  O  O381  1  0.71035753  0.16186159  0.69395503  1
  O  O382  1  0.71072923  0.66507357  0.19751537  1
  O  O383  1  0.71211754  0.67261300  0.69297317  1
  O  O384  1  0.12391925  0.08230156  0.30353430  1
  O  O385  1  0.11896218  0.07502999  0.80922115  1
  O  O386  1  0.12450782  0.58398716  0.30302128  1
  O  O387  1  0.11899539  0.58274507  0.80835554  1
  O  O388  1  0.45472080  0.08049751  0.30544529  1
  O  O389  1  0.45830494  0.08163436  0.80632149  1
  O  O390  1  0.45362397  0.58805964  0.30411777  1
  O  O391  1  0.45691404  0.58372032  0.80484521  1
  O  O392  1  0.78798166  0.07845881  0.30260340  1
  O  O393  1  0.78756096  0.07978369  0.80728286  1
  O  O394  1  0.79123611  0.58729070  0.30696745  1
  O  O395  1  0.78792378  0.58469168  0.80080090  1
  O  O396  1  0.28785619  0.33083925  0.30130625  1
  O  O397  1  0.28946702  0.33380227  0.80202373  1
  O  O398  1  0.28939407  0.83381580  0.30324769  1
  O  O399  1  0.28546660  0.84364406  0.80935871  1
  O  O400  1  0.62141935  0.33676582  0.31020800  1
  O  O401  1  0.61767927  0.32343105  0.80645438  1
  O  O402  1  0.62234703  0.83274094  0.30484688  1
  O  O403  1  0.62436331  0.83636898  0.80373093  1
  O  O404  1  0.95828943  0.33535186  0.30860073  1
  O  O405  1  0.95647247  0.33027747  0.80593657  1
  O  O406  1  0.95811311  0.82919107  0.30509219  1
  O  O407  1  0.95587567  0.83678896  0.80611135  1
  O  O408  1  0.12268992  0.41863974  0.30413450  1
  O  O409  1  0.12165568  0.41661418  0.80657043  1
  O  O410  1  0.12908609  0.91598662  0.30429490  1
  O  O411  1  0.12286648  0.91776338  0.80820527  1
  O  O412  1  0.44950300  0.41650092  0.30277088  1
  O  O413  1  0.46087472  0.41670938  0.80914350  1
  O  O414  1  0.45519648  0.91515530  0.30324664  1
  O  O415  1  0.45826170  0.91691400  0.80504507  1
  O  O416  1  0.79118417  0.41881829  0.30188096  1
  O  O417  1  0.80172790  0.41629177  0.80828127  1
  O  O418  1  0.78851393  0.91020950  0.30977939  1
  O  O419  1  0.78982719  0.91773998  0.80541417  1
  O  O420  1  0.28437030  0.16570099  0.30150808  1
  O  O421  1  0.30267520  0.16512061  0.80863150  1
  O  O422  1  0.28795001  0.66808689  0.30348013  1
  O  O423  1  0.28227924  0.65954034  0.80218054  1
  O  O424  1  0.61941213  0.16559531  0.30118991  1
  O  O425  1  0.62196890  0.16099449  0.80829006  1
  O  O426  1  0.62100922  0.66754086  0.30454192  1
  O  O427  1  0.62605069  0.66980393  0.80526044  1
  O  O428  1  0.96439969  0.16660273  0.30699271  1
  O  O429  1  0.96359190  0.16309051  0.80853070  1
  O  O430  1  0.96011150  0.66805585  0.30394652  1
  O  O431  1  0.95328007  0.67212863  0.80921013  1
  F  F432  1  0.04473675  0.00254269  0.20126253  1
  F  F433  1  0.04578143  -0.00112558  0.70401840  1
  F  F434  1  0.04322843  0.50186804  0.20201955  1
  F  F435  1  0.04406492  0.49802323  0.70456549  1
  F  F436  1  0.37915925  -0.00061002  0.20105110  1
  F  F437  1  0.37861650  -0.00065254  0.70371768  1
  F  F438  1  0.37551752  0.50237829  0.19888300  1
  F  F439  1  0.37829259  0.49955077  0.70467803  1
  F  F440  1  0.70869305  -0.00280676  0.20315028  1
  F  F441  1  0.71231905  -0.00123554  0.70215157  1
  F  F442  1  0.71331268  0.50287509  0.20343035  1
  F  F443  1  0.71664816  0.50916622  0.69528929  1
  F  F444  1  0.21057818  0.24755711  0.19837796  1
  F  F445  1  0.21441946  0.25583212  0.69952026  1
  F  F446  1  0.21155935  0.75163597  0.20116918  1
  F  F447  1  0.19710320  0.75400046  0.70026500  1
  F  F448  1  0.54614239  0.25366291  0.20432204  1
  F  F449  1  0.53844738  0.24740023  0.69693171  1
  F  F450  1  0.54478782  0.75122925  0.20192508  1
  F  F451  1  0.54790978  0.75237745  0.70058597  1
  F  F452  1  0.87821300  0.25496870  0.20507880  1
  F  F453  1  0.88360545  0.24964828  0.70368097  1
  F  F454  1  0.87717090  0.74881374  0.20236536  1
  F  F455  1  0.87780006  0.75366164  0.70384823  1
  F  F456  1  0.28650429  -0.00024169  0.29506144  1
  F  F457  1  0.28959495  0.00032385  0.80009771  1
  F  F458  1  0.28721499  0.50449009  0.29614542  1
  F  F459  1  0.28807746  0.49633116  0.79872030  1
  F  F460  1  0.61893422  -0.00280182  0.29889562  1
  F  F461  1  0.62228294  -0.00391516  0.79937728  1
  F  F462  1  0.62585450  0.50320625  0.30205554  1
  F  F463  1  0.61843313  0.51153493  0.79977794  1
  F  F464  1  0.95539379  0.00327146  0.30261796  1
  F  F465  1  0.95366850  -0.00163500  0.80103912  1
  F  F466  1  0.95702277  0.50173893  0.29857132  1
  F  F467  1  0.95605882  0.49776692  0.79967644  1
  F  F468  1  0.12327272  0.24741107  0.29570549  1
  F  F469  1  0.11692227  0.25847368  0.80498883  1
  F  F470  1  0.12273676  0.75002826  0.29680014  1
  F  F471  1  0.11836730  0.75579689  0.80286945  1
  F  F472  1  0.45248880  0.25220637  0.29786848  1
  F  F473  1  0.45558569  0.24519201  0.79801319  1
  F  F474  1  0.45476380  0.75418043  0.29800909  1
  F  F475  1  0.46847943  0.75159721  0.80051667  1
  F  F476  1  0.78626734  0.25628185  0.30532985  1
  F  F477  1  0.79339663  0.25036827  0.80525419  1
  F  F478  1  0.78690554  0.75019053  0.29793708  1
  F  F479  1  0.78742753  0.75406268  0.79856753  1
