# generated using pymatgen
data_K24Na3Li5Mg64Fe17Si79(O5F)48
_symmetry_space_group_name_H-M   'P 1'
_cell_length_a   16.08471115
_cell_length_b   18.57700785
_cell_length_c   20.53808081
_cell_angle_alpha   90.01133460
_cell_angle_beta   100.02121914
_cell_angle_gamma   89.97445211
_symmetry_Int_Tables_number   1
_chemical_formula_structural   K24Na3Li5Mg64Fe17Si79(O5F)48
_chemical_formula_sum   'K24 Na3 Li5 Mg64 Fe17 Si79 O240 F48'
_cell_volume   6043.26878995
_cell_formula_units_Z   1
loop_
 _symmetry_equiv_pos_site_id
 _symmetry_equiv_pos_as_xyz
  1  'x, y, z'
loop_
 _atom_site_type_symbol
 _atom_site_label
 _atom_site_symmetry_multiplicity
 _atom_site_fract_x
 _atom_site_fract_y
 _atom_site_fract_z
 _atom_site_occupancy
  K  K0  1  0.00171833  -0.00434553  0.00988512  1
  K  K1  1  -0.00711070  0.00655069  0.49267448  1
  K  K2  1  0.00695337  0.49796763  0.00004288  1
  K  K3  1  0.00255240  0.50263287  0.50003378  1
  K  K4  1  0.33481029  -0.00371615  -0.00001804  1
  K  K5  1  0.33097200  -0.00508850  0.49869671  1
  K  K6  1  0.33135599  0.50062813  0.00371976  1
  K  K7  1  0.33314586  0.49701424  0.49712385  1
  K  K8  1  0.67124129  -0.00468667  0.00830505  1
  K  K9  1  0.66834994  0.00414477  0.49505562  1
  K  K10  1  0.66611636  0.49946287  0.00042478  1
  K  K11  1  0.66117185  0.49753464  0.50058638  1
  K  K12  1  0.16769551  0.25701513  -0.00463282  1
  K  K13  1  0.16736351  0.25226751  0.49946299  1
  K  K14  1  0.17385868  0.74648459  0.00718914  1
  K  K15  1  0.17077679  0.74070804  0.49418917  1
  K  K16  1  0.49677364  0.25296421  0.00006559  1
  K  K17  1  0.49822755  0.26054342  0.49987103  1
  K  K18  1  0.48870884  0.75071761  0.00417824  1
  K  K19  1  0.49284540  0.74787491  0.49442415  1
  K  K20  1  0.83663268  0.25543273  0.00036107  1
  K  K21  1  0.82917962  0.24684646  0.50084812  1
  K  K22  1  0.84280916  0.75474611  0.00789864  1
  K  K23  1  0.83545777  0.74432919  0.49600351  1
  Na  Na24  1  0.83514115  0.00018342  0.25014620  1
  Na  Na25  1  0.50008104  0.82867806  0.24924919  1
  Na  Na26  1  0.83388007  0.33261582  0.74341737  1
  Li  Li27  1  -0.00005677  0.25070101  0.25821954  1
  Li  Li28  1  0.48816062  0.50238616  0.24640425  1
  Li  Li29  1  0.17744010  0.66213109  0.24397961  1
  Li  Li30  1  0.16672333  0.33474446  0.75078093  1
  Li  Li31  1  0.33427264  0.58335415  0.24308073  1
  Mg  Mg32  1  0.33202574  0.74927683  0.75263229  1
  Mg  Mg33  1  0.16636421  0.49520906  0.75110609  1
  Mg  Mg34  1  0.49986467  0.50008884  0.75398703  1
  Mg  Mg35  1  0.00434634  0.25083428  0.74837876  1
  Mg  Mg36  1  0.16708298  0.00273625  0.75119659  1
  Mg  Mg37  1  0.66581167  0.25071775  0.25416087  1
  Mg  Mg38  1  0.33127830  0.25068167  0.25477718  1
  Mg  Mg39  1  0.16493335  -0.00104925  0.24657717  1
  Mg  Mg40  1  0.33348541  0.74507837  0.24573537  1
  Mg  Mg41  1  0.00531651  0.74883475  0.24357598  1
  Mg  Mg42  1  -0.00000481  0.74893289  0.74695303  1
  Mg  Mg43  1  0.66864114  0.25166095  0.75118296  1
  Mg  Mg44  1  0.33218225  0.25275026  0.75484305  1
  Mg  Mg45  1  0.50039590  -0.00063609  0.74975300  1
  Mg  Mg46  1  0.66465017  0.75030129  0.74896794  1
  Mg  Mg47  1  0.50079827  -0.00033643  0.25372960  1
  Mg  Mg48  1  0.83352455  0.49956989  0.74629960  1
  Mg  Mg49  1  0.17104748  0.50253411  0.25015046  1
  Mg  Mg50  1  0.83304523  -0.00160070  0.74765853  1
  Mg  Mg51  1  0.83422704  0.49849624  0.25050961  1
  Mg  Mg52  1  0.66675032  0.74797810  0.24778789  1
  Mg  Mg53  1  0.66391661  0.41861210  0.25164343  1
  Mg  Mg54  1  0.50021277  0.16638413  0.25573611  1
  Mg  Mg55  1  -0.00267800  0.08486342  0.24899550  1
  Mg  Mg56  1  -0.00023567  0.91410611  0.24403594  1
  Mg  Mg57  1  0.83577559  0.33266146  0.25169232  1
  Mg  Mg58  1  0.33472192  0.08377839  0.25419236  1
  Mg  Mg59  1  0.33561988  0.58347808  0.75385701  1
  Mg  Mg60  1  0.83479813  0.83390689  0.24654880  1
  Mg  Mg61  1  0.83581612  0.16757101  0.25171333  1
  Mg  Mg62  1  0.66815967  0.08431757  0.25335663  1
  Mg  Mg63  1  0.33377925  0.08584654  0.75225625  1
  Mg  Mg64  1  0.16690504  0.82923742  0.24488589  1
  Mg  Mg65  1  0.00108045  0.91585055  0.75032343  1
  Mg  Mg66  1  0.33225917  0.41462529  0.75619605  1
  Mg  Mg67  1  0.66279539  0.58172933  0.24790852  1
  Mg  Mg68  1  0.16396515  0.16785548  0.25305298  1
  Mg  Mg69  1  0.50344732  0.33539965  0.75558591  1
  Mg  Mg70  1  0.33493740  0.91499615  0.24906431  1
  Mg  Mg71  1  0.66527338  0.58503414  0.74998307  1
  Mg  Mg72  1  0.83129722  0.83288251  0.74736954  1
  Mg  Mg73  1  0.49560663  0.66219367  0.24646830  1
  Mg  Mg74  1  0.66269674  0.91629069  0.74658954  1
  Mg  Mg75  1  0.49779497  0.33758635  0.25333394  1
  Mg  Mg76  1  0.66817104  0.41474457  0.75087717  1
  Mg  Mg77  1  -0.00064449  0.08573937  0.74763255  1
  Mg  Mg78  1  0.49714104  0.83520371  0.74828063  1
  Mg  Mg79  1  0.00011546  0.41409334  0.74750680  1
  Mg  Mg80  1  0.83552190  0.66452101  0.24685258  1
  Mg  Mg81  1  0.83326116  0.16538269  0.74618062  1
  Mg  Mg82  1  0.16530804  0.16991651  0.75070948  1
  Mg  Mg83  1  0.33356835  0.41892358  0.25271672  1
  Mg  Mg84  1  0.66649903  0.08458920  0.74885593  1
  Mg  Mg85  1  0.16722950  0.66365982  0.75031619  1
  Mg  Mg86  1  -0.00288214  0.58250560  0.74675599  1
  Mg  Mg87  1  0.50168860  0.16719958  0.75376575  1
  Mg  Mg88  1  0.00265122  0.41434607  0.25387291  1
  Mg  Mg89  1  0.16896786  0.83450514  0.75280462  1
  Mg  Mg90  1  0.33313034  0.91491917  0.75157634  1
  Mg  Mg91  1  0.00530647  0.58412313  0.24661249  1
  Mg  Mg92  1  0.49703976  0.66584957  0.75224773  1
  Mg  Mg93  1  0.16585666  0.33433207  0.25417018  1
  Mg  Mg94  1  0.66905696  0.91612700  0.25092487  1
  Mg  Mg95  1  0.83166441  0.66553021  0.74689591  1
  Fe  Fe96  1  0.01964240  0.16500611  0.60746410  1
  Fe  Fe97  1  0.02894404  0.82957286  0.10250801  1
  Fe  Fe98  1  0.30586703  0.33199544  0.39248369  1
  Fe  Fe99  1  0.80535886  0.08485471  0.39213473  1
  Fe  Fe100  1  0.97552214  0.33279132  0.39074159  1
  Fe  Fe101  1  0.30762051  0.83344807  0.89285829  1
  Fe  Fe102  1  0.64731462  0.33056979  0.89425912  1
  Fe  Fe103  1  0.69241565  0.33111684  0.60750703  1
  Fe  Fe104  1  0.30701454  0.33426088  0.89419583  1
  Fe  Fe105  1  0.85616054  0.91807466  0.10372743  1
  Fe  Fe106  1  0.47948386  0.58312543  0.89402277  1
  Fe  Fe107  1  0.35522068  0.66957959  0.10433547  1
  Fe  Fe108  1  0.35571041  0.66536302  0.61178741  1
  Fe  Fe109  1  0.51960584  0.91853888  0.60778155  1
  Fe  Fe110  1  0.02403923  0.33635467  0.60910623  1
  Fe  Fe111  1  0.47439155  0.08118542  0.39339144  1
  Fe  Fe112  1  0.85580032  0.58828081  0.60701504  1
  Si  Si113  1  0.36231335  0.17375020  0.61951813  1
  Si  Si114  1  0.47282654  0.41952333  0.38891285  1
  Si  Si115  1  0.68758121  0.82931115  0.11059251  1
  Si  Si116  1  0.52869399  0.92044737  0.11694786  1
  Si  Si117  1  0.69018936  0.17157972  0.11554036  1
  Si  Si118  1  0.68918307  0.83337656  0.61218175  1
  Si  Si119  1  0.81147729  0.58287166  0.38307544  1
  Si  Si120  1  0.02290809  0.65731887  0.10747322  1
  Si  Si121  1  0.19828033  0.08903362  0.61452663  1
  Si  Si122  1  0.64862575  0.16082394  0.88879029  1
  Si  Si123  1  0.97111606  0.33527447  0.88485569  1
  Si  Si124  1  0.68807233  0.67071709  0.61238089  1
  Si  Si125  1  0.47639387  0.58407436  0.38233151  1
  Si  Si126  1  0.31141838  0.16085026  0.89123497  1
  Si  Si127  1  0.47980124  0.91675895  0.88894749  1
  Si  Si128  1  0.85725281  0.90755155  0.61424105  1
  Si  Si129  1  0.97107094  0.83289582  0.88288597  1
  Si  Si130  1  0.19516048  0.41458633  0.61670401  1
  Si  Si131  1  0.02558762  0.17070155  0.11541348  1
  Si  Si132  1  0.64584154  0.83597620  0.88478592  1
  Si  Si133  1  0.80912139  0.42498876  0.88814025  1
  Si  Si134  1  0.30159129  0.15970972  0.39106425  1
  Si  Si135  1  0.36068180  0.16665726  0.11685933  1
  Si  Si136  1  0.14347531  0.91241945  0.38182221  1
  Si  Si137  1  0.35762678  0.84180123  0.11201301  1
  Si  Si138  1  0.19606159  0.92351234  0.11050471  1
  Si  Si139  1  0.13610728  0.07719516  0.38302184  1
  Si  Si140  1  0.52454228  0.41650365  0.11652751  1
  Si  Si141  1  0.80851901  0.91640665  0.88217310  1
  Si  Si142  1  0.80942515  0.90910234  0.38848916  1
  Si  Si143  1  0.30249895  0.66046111  0.89030159  1
  Si  Si144  1  0.31128181  0.66743349  0.38065646  1
  Si  Si145  1  0.97699119  0.82989367  0.38321937  1
  Si  Si146  1  0.51971820  0.08708932  0.61542262  1
  Si  Si147  1  0.18990556  0.57609108  0.11010873  1
  Si  Si148  1  0.64579309  0.82701548  0.38509172  1
  Si  Si149  1  0.19148406  0.08952268  0.11527469  1
  Si  Si150  1  0.19283279  0.41248540  0.11460020  1
  Si  Si151  1  0.86029326  0.42317357  0.60733633  1
  Si  Si152  1  0.03179620  0.66924352  0.61095495  1
  Si  Si153  1  0.03019060  0.83645411  0.61441865  1
  Si  Si154  1  0.52535432  0.42032245  0.61473173  1
  Si  Si155  1  0.63692634  0.17469077  0.39194484  1
  Si  Si156  1  0.31038967  0.83156792  0.38325942  1
  Si  Si157  1  0.97816558  0.16427198  0.38810487  1
  Si  Si158  1  0.64520590  0.67268260  0.88870532  1
  Si  Si159  1  0.85779373  0.09253560  0.11043818  1
  Si  Si160  1  0.02616667  0.33600269  0.11622916  1
  Si  Si161  1  0.64369470  0.66267054  0.38430711  1
  Si  Si162  1  0.19227477  0.57728565  0.61462899  1
  Si  Si163  1  0.63953198  0.34017213  0.38590507  1
  Si  Si164  1  0.13882101  0.08508420  0.88690456  1
  Si  Si165  1  0.85640643  0.58064928  0.11203381  1
  Si  Si166  1  0.13879701  0.42379988  0.38996513  1
  Si  Si167  1  0.13380877  0.91972315  0.88882275  1
  Si  Si168  1  0.52704957  0.58577018  0.61378845  1
  Si  Si169  1  0.80537593  0.41746610  0.38646104  1
  Si  Si170  1  0.85695491  0.41558599  0.11479012  1
  Si  Si171  1  0.47918866  0.91301226  0.38795838  1
  Si  Si172  1  0.97847624  0.66550420  0.38208173  1
  Si  Si173  1  0.35054291  0.83223225  0.61104502  1
  Si  Si174  1  0.97274858  0.16929522  0.88539655  1
  Si  Si175  1  0.14657336  0.58676159  0.38202503  1
  Si  Si176  1  0.80829077  0.58812671  0.88557417  1
  Si  Si177  1  0.52818264  0.08478267  0.11642467  1
  Si  Si178  1  0.85450824  0.07213813  0.61197660  1
  Si  Si179  1  0.52702593  0.58148024  0.11144674  1
  Si  Si180  1  0.97195040  0.66986502  0.88357367  1
  Si  Si181  1  0.13486479  0.41834598  0.88948359  1
  Si  Si182  1  0.69128094  0.66285760  0.11333196  1
  Si  Si183  1  0.13307324  0.58341869  0.88505611  1
  Si  Si184  1  0.36191202  0.33837682  0.61980184  1
  Si  Si185  1  0.81220991  0.07943763  0.88387952  1
  Si  Si186  1  0.36072142  0.33138207  0.11671352  1
  Si  Si187  1  0.68985496  0.33525442  0.11651471  1
  Si  Si188  1  0.48001340  0.08156381  0.88735259  1
  Si  Si189  1  0.68908271  0.15946599  0.61161697  1
  Si  Si190  1  0.19241880  0.92370474  0.61570289  1
  Si  Si191  1  0.47901385  0.41502090  0.89393015  1
  O  O192  1  0.27112956  0.12633464  0.08573728  1
  O  O193  1  0.28603129  0.11758094  0.58999672  1
  O  O194  1  0.25492047  0.61836522  0.07166494  1
  O  O195  1  0.27129021  0.59807678  0.57928767  1
  O  O196  1  0.60349492  0.12568947  0.08488618  1
  O  O197  1  0.60668578  0.10633526  0.58746492  1
  O  O198  1  0.61352372  0.60927934  0.08376822  1
  O  O199  1  0.61411687  0.61084153  0.58644173  1
  O  O200  1  0.93745461  0.13095132  0.08016562  1
  O  O201  1  0.93400083  0.09433842  0.57903414  1
  O  O202  1  0.93320519  0.61275593  0.07865130  1
  O  O203  1  0.94885766  0.62853005  0.57321304  1
  O  O204  1  0.10306864  0.37143671  0.08264381  1
  O  O205  1  0.12770502  0.35696806  0.58115552  1
  O  O206  1  0.12099619  0.87453420  0.07172525  1
  O  O207  1  0.10493385  0.87953886  0.58543281  1
  O  O208  1  0.43748930  0.37094218  0.08653765  1
  O  O209  1  0.44284810  0.36747152  0.58862217  1
  O  O210  1  0.44041526  0.87977324  0.08735958  1
  O  O211  1  0.43032081  0.85537834  0.57655099  1
  O  O212  1  0.77068743  0.36915847  0.08647750  1
  O  O213  1  0.79298072  0.35910647  0.58063342  1
  O  O214  1  0.75713707  0.86232491  0.07132188  1
  O  O215  1  0.78139823  0.84984660  0.58808331  1
  O  O216  1  0.26923310  0.36865172  0.08651469  1
  O  O217  1  0.28534194  0.39390288  0.59113955  1
  O  O218  1  0.28334023  0.90150866  0.08397392  1
  O  O219  1  0.27203544  0.89047090  0.58645287  1
  O  O220  1  0.60413051  0.38046158  0.08574979  1
  O  O221  1  0.59969753  0.39348915  0.57678383  1
  O  O222  1  0.60006037  0.87596261  0.08460691  1
  O  O223  1  0.62191708  0.89271087  0.57892507  1
  O  O224  1  0.93681289  0.37928105  0.08536618  1
  O  O225  1  0.94824518  0.41117397  0.57922381  1
  O  O226  1  0.93627827  0.87997418  0.05836034  1
  O  O227  1  0.94088502  0.87841091  0.58548522  1
  O  O228  1  0.10569391  0.13546202  0.08431735  1
  O  O229  1  0.12136321  0.13705281  0.57810155  1
  O  O230  1  0.09362051  0.60676000  0.08025990  1
  O  O231  1  0.11464522  0.63419000  0.58575300  1
  O  O232  1  0.43724254  0.12523248  0.08719109  1
  O  O233  1  0.44845105  0.15072409  0.59178412  1
  O  O234  1  0.44931460  0.62843883  0.07316584  1
  O  O235  1  0.45459344  0.64069010  0.57914884  1
  O  O236  1  0.77089262  0.14173333  0.08438803  1
  O  O237  1  0.76863304  0.11880278  0.58514572  1
  O  O238  1  0.77288483  0.63007470  0.08340993  1
  O  O239  1  0.76875026  0.65555269  0.57773375  1
  O  O240  1  0.05242640  0.10139567  0.41169159  1
  O  O241  1  0.06387351  0.12994564  0.91574760  1
  O  O242  1  0.06583695  0.62235309  0.41259729  1
  O  O243  1  0.05178953  0.61854141  0.91365222  1
  O  O244  1  0.37146315  0.09978189  0.42083119  1
  O  O245  1  0.39703419  0.10985036  0.91731343  1
  O  O246  1  0.39854727  0.62327902  0.41318207  1
  O  O247  1  0.37515931  0.60314935  0.91992235  1
  O  O248  1  0.71304875  0.12315930  0.42694442  1
  O  O249  1  0.72745130  0.10275389  0.91331431  1
  O  O250  1  0.73256941  0.61899616  0.41332238  1
  O  O251  1  0.72826848  0.62075860  0.91645087  1
  O  O252  1  0.21456101  0.37190348  0.42559142  1
  O  O253  1  0.21451529  0.37327780  0.92780351  1
  O  O254  1  0.23008840  0.86759000  0.41312948  1
  O  O255  1  0.21519650  0.87612235  0.92496096  1
  O  O256  1  0.55975625  0.37222839  0.41637832  1
  O  O257  1  0.54663142  0.35175642  0.92348764  1
  O  O258  1  0.56121729  0.85808030  0.41069161  1
  O  O259  1  0.56546271  0.86758611  0.91521446  1
  O  O260  1  0.87591232  0.36235769  0.42137296  1
  O  O261  1  0.89272112  0.37311058  0.91427755  1
  O  O262  1  0.89821940  0.86220458  0.41570273  1
  O  O263  1  0.88528952  0.86001321  0.90891715  1
  O  O264  1  0.05293425  0.40710414  0.41835827  1
  O  O265  1  0.05362404  0.38261166  0.91904841  1
  O  O266  1  0.06445928  0.87523614  0.41208014  1
  O  O267  1  0.04772719  0.88721930  0.91248842  1
  O  O268  1  0.40132558  0.38791774  0.42766866  1
  O  O269  1  0.39397679  0.39949359  0.92524680  1
  O  O270  1  0.39696455  0.87539125  0.41499899  1
  O  O271  1  0.40525172  0.88892847  0.92578555  1
  O  O272  1  0.71643821  0.39656112  0.41190179  1
  O  O273  1  0.73567758  0.39622085  0.92656156  1
  O  O274  1  0.73243919  0.86914447  0.42075177  1
  O  O275  1  0.72519449  0.89088429  0.91194200  1
  O  O276  1  0.21300055  0.13088343  0.41436327  1
  O  O277  1  0.23133544  0.11973290  0.91810272  1
  O  O278  1  0.23092670  0.63441664  0.41236265  1
  O  O279  1  0.21384583  0.63350194  0.91476124  1
  O  O280  1  0.55173727  0.15570975  0.42132857  1
  O  O281  1  0.56362695  0.13031052  0.91660423  1
  O  O282  1  0.56542072  0.62732745  0.41505180  1
  O  O283  1  0.56734220  0.65107247  0.92429753  1
  O  O284  1  0.90089163  0.14048071  0.42505573  1
  O  O285  1  0.89490453  0.12903833  0.91512413  1
  O  O286  1  0.89810213  0.62964733  0.41111279  1
  O  O287  1  0.88910611  0.64170673  0.91292752  1
  O  O288  1  0.17817200  0.00830232  0.08439908  1
  O  O289  1  0.18180938  0.00543383  0.58631148  1
  O  O290  1  0.18622029  0.49178685  0.08028996  1
  O  O291  1  0.16362436  0.49584624  0.58815353  1
  O  O292  1  0.52205764  0.00308471  0.08462645  1
  O  O293  1  0.48225798  0.01224103  0.58281347  1
  O  O294  1  0.51316808  0.49709133  0.08471868  1
  O  O295  1  0.50112139  0.50338679  0.58758241  1
  O  O296  1  0.83894302  0.01571587  0.07405432  1
  O  O297  1  0.82956759  -0.01218304  0.58651506  1
  O  O298  1  0.84003120  0.49737288  0.08364130  1
  O  O299  1  0.81813543  0.49891338  0.57413821  1
  O  O300  1  0.01457269  0.25376172  0.08613385  1
  O  O301  1  -0.01788827  0.25085871  0.57012326  1
  O  O302  1  0.01722930  0.73356718  0.06912635  1
  O  O303  1  0.02666926  0.75464482  0.58468816  1
  O  O304  1  0.35571580  0.24864132  0.08632542  1
  O  O305  1  0.33856402  0.25568614  0.59167984  1
  O  O306  1  0.34011275  0.76649071  0.07283823  1
  O  O307  1  0.31348996  0.75578137  0.58086489  1
  O  O308  1  0.67347402  0.25378205  0.08586454  1
  O  O309  1  0.66935998  0.23556703  0.57514799  1
  O  O310  1  0.66997671  0.74457388  0.08465543  1
  O  O311  1  0.65464608  0.75262028  0.58735440  1
  O  O312  1  0.15762388  -0.00548413  0.41193577  1
  O  O313  1  0.13802925  0.00331397  0.91708300  1
  O  O314  1  0.16552946  0.50743486  0.41530380  1
  O  O315  1  0.14302250  0.50291749  0.91798809  1
  O  O316  1  0.50455825  -0.01240466  0.42728151  1
  O  O317  1  0.50403431  -0.00005479  0.91540396  1
  O  O318  1  0.49077703  0.50328520  0.41581472  1
  O  O319  1  0.51979966  0.49204747  0.92229883  1
  O  O320  1  0.82389686  -0.01247646  0.42225810  1
  O  O321  1  0.83617142  -0.00315643  0.91105419  1
  O  O322  1  0.82736553  0.50145028  0.41248302  1
  O  O323  1  0.83404695  0.50832507  0.91713077  1
  O  O324  1  0.32455524  0.23730996  0.42568545  1
  O  O325  1  0.32644120  0.23741709  0.92818650  1
  O  O326  1  0.32279754  0.74965794  0.41366126  1
  O  O327  1  0.32492603  0.73921594  0.92330459  1
  O  O328  1  0.66299713  0.25946743  0.41481005  1
  O  O329  1  0.67780443  0.23553427  0.92528663  1
  O  O330  1  0.65806844  0.74427115  0.41527913  1
  O  O331  1  0.67448903  0.75594127  0.91373145  1
  O  O332  1  1.01715029  0.24078714  0.41708357  1
  O  O333  1  0.97903246  0.25168441  0.91585402  1
  O  O334  1  0.99125457  0.74727585  0.41347584  1
  O  O335  1  0.99232885  0.75184210  0.91246254  1
  O  O336  1  0.21056606  0.08695387  0.19551316  1
  O  O337  1  0.21262320  0.08463990  0.69596878  1
  O  O338  1  0.20727124  0.57687269  0.18928976  1
  O  O339  1  0.20952521  0.58207481  0.69584685  1
  O  O340  1  0.54474735  0.08632306  0.19641019  1
  O  O341  1  0.54152072  0.08449182  0.69697059  1
  O  O342  1  0.54599084  0.58358555  0.19138338  1
  O  O343  1  0.54475072  0.58677281  0.69490421  1
  O  O344  1  0.88077622  0.09318356  0.18996384  1
  O  O345  1  0.87508953  0.07667988  0.69333247  1
  O  O346  1  0.87605251  0.58114261  0.19242432  1
  O  O347  1  0.87733552  0.58677698  0.69920770  1
  O  O348  1  0.04696014  0.33885958  0.19522067  1
  O  O349  1  0.04475152  0.33294335  0.70029145  1
  O  O350  1  0.04626941  0.83218008  0.19476824  1
  O  O351  1  0.04539974  0.83528808  0.69516269  1
  O  O352  1  0.37797949  0.33078213  0.19646573  1
  O  O353  1  0.38169092  0.33473832  0.70007225  1
  O  O354  1  0.36749989  0.83531633  0.19139361  1
  O  O355  1  0.37394586  0.83486318  0.69280534  1
  O  O356  1  0.70832453  0.33545917  0.19665325  1
  O  O357  1  0.70067972  0.33240353  0.69727014  1
  O  O358  1  0.70973795  0.83110462  0.19141350  1
  O  O359  1  0.70854884  0.83413235  0.69370011  1
  O  O360  1  0.20788629  0.41429836  0.19438196  1
  O  O361  1  0.21325781  0.41892072  0.69686607  1
  O  O362  1  0.20964292  0.91962539  0.19133378  1
  O  O363  1  0.20733012  0.92010920  0.69629164  1
  O  O364  1  0.54445919  0.41330035  0.19598135  1
  O  O365  1  0.54239257  0.41987172  0.69581985  1
  O  O366  1  0.54849232  0.92426733  0.19611218  1
  O  O367  1  0.54227778  0.91700573  0.70029168  1
  O  O368  1  0.87518552  0.41800170  0.19453830  1
  O  O369  1  0.88054561  0.42753610  0.68872529  1
  O  O370  1  0.88204657  0.90791112  0.19397479  1
  O  O371  1  0.87804553  0.91215551  0.69497298  1
  O  O372  1  0.04549831  0.16498277  0.19463087  1
  O  O373  1  0.04588472  0.16388515  0.70014578  1
  O  O374  1  0.03508621  0.66333650  0.18730271  1
  O  O375  1  0.04368951  0.66819929  0.69220412  1
  O  O376  1  0.37582391  0.16736180  0.19690388  1
  O  O377  1  0.37882526  0.16868184  0.70017281  1
  O  O378  1  0.37876590  0.66771677  0.19394836  1
  O  O379  1  0.37550940  0.66822709  0.70353925  1
  O  O380  1  0.70487070  0.17022159  0.19535667  1
  O  O381  1  0.70883315  0.16303197  0.69306155  1
  O  O382  1  0.71277013  0.66310734  0.19377025  1
  O  O383  1  0.70808383  0.66941054  0.69396876  1
  O  O384  1  0.12318756  0.08008782  0.30251544  1
  O  O385  1  0.12318773  0.08213003  0.80669649  1
  O  O386  1  0.12311217  0.58342134  0.30266713  1
  O  O387  1  0.11810000  0.58415277  0.80444434  1
  O  O388  1  0.45566227  0.08323177  0.30112463  1
  O  O389  1  0.45891238  0.08270378  0.80678576  1
  O  O390  1  0.46163440  0.58286273  0.30378586  1
  O  O391  1  0.45855758  0.58352704  0.80222510  1
  O  O392  1  0.78397557  0.09242537  0.30194198  1
  O  O393  1  0.79251972  0.08002237  0.80345566  1
  O  O394  1  0.79238116  0.58371808  0.30264981  1
  O  O395  1  0.78816740  0.58814803  0.80529358  1
  O  O396  1  0.28778793  0.33331170  0.30074326  1
  O  O397  1  0.29066372  0.33235266  0.80393327  1
  O  O398  1  0.29065819  0.83368142  0.30315288  1
  O  O399  1  0.28801337  0.83459519  0.80056976  1
  O  O400  1  0.62123288  0.33643239  0.30525561  1
  O  O401  1  0.62371358  0.33302807  0.80304798  1
  O  O402  1  0.63569834  0.82930521  0.30582279  1
  O  O403  1  0.62559091  0.83438017  0.80440628  1
  O  O404  1  0.95296489  0.33623685  0.29978299  1
  O  O405  1  0.96245087  0.33234354  0.80624175  1
  O  O406  1  0.95793155  0.82932056  0.30349397  1
  O  O407  1  0.95553081  0.83260361  0.80225011  1
  O  O408  1  0.12469073  0.41974558  0.30829988  1
  O  O409  1  0.11966628  0.42152318  0.80978955  1
  O  O410  1  0.12639457  0.91400859  0.30180445  1
  O  O411  1  0.12150340  0.91800721  0.80751711  1
  O  O412  1  0.45304219  0.41382501  0.30900720  1
  O  O413  1  0.45946960  0.41592641  0.81144859  1
  O  O414  1  0.45378559  0.92222757  0.30857192  1
  O  O415  1  0.45707319  0.91659665  0.80800583  1
  O  O416  1  0.78958809  0.41771645  0.30512491  1
  O  O417  1  0.78729692  0.42752684  0.80848816  1
  O  O418  1  0.78806211  0.90589547  0.30860943  1
  O  O419  1  0.78923771  0.91585949  0.80162631  1
  O  O420  1  0.28791993  0.16439199  0.30899730  1
  O  O421  1  0.29251705  0.16327282  0.81051308  1
  O  O422  1  0.29104564  0.66842431  0.30223898  1
  O  O423  1  0.28512717  0.66515471  0.80862013  1
  O  O424  1  0.62147814  0.17024606  0.30991762  1
  O  O425  1  0.62590711  0.16297854  0.80783700  1
  O  O426  1  0.62712206  0.66402259  0.30429473  1
  O  O427  1  0.62563433  0.66975403  0.80740724  1
  O  O428  1  0.95548421  0.16249735  0.30716290  1
  O  O429  1  0.95449843  0.16357580  0.80577128  1
  O  O430  1  0.95878537  0.66544468  0.30184323  1
  O  O431  1  0.95595111  0.67002455  0.80324510  1
  F  F432  1  0.04652664  0.00099424  0.19612378  1
  F  F433  1  0.04594386  -0.00169155  0.70282466  1
  F  F434  1  0.04506526  0.49756628  0.20178621  1
  F  F435  1  0.04715479  0.50179063  0.70256946  1
  F  F436  1  0.37810066  0.00085474  0.20123659  1
  F  F437  1  0.37748802  0.00058628  0.70581945  1
  F  F438  1  0.37501146  0.49061540  0.19658657  1
  F  F439  1  0.37852360  0.49736769  0.70656962  1
  F  F440  1  0.69945395  0.00051690  0.19911465  1
  F  F441  1  0.71137807  -0.00056906  0.70144535  1
  F  F442  1  0.71353240  0.49897896  0.20023845  1
  F  F443  1  0.71056497  0.50298713  0.70250617  1
  F  F444  1  0.21154611  0.24740249  0.20148921  1
  F  F445  1  0.21773767  0.24255006  0.70275501  1
  F  F446  1  0.21326843  0.75210460  0.19664362  1
  F  F447  1  0.20800055  0.74945448  0.70311451  1
  F  F448  1  0.54368536  0.25050216  0.20502576  1
  F  F449  1  0.54384911  0.24772020  0.70565121  1
  F  F450  1  0.55236044  0.73877459  0.19740838  1
  F  F451  1  0.54405906  0.75068378  0.70413822  1
  F  F452  1  0.86678033  0.25079405  0.19827897  1
  F  F453  1  0.88533927  0.23695923  0.69807447  1
  F  F454  1  0.87915809  0.74645206  0.19889632  1
  F  F455  1  0.87881931  0.75125264  0.69972821  1
  F  F456  1  0.28534066  -0.00154764  0.29573159  1
  F  F457  1  0.28789266  0.00074084  0.80000449  1
  F  F458  1  0.28590467  0.49648280  0.30087026  1
  F  F459  1  0.28613864  0.50127421  0.80059788  1
  F  F460  1  0.62271053  -0.00027995  0.30193610  1
  F  F461  1  0.62380947  0.00097437  0.79865556  1
  F  F462  1  0.63075172  0.50142225  0.30046376  1
  F  F463  1  0.62242860  0.50252308  0.79786304  1
  F  F464  1  0.97125450  -0.00288345  0.29834960  1
  F  F465  1  0.95433439  -0.00158535  0.79706859  1
  F  F466  1  0.95458177  0.50357183  0.29618188  1
  F  F467  1  0.95477454  0.50054002  0.79832441  1
  F  F468  1  0.12539393  0.25042139  0.29960709  1
  F  F469  1  0.12050665  0.24146988  0.80686781  1
  F  F470  1  0.12010126  0.75183209  0.29801325  1
  F  F471  1  0.11845079  0.75043530  0.79754537  1
  F  F472  1  0.45348501  0.25099568  0.29999060  1
  F  F473  1  0.45619191  0.24834282  0.80253582  1
  F  F474  1  0.45193728  0.74054401  0.30139377  1
  F  F475  1  0.45580478  0.75471473  0.80021241  1
  F  F476  1  0.78561582  0.25279487  0.29922022  1
  F  F477  1  0.78601848  0.23667223  0.80108728  1
  F  F478  1  0.79085016  0.74646231  0.29462812  1
  F  F479  1  0.78833373  0.75114438  0.79596660  1
