# generated using pymatgen
data_K24Na3Li5Mg64Fe17Si79(O5F)48
_symmetry_space_group_name_H-M   'P 1'
_cell_length_a   16.09567045
_cell_length_b   18.59169310
_cell_length_c   20.55174205
_cell_angle_alpha   90.01349345
_cell_angle_beta   100.00082945
_cell_angle_gamma   89.99221784
_symmetry_Int_Tables_number   1
_chemical_formula_structural   K24Na3Li5Mg64Fe17Si79(O5F)48
_chemical_formula_sum   'K24 Na3 Li5 Mg64 Fe17 Si79 O240 F48'
_cell_volume   6056.57347207
_cell_formula_units_Z   1
loop_
 _symmetry_equiv_pos_site_id
 _symmetry_equiv_pos_as_xyz
  1  'x, y, z'
loop_
 _atom_site_type_symbol
 _atom_site_label
 _atom_site_symmetry_multiplicity
 _atom_site_fract_x
 _atom_site_fract_y
 _atom_site_fract_z
 _atom_site_occupancy
  K  K0  1  0.01330571  0.00135925  0.00527185  1
  K  K1  1  0.01433252  0.00288218  0.50680447  1
  K  K2  1  -0.00304038  0.49467851  -0.00090557  1
  K  K3  1  0.00000768  0.49220095  0.49872845  1
  K  K4  1  0.32481763  0.00676161  0.00177753  1
  K  K5  1  0.31461680  0.00773183  0.49029482  1
  K  K6  1  0.33133014  0.49390204  0.00218342  1
  K  K7  1  0.32739685  0.50367999  0.49680325  1
  K  K8  1  0.66904637  0.00593421  0.00472116  1
  K  K9  1  0.66832591  0.00416291  0.49867639  1
  K  K10  1  0.66718844  0.49393965  0.00666254  1
  K  K11  1  0.67467090  0.49826120  0.49998310  1
  K  K12  1  0.15946942  0.25492776  -0.00012086  1
  K  K13  1  0.15956574  0.25254927  0.49268482  1
  K  K14  1  0.16512871  0.75142382  0.00046230  1
  K  K15  1  0.17997474  0.74718462  0.50379189  1
  K  K16  1  0.50360854  0.26112267  0.00969213  1
  K  K17  1  0.49234081  0.25116538  0.49352451  1
  K  K18  1  0.49519858  0.74098083  -0.00032336  1
  K  K19  1  0.49846955  0.73933933  0.49862855  1
  K  K20  1  0.83752682  0.25364033  0.00318501  1
  K  K21  1  0.84302687  0.26046321  0.49385043  1
  K  K22  1  0.84564241  0.74650989  0.00293681  1
  K  K23  1  0.83275215  0.73983898  0.49866748  1
  Na  Na24  1  0.33521312  0.74844569  0.75069350  1
  Na  Na25  1  0.00209954  0.92011136  0.75337839  1
  Na  Na26  1  0.33232722  0.08259358  0.25662640  1
  Li  Li27  1  0.66665970  0.25487921  0.24804980  1
  Li  Li28  1  0.83461405  0.49438704  0.75274366  1
  Li  Li29  1  0.83745008  0.34269064  0.75509669  1
  Li  Li30  1  -0.00408054  0.41350318  0.25158322  1
  Li  Li31  1  0.66338697  0.57789466  0.24691717  1
  Mg  Mg32  1  0.33244918  0.24984732  0.25438430  1
  Mg  Mg33  1  0.33384720  0.74931090  0.24941341  1
  Mg  Mg34  1  0.50008109  0.00088311  0.74876325  1
  Mg  Mg35  1  0.83364068  0.00007466  0.24622686  1
  Mg  Mg36  1  0.50324293  0.49844754  0.24902209  1
  Mg  Mg37  1  0.16387758  0.49847781  0.25261242  1
  Mg  Mg38  1  0.67087008  0.25261550  0.75078360  1
  Mg  Mg39  1  0.66738224  0.74873902  0.74433222  1
  Mg  Mg40  1  -0.00261665  0.25287656  0.25054707  1
  Mg  Mg41  1  0.82946921  0.49755072  0.25049653  1
  Mg  Mg42  1  0.33200402  0.25064557  0.75362725  1
  Mg  Mg43  1  0.50087012  0.50014677  0.74862064  1
  Mg  Mg44  1  0.16621840  0.00198839  0.25058660  1
  Mg  Mg45  1  0.16692004  0.50137750  0.75252859  1
  Mg  Mg46  1  -0.00089147  0.74910803  0.74866183  1
  Mg  Mg47  1  0.00075714  0.74792096  0.24765425  1
  Mg  Mg48  1  0.66586650  0.74811890  0.24768622  1
  Mg  Mg49  1  0.16623638  0.00080162  0.75154874  1
  Mg  Mg50  1  -0.00374913  0.25210021  0.75314768  1
  Mg  Mg51  1  0.49979489  0.00079972  0.24993608  1
  Mg  Mg52  1  0.83452022  0.00128661  0.74977733  1
  Mg  Mg53  1  0.66543504  0.08607561  0.24765071  1
  Mg  Mg54  1  0.83453785  0.83226476  0.24765800  1
  Mg  Mg55  1  0.33218475  0.08526376  0.75194947  1
  Mg  Mg56  1  0.50297084  0.33371488  0.24871431  1
  Mg  Mg57  1  -0.00236943  0.58007878  0.24963901  1
  Mg  Mg58  1  0.50062917  0.83380613  0.74808766  1
  Mg  Mg59  1  0.50025911  0.16736882  0.74955108  1
  Mg  Mg60  1  0.16750287  0.83221427  0.75244124  1
  Mg  Mg61  1  0.16411500  0.16714369  0.25324672  1
  Mg  Mg62  1  0.83058231  0.33354849  0.24981947  1
  Mg  Mg63  1  0.67235866  0.41687722  0.74983709  1
  Mg  Mg64  1  0.49816785  0.83382627  0.24782766  1
  Mg  Mg65  1  0.16675665  0.16420907  0.75362539  1
  Mg  Mg66  1  0.66473430  0.41524818  0.24986425  1
  Mg  Mg67  1  0.00072167  0.08594590  0.25102957  1
  Mg  Mg68  1  0.16849586  0.66528324  0.74974702  1
  Mg  Mg69  1  0.33597475  0.41546024  0.25223313  1
  Mg  Mg70  1  0.50054227  0.33438745  0.75042118  1
  Mg  Mg71  1  0.16693414  0.83407975  0.24963109  1
  Mg  Mg72  1  0.16823981  0.66486998  0.25017871  1
  Mg  Mg73  1  0.16627779  0.33477943  0.75422058  1
  Mg  Mg74  1  0.66740903  0.91668122  0.74594959  1
  Mg  Mg75  1  0.33506274  0.58371743  0.25178349  1
  Mg  Mg76  1  0.83134015  0.66246460  0.74597040  1
  Mg  Mg77  1  0.82986192  0.16832111  0.24793883  1
  Mg  Mg78  1  0.33199531  0.41506681  0.75059450  1
  Mg  Mg79  1  0.67026147  0.58217199  0.74443999  1
  Mg  Mg80  1  0.50115928  0.66530641  0.74746651  1
  Mg  Mg81  1  0.16390237  0.33527310  0.25559253  1
  Mg  Mg82  1  0.83379246  0.83375849  0.74630998  1
  Mg  Mg83  1  0.50096159  0.66412240  0.24808278  1
  Mg  Mg84  1  0.00308638  0.08491752  0.75378761  1
  Mg  Mg85  1  0.33251828  0.91548164  0.24805500  1
  Mg  Mg86  1  0.83622427  0.16952453  0.75350342  1
  Mg  Mg87  1  0.33237317  0.58416895  0.74883680  1
  Mg  Mg88  1  -0.00276509  0.58237271  0.74880748  1
  Mg  Mg89  1  0.66678858  0.91556155  0.24701430  1
  Mg  Mg90  1  0.66762597  0.08577134  0.74936336  1
  Mg  Mg91  1  -0.00459308  0.41691305  0.75492124  1
  Mg  Mg92  1  0.82878867  0.66345918  0.24887189  1
  Mg  Mg93  1  0.50143765  0.16795833  0.25223795  1
  Mg  Mg94  1  0.00191993  0.91389684  0.24964802  1
  Mg  Mg95  1  0.33226685  0.91544488  0.74927588  1
  Fe  Fe96  1  0.31260062  0.33667592  0.89235243  1
  Fe  Fe97  1  0.35975270  0.83489594  0.10939287  1
  Fe  Fe98  1  0.52167574  0.41840354  0.10584272  1
  Fe  Fe99  1  0.96855114  0.33547157  0.89228489  1
  Fe  Fe100  1  0.19230899  0.08054908  0.61169057  1
  Fe  Fe101  1  0.03002159  0.83178189  0.10911984  1
  Fe  Fe102  1  0.31229620  0.66664790  0.39001697  1
  Fe  Fe103  1  0.30868351  0.17198063  0.39607654  1
  Fe  Fe104  1  0.97271067  0.33485492  0.38906720  1
  Fe  Fe105  1  0.19283771  0.58474350  0.60793037  1
  Fe  Fe106  1  0.31265115  0.66386405  0.89246011  1
  Fe  Fe107  1  0.69375103  0.66718889  0.60468174  1
  Fe  Fe108  1  0.69497991  0.33232126  0.10866981  1
  Fe  Fe109  1  0.48402637  0.41746722  0.38985582  1
  Fe  Fe110  1  0.02114885  0.17116260  0.11031239  1
  Fe  Fe111  1  0.14383229  0.08009795  0.89467098  1
  Fe  Fe112  1  0.13524085  0.08062517  0.39324810  1
  Si  Si113  1  0.63859881  0.33212264  0.88449441  1
  Si  Si114  1  0.69571775  0.16895267  0.61479411  1
  Si  Si115  1  0.85422910  0.58381789  0.11380125  1
  Si  Si116  1  0.80304692  0.08188903  0.88452834  1
  Si  Si117  1  0.31502414  0.83602950  0.88743586  1
  Si  Si118  1  0.64054325  0.67272444  0.38184783  1
  Si  Si119  1  0.97282547  0.82886077  0.88379330  1
  Si  Si120  1  0.35383136  0.32718106  0.11383576  1
  Si  Si121  1  0.13723400  0.58714263  0.38675421  1
  Si  Si122  1  0.64074232  0.66976849  0.88197160  1
  Si  Si123  1  0.47809310  0.91949537  0.88427819  1
  Si  Si124  1  0.35282740  0.66614450  0.11243093  1
  Si  Si125  1  0.64174068  0.83471770  0.88183659  1
  Si  Si126  1  0.35815530  0.33130010  0.61548841  1
  Si  Si127  1  0.36862564  0.66602361  0.61125214  1
  Si  Si128  1  0.52797365  0.57763097  0.61025615  1
  Si  Si129  1  0.19066537  0.08811858  0.11530421  1
  Si  Si130  1  0.68898251  0.83980095  0.60770225  1
  Si  Si131  1  0.85861957  0.91459991  0.11161228  1
  Si  Si132  1  0.68996042  0.66949113  0.11303618  1
  Si  Si133  1  0.80169889  0.41828526  0.38909694  1
  Si  Si134  1  0.48445335  0.58376044  0.38770317  1
  Si  Si135  1  0.96849846  0.66415577  0.88429248  1
  Si  Si136  1  0.14713396  0.90910818  0.88935715  1
  Si  Si137  1  0.19507520  0.92350454  0.11125755  1
  Si  Si138  1  0.36350607  0.83498398  0.61372418  1
  Si  Si139  1  0.80232101  0.58451765  0.88387938  1
  Si  Si140  1  0.47981354  0.91919548  0.38584509  1
  Si  Si141  1  0.64265788  0.32648085  0.38799476  1
  Si  Si142  1  0.68962231  0.16149010  0.11107221  1
  Si  Si143  1  0.52053079  0.58848854  0.11092178  1
  Si  Si144  1  0.69465621  0.83354658  0.11293525  1
  Si  Si145  1  0.81052364  0.91630009  0.38330266  1
  Si  Si146  1  0.31044649  0.34335516  0.39191544  1
  Si  Si147  1  0.85963661  0.08538629  0.61561809  1
  Si  Si148  1  0.36340758  0.16664489  0.61521507  1
  Si  Si149  1  0.96720843  0.66239969  0.38374290  1
  Si  Si150  1  0.52377715  0.08087956  0.11405092  1
  Si  Si151  1  0.97061304  0.16311721  0.89120808  1
  Si  Si152  1  0.47990895  0.41942560  0.88479447  1
  Si  Si153  1  0.19143715  0.41250621  0.11765705  1
  Si  Si154  1  0.85697445  0.92002062  0.61343539  1
  Si  Si155  1  0.53016681  0.91530330  0.11128737  1
  Si  Si156  1  0.47820483  0.08310225  0.88504749  1
  Si  Si157  1  0.31455579  0.83579963  0.38697925  1
  Si  Si158  1  0.52340793  0.92326198  0.61169517  1
  Si  Si159  1  0.02307583  0.16952384  0.61559450  1
  Si  Si160  1  0.69360667  0.33455180  0.61562428  1
  Si  Si161  1  0.18953672  0.90773168  0.61286294  1
  Si  Si162  1  0.02278385  0.33982614  0.11687043  1
  Si  Si163  1  0.85993268  0.41763292  0.61754661  1
  Si  Si164  1  0.02102759  0.83047359  0.61601487  1
  Si  Si165  1  0.86009162  0.42035803  0.11451716  1
  Si  Si166  1  0.14161590  0.42128561  0.38879351  1
  Si  Si167  1  0.13931373  0.42161955  0.89079719  1
  Si  Si168  1  0.14213794  0.90884647  0.38831928  1
  Si  Si169  1  0.02452374  0.66000015  0.11194471  1
  Si  Si170  1  0.18943285  0.41329497  0.61307482  1
  Si  Si171  1  0.52445225  0.41270249  0.61448447  1
  Si  Si172  1  0.13786700  0.58797374  0.88788230  1
  Si  Si173  1  0.85469552  0.07910667  0.11163186  1
  Si  Si174  1  0.64072845  0.16740643  0.88448607  1
  Si  Si175  1  0.80295439  0.08050877  0.38305729  1
  Si  Si176  1  0.02473911  0.66839222  0.61217670  1
  Si  Si177  1  0.80879189  0.91598667  0.88365743  1
  Si  Si178  1  0.96473536  0.16298975  0.38889051  1
  Si  Si179  1  0.36056642  0.16412235  0.11805021  1
  Si  Si180  1  0.79863160  0.41966745  0.88893377  1
  Si  Si181  1  0.64317493  0.83577265  0.38358908  1
  Si  Si182  1  0.31683056  0.16691426  0.89243262  1
  Si  Si183  1  0.80030005  0.58343183  0.38272102  1
  Si  Si184  1  0.64281635  0.16309208  0.38468029  1
  Si  Si185  1  0.97303013  0.82768156  0.38512854  1
  Si  Si186  1  0.02359580  0.33335017  0.61770802  1
  Si  Si187  1  0.48249731  0.58011001  0.88536391  1
  Si  Si188  1  0.19214478  0.57687192  0.11573868  1
  Si  Si189  1  0.48185373  0.08277318  0.38968047  1
  Si  Si190  1  0.52957268  0.08844508  0.61473744  1
  Si  Si191  1  0.86461540  0.58206205  0.61046254  1
  O  O192  1  0.28173460  0.10944622  0.09205971  1
  O  O193  1  0.29088999  0.11253980  0.58233136  1
  O  O194  1  0.27350130  0.60962485  0.08708012  1
  O  O195  1  0.28340151  0.62772041  0.57445057  1
  O  O196  1  0.60503406  0.11030411  0.08357393  1
  O  O197  1  0.61117277  0.12065755  0.58573441  1
  O  O198  1  0.60285368  0.62655329  0.08357584  1
  O  O199  1  0.60508315  0.60306834  0.57478367  1
  O  O200  1  0.93159146  0.10617038  0.07707433  1
  O  O201  1  0.93629797  0.12290128  0.58596028  1
  O  O202  1  0.93666458  0.61401355  0.08438306  1
  O  O203  1  0.94895753  0.61137851  0.58221010  1
  O  O204  1  0.10591386  0.36885534  0.08658990  1
  O  O205  1  0.10543861  0.36222002  0.58696682  1
  O  O206  1  0.12067431  0.87008283  0.07502770  1
  O  O207  1  0.10311256  0.85943064  0.58513947  1
  O  O208  1  0.42524352  0.36048595  0.07669523  1
  O  O209  1  0.43945163  0.36483724  0.58643784  1
  O  O210  1  0.45896474  0.86047048  0.07626665  1
  O  O211  1  0.43618423  0.88011983  0.58132646  1
  O  O212  1  0.79077299  0.36626201  0.07487846  1
  O  O213  1  0.77189932  0.37262791  0.58645311  1
  O  O214  1  0.77760170  0.86080986  0.08386144  1
  O  O215  1  0.76862355  0.87928190  0.57947572  1
  O  O216  1  0.26647992  0.37313308  0.08670237  1
  O  O217  1  0.27151864  0.37529309  0.58672137  1
  O  O218  1  0.28070603  0.90673892  0.08205819  1
  O  O219  1  0.26862494  0.86649185  0.58469223  1
  O  O220  1  0.60540977  0.38417058  0.06277261  1
  O  O221  1  0.60475001  0.37728181  0.58518865  1
  O  O222  1  0.61883969  0.89054939  0.08524681  1
  O  O223  1  0.60490398  0.89166473  0.58229242  1
  O  O224  1  0.95199752  0.40319125  0.09260774  1
  O  O225  1  0.93890562  0.38052022  0.58702766  1
  O  O226  1  0.93424445  0.88846677  0.07524457  1
  O  O227  1  0.93860598  0.88326789  0.58745243  1
  O  O228  1  0.11945539  0.14274039  0.07796622  1
  O  O229  1  0.09754724  0.13828794  0.58022192  1
  O  O230  1  0.10383995  0.61926794  0.08500602  1
  O  O231  1  0.10416359  0.64931161  0.57709036  1
  O  O232  1  0.44030507  0.12985688  0.08554922  1
  O  O233  1  0.45144757  0.14237893  0.58859295  1
  O  O234  1  0.43808886  0.64115003  0.08368969  1
  O  O235  1  0.44742282  0.62953027  0.58076744  1
  O  O236  1  0.76762831  0.12292790  0.08076571  1
  O  O237  1  0.77223857  0.12935858  0.58491675  1
  O  O238  1  0.77086809  0.63434054  0.08345254  1
  O  O239  1  0.78689752  0.63019959  0.57189083  1
  O  O240  1  0.03262087  0.10278977  0.42022723  1
  O  O241  1  0.04404975  0.10761869  0.92284203  1
  O  O242  1  0.05017953  0.61442705  0.41326080  1
  O  O243  1  0.05090145  0.61589875  0.91473424  1
  O  O244  1  0.40428187  0.10915820  0.42356563  1
  O  O245  1  0.39658642  0.10840463  0.91547168  1
  O  O246  1  0.40374083  0.60581167  0.42169429  1
  O  O247  1  0.40562187  0.60077855  0.92256564  1
  O  O248  1  0.71892477  0.10481371  0.41292114  1
  O  O249  1  0.72009798  0.11373003  0.91285713  1
  O  O250  1  0.72455770  0.62529258  0.41238189  1
  O  O251  1  0.72740533  0.62735586  0.91436652  1
  O  O252  1  0.22515989  0.37311136  0.41908728  1
  O  O253  1  0.21860148  0.37182904  0.92466967  1
  O  O254  1  0.22998417  0.86344662  0.41546840  1
  O  O255  1  0.23111095  0.85955642  0.91922098  1
  O  O256  1  0.56539943  0.34750449  0.42569747  1
  O  O257  1  0.55288938  0.35792082  0.91031791  1
  O  O258  1  0.56294407  0.86770335  0.41474400  1
  O  O259  1  0.56288028  0.87058129  0.91209830  1
  O  O260  1  0.88639311  0.37987793  0.42711081  1
  O  O261  1  0.87797424  0.37540415  0.92795422  1
  O  O262  1  0.89499111  0.86877140  0.41380187  1
  O  O263  1  0.89561336  0.87150823  0.91313631  1
  O  O264  1  0.06637259  0.39185441  0.42440936  1
  O  O265  1  0.05814226  0.39851334  0.92290737  1
  O  O266  1  0.06378411  0.86433436  0.41508844  1
  O  O267  1  0.06312235  0.86810473  0.91141333  1
  O  O268  1  0.38337952  0.40135275  0.42164702  1
  O  O269  1  0.40015853  0.40374781  0.91992756  1
  O  O270  1  0.39483999  0.89212837  0.41298255  1
  O  O271  1  0.39516088  0.89357525  0.91372156  1
  O  O272  1  0.72315046  0.37959600  0.41815776  1
  O  O273  1  0.71392077  0.38669882  0.91586468  1
  O  O274  1  0.72835356  0.88401247  0.41232586  1
  O  O275  1  0.72898925  0.87883807  0.91234086  1
  O  O276  1  0.22110775  0.13835079  0.43608665  1
  O  O277  1  0.23919314  0.13794726  0.92610014  1
  O  O278  1  0.21197322  0.64028640  0.42005036  1
  O  O279  1  0.21223661  0.64016644  0.92409913  1
  O  O280  1  0.56485304  0.13381732  0.42047103  1
  O  O281  1  0.55939279  0.13511999  0.91375336  1
  O  O282  1  0.55866962  0.64638587  0.41227168  1
  O  O283  1  0.56230587  0.63567244  0.91255917  1
  O  O284  1  0.87588404  0.13662467  0.41450244  1
  O  O285  1  0.88230179  0.13193304  0.91471411  1
  O  O286  1  0.88794324  0.62745116  0.41380282  1
  O  O287  1  0.88950775  0.62872565  0.91462877  1
  O  O288  1  0.16706597  0.00617707  0.08670474  1
  O  O289  1  0.17522381  -0.01441653  0.57826730  1
  O  O290  1  0.18070761  0.49462863  0.08669873  1
  O  O291  1  0.17256674  0.48961279  0.57553985  1
  O  O292  1  0.50865838  -0.00163416  0.08416200  1
  O  O293  1  0.51150087  0.00690136  0.58466012  1
  O  O294  1  0.50136540  0.51336869  0.07253085  1
  O  O295  1  0.50441053  0.49391506  0.58531497  1
  O  O296  1  0.82827760  -0.00431555  0.08657448  1
  O  O297  1  0.84795856  0.00320399  0.58442175  1
  O  O298  1  0.83512321  0.50307379  0.08424313  1
  O  O299  1  0.84882712  0.49813444  0.58346681  1
  O  O300  1  -0.00842629  0.26517425  0.07959930  1
  O  O301  1  0.00183079  0.25223579  0.58825624  1
  O  O302  1  0.01048574  0.73712136  0.07526657  1
  O  O303  1  -0.00772157  0.75048326  0.58538555  1
  O  O304  1  0.33612178  0.24378400  0.08530414  1
  O  O305  1  0.34539440  0.24912118  0.58706535  1
  O  O306  1  0.32286891  0.74256992  0.07871588  1
  O  O307  1  0.36746284  0.75203729  0.58745658  1
  O  O308  1  0.67169546  0.23772645  0.07471563  1
  O  O309  1  0.68359943  0.25113933  0.58549888  1
  O  O310  1  0.67451756  0.75228638  0.08225256  1
  O  O311  1  0.67142677  0.76283532  0.57203464  1
  O  O312  1  0.15182656  -0.01531241  0.42576842  1
  O  O313  1  0.16002748  -0.01486111  0.92787992  1
  O  O314  1  0.15952228  0.50556983  0.41510416  1
  O  O315  1  0.16023034  0.50607944  0.91550677  1
  O  O316  1  0.50681192  -0.00114049  0.41709561  1
  O  O317  1  0.50383050  0.00121412  0.91241311  1
  O  O318  1  0.52576800  0.50907680  0.41831492  1
  O  O319  1  0.52022529  0.49912618  0.90757286  1
  O  O320  1  0.82592912  -0.00176535  0.41260498  1
  O  O321  1  0.81643167  -0.00136999  0.91289105  1
  O  O322  1  0.80462435  0.50325059  0.41583243  1
  O  O323  1  0.80709629  0.50431773  0.91684068  1
  O  O324  1  0.33590162  0.26636294  0.42747904  1
  O  O325  1  0.35068823  0.24438727  0.92233690  1
  O  O326  1  0.34302169  0.76010977  0.42272238  1
  O  O327  1  0.34797143  0.75907802  0.91793405  1
  O  O328  1  0.67235231  0.24306113  0.41366289  1
  O  O329  1  0.66004998  0.24926961  0.91249209  1
  O  O330  1  0.66310599  0.75457375  0.41266933  1
  O  O331  1  0.65379413  0.75278286  0.91078613  1
  O  O332  1  0.98735975  0.24054098  0.42391723  1
  O  O333  1  0.98840092  0.24127790  0.92518963  1
  O  O334  1  0.97604641  0.74506246  0.41417320  1
  O  O335  1  0.97823400  0.74670166  0.91543611  1
  O  O336  1  0.19960920  0.08561598  0.19464338  1
  O  O337  1  0.21462334  0.08375439  0.70296797  1
  O  O338  1  0.20827297  0.58068111  0.19583792  1
  O  O339  1  0.20982593  0.58090464  0.69907289  1
  O  O340  1  0.54307440  0.08110207  0.19435404  1
  O  O341  1  0.54644693  0.08477394  0.69530628  1
  O  O342  1  0.53783569  0.58518403  0.19107354  1
  O  O343  1  0.54576565  0.58122115  0.69140091  1
  O  O344  1  0.87428174  0.08160109  0.19282131  1
  O  O345  1  0.87438169  0.08420620  0.69572449  1
  O  O346  1  0.87331035  0.58540506  0.19383958  1
  O  O347  1  0.87921379  0.58773786  0.69030563  1
  O  O348  1  0.04598849  0.33301136  0.19638724  1
  O  O349  1  0.04425688  0.33479104  0.69776111  1
  O  O350  1  0.04435281  0.83122033  0.20080675  1
  O  O351  1  0.04341319  0.82819104  0.69512456  1
  O  O352  1  0.37338620  0.33056721  0.19448823  1
  O  O353  1  0.37864601  0.33231758  0.69590244  1
  O  O354  1  0.37895187  0.83219850  0.20127656  1
  O  O355  1  0.38441470  0.84255206  0.69292832  1
  O  O356  1  0.71175087  0.33578122  0.19906594  1
  O  O357  1  0.70694740  0.33278300  0.69504438  1
  O  O358  1  0.71131411  0.83262227  0.19363477  1
  O  O359  1  0.70785864  0.83658963  0.68893262  1
  O  O360  1  0.21010442  0.41602479  0.19788425  1
  O  O361  1  0.20795080  0.41617513  0.69389471  1
  O  O362  1  0.20807374  0.91688640  0.19280968  1
  O  O363  1  0.20969972  0.91269004  0.69357523  1
  O  O364  1  0.54520057  0.41623260  0.19732679  1
  O  O365  1  0.54384413  0.41402965  0.69495182  1
  O  O366  1  0.54634772  0.91499805  0.19232946  1
  O  O367  1  0.54399136  0.92023177  0.69233965  1
  O  O368  1  0.86857876  0.41972232  0.19403482  1
  O  O369  1  0.87827597  0.41854606  0.69610330  1
  O  O370  1  0.87658805  0.91291667  0.19282949  1
  O  O371  1  0.86572223  0.91876276  0.69259464  1
  O  O372  1  0.04011541  0.16911597  0.20171374  1
  O  O373  1  0.04088049  0.16849636  0.69628930  1
  O  O374  1  0.04175604  0.66404251  0.19287456  1
  O  O375  1  0.04136481  0.66614125  0.69326634  1
  O  O376  1  0.38375067  0.17099024  0.19688121  1
  O  O377  1  0.37981438  0.16718015  0.69647008  1
  O  O378  1  0.37575674  0.66618855  0.19331094  1
  O  O379  1  0.38567484  0.65886710  0.69090754  1
  O  O380  1  0.71061253  0.15968920  0.19106715  1
  O  O381  1  0.71076629  0.16721577  0.69502450  1
  O  O382  1  0.71143912  0.67207426  0.19234181  1
  O  O383  1  0.71130174  0.66753846  0.69634690  1
  O  O384  1  0.11994623  0.08070614  0.30170869  1
  O  O385  1  0.12258645  0.08264903  0.80308844  1
  O  O386  1  0.12045085  0.58619698  0.30577575  1
  O  O387  1  0.11908827  0.58655819  0.80685743  1
  O  O388  1  0.47040477  0.08182217  0.30994901  1
  O  O389  1  0.46068228  0.08378180  0.80429106  1
  O  O390  1  0.46029838  0.58462989  0.30608571  1
  O  O391  1  0.46096029  0.58328714  0.80415380  1
  O  O392  1  0.78733568  0.07920479  0.30276143  1
  O  O393  1  0.78580677  0.08212213  0.80397620  1
  O  O394  1  0.78875345  0.58422214  0.30351431  1
  O  O395  1  0.78660126  0.58620714  0.80439903  1
  O  O396  1  0.29096082  0.33825553  0.31035476  1
  O  O397  1  0.28906087  0.33400352  0.80018294  1
  O  O398  1  0.29179653  0.83246956  0.30625402  1
  O  O399  1  0.29135977  0.84100365  0.80762192  1
  O  O400  1  0.62152436  0.33309213  0.30859637  1
  O  O401  1  0.62310709  0.33219885  0.80393004  1
  O  O402  1  0.62496287  0.83540470  0.30318879  1
  O  O403  1  0.62555962  0.83628728  0.80127553  1
  O  O404  1  0.94996784  0.33209148  0.29909350  1
  O  O405  1  0.95553180  0.33325432  0.80192113  1
  O  O406  1  0.95370762  0.82998591  0.30485781  1
  O  O407  1  0.94943790  0.82562710  0.80470069  1
  O  O408  1  0.12577138  0.41945700  0.30859707  1
  O  O409  1  0.12403259  0.41851497  0.80899196  1
  O  O410  1  0.12235798  0.91253280  0.30756743  1
  O  O411  1  0.13523467  0.91535320  0.80950657  1
  O  O412  1  0.45600778  0.41611709  0.29854330  1
  O  O413  1  0.45869799  0.41652326  0.80354147  1
  O  O414  1  0.46340216  0.91712923  0.30579972  1
  O  O415  1  0.46106876  0.91828256  0.80377426  1
  O  O416  1  0.78830929  0.41771083  0.30888394  1
  O  O417  1  0.78428555  0.41751383  0.80954071  1
  O  O418  1  0.79157835  0.91465741  0.30287297  1
  O  O419  1  0.78904889  0.91644198  0.80313691  1
  O  O420  1  0.28229010  0.17553988  0.30597769  1
  O  O421  1  0.29619557  0.16695987  0.81057782  1
  O  O422  1  0.28934801  0.66677894  0.29836077  1
  O  O423  1  0.28648207  0.65824523  0.80295934  1
  O  O424  1  0.62241291  0.16080180  0.30530459  1
  O  O425  1  0.62261298  0.16628044  0.80393017  1
  O  O426  1  0.62198392  0.67250868  0.30243440  1
  O  O427  1  0.62417230  0.66762675  0.80173350  1
  O  O428  1  0.94921705  0.16369239  0.30756821  1
  O  O429  1  0.95512545  0.16570445  0.80942058  1
  O  O430  1  0.95260463  0.66619937  0.30338693  1
  O  O431  1  0.95228418  0.66622568  0.80394029  1
  F  F432  1  0.04204844  -0.00351917  0.20233696  1
  F  F433  1  0.04758071  0.00864094  0.69791487  1
  F  F434  1  0.04732428  0.50478278  0.20184151  1
  F  F435  1  0.04594183  0.49888208  0.70444913  1
  F  F436  1  0.38493171  -0.00795302  0.20130167  1
  F  F437  1  0.38086881  0.00182175  0.70233726  1
  F  F438  1  0.37645551  0.50187839  0.20185544  1
  F  F439  1  0.37965281  0.49770402  0.70192966  1
  F  F440  1  0.71203196  -0.00260572  0.19966638  1
  F  F441  1  0.71083383  0.00201392  0.69995830  1
  F  F442  1  0.71233547  0.49818243  0.20042525  1
  F  F443  1  0.70752292  0.49785607  0.69763466  1
  F  F444  1  0.21032926  0.25498179  0.20550303  1
  F  F445  1  0.21141731  0.24765059  0.70436667  1
  F  F446  1  0.20932252  0.75067538  0.20113373  1
  F  F447  1  0.20074319  0.75095679  0.69999778  1
  F  F448  1  0.54222586  0.24844892  0.20188721  1
  F  F449  1  0.54718640  0.24948265  0.70177276  1
  F  F450  1  0.54589435  0.75164097  0.19973586  1
  F  F451  1  0.54713140  0.75246375  0.69733073  1
  F  F452  1  0.87555850  0.24739538  0.19893942  1
  F  F453  1  0.87900650  0.24239482  0.69979468  1
  F  F454  1  0.87749301  0.74812687  0.20054147  1
  F  F455  1  0.87624511  0.75000378  0.69901444  1
  F  F456  1  0.28270777  -0.01282876  0.30173946  1
  F  F457  1  0.29329173  -0.00119918  0.79873838  1
  F  F458  1  0.28709512  0.50141663  0.29800646  1
  F  F459  1  0.28986012  0.49737237  0.79795972  1
  F  F460  1  0.62446676  -0.00256354  0.29557075  1
  F  F461  1  0.62266720  -0.00013379  0.79629350  1
  F  F462  1  0.62197763  0.49980120  0.29788870  1
  F  F463  1  0.62177137  0.50084810  0.79483012  1
  F  F464  1  0.95112613  -0.00425387  0.29620417  1
  F  F465  1  0.94703252  0.00886423  0.80214767  1
  F  F466  1  0.94814194  0.50645119  0.29972985  1
  F  F467  1  0.95628614  0.50367753  0.79994199  1
  F  F468  1  0.11802623  0.25297168  0.30272160  1
  F  F469  1  0.12082460  0.24952391  0.79911629  1
  F  F470  1  0.12069239  0.74699781  0.29837262  1
  F  F471  1  0.11816759  0.74916767  0.79961143  1
  F  F472  1  0.45561922  0.25044556  0.30045501  1
  F  F473  1  0.45755095  0.24960988  0.79779632  1
  F  F474  1  0.45865635  0.74855540  0.29767670  1
  F  F475  1  0.47258984  0.75087879  0.79906301  1
  F  F476  1  0.79019196  0.24742015  0.29810075  1
  F  F477  1  0.78358185  0.24271508  0.80278894  1
  F  F478  1  0.78791961  0.75109190  0.29744780  1
  F  F479  1  0.78587738  0.75363024  0.79547591  1
