# generated using pymatgen
data_K24Na3Li5Mg64Fe17Si79(O5F)48
_symmetry_space_group_name_H-M   'P 1'
_cell_length_a   16.09966101
_cell_length_b   18.60649244
_cell_length_c   20.57761340
_cell_angle_alpha   90.02336425
_cell_angle_beta   100.02581064
_cell_angle_gamma   89.94263951
_symmetry_Int_Tables_number   1
_chemical_formula_structural   K24Na3Li5Mg64Fe17Si79(O5F)48
_chemical_formula_sum   'K24 Na3 Li5 Mg64 Fe17 Si79 O240 F48'
_cell_volume   6070.05928993
_cell_formula_units_Z   1
loop_
 _symmetry_equiv_pos_site_id
 _symmetry_equiv_pos_as_xyz
  1  'x, y, z'
loop_
 _atom_site_type_symbol
 _atom_site_label
 _atom_site_symmetry_multiplicity
 _atom_site_fract_x
 _atom_site_fract_y
 _atom_site_fract_z
 _atom_site_occupancy
  K  K0  1  0.00128578  0.00912610  0.00444714  1
  K  K1  1  0.00071692  0.00430683  0.49757257  1
  K  K2  1  -0.00608842  0.49874513  -0.00216877  1
  K  K3  1  -0.00050498  0.49498363  0.50486973  1
  K  K4  1  0.32824598  -0.00130496  0.01126839  1
  K  K5  1  0.33832807  0.01268429  0.49940237  1
  K  K6  1  0.33488551  0.49254751  -0.00061383  1
  K  K7  1  0.33146737  0.49263716  0.49881478  1
  K  K8  1  0.67664793  0.00597591  0.00158947  1
  K  K9  1  0.66207826  0.00437245  0.49309274  1
  K  K10  1  0.65867736  0.48647053  -0.00004733  1
  K  K11  1  0.66694388  0.49532725  0.49900827  1
  K  K12  1  0.16770192  0.24597430  0.00063532  1
  K  K13  1  0.17566437  0.24056232  0.49867936  1
  K  K14  1  0.18053000  0.76059117  0.00310773  1
  K  K15  1  0.15344776  0.75938362  0.50044366  1
  K  K16  1  0.48581875  0.25603370  -0.00547907  1
  K  K17  1  0.49309966  0.23638638  0.49047951  1
  K  K18  1  0.49619102  0.76134392  0.00582062  1
  K  K19  1  0.51247166  0.74671478  0.49808156  1
  K  K20  1  0.83419611  0.24541101  0.00529963  1
  K  K21  1  0.83514385  0.25043105  0.49729790  1
  K  K22  1  0.83142558  0.75458340  -0.00454047  1
  K  K23  1  0.82625923  0.76392790  0.49770195  1
  Na  Na24  1  -0.00224670  0.24900610  0.23987930  1
  Na  Na25  1  0.83938916  0.32754184  0.24804975  1
  Na  Na26  1  -0.00195753  0.91766091  0.75168862  1
  Li  Li27  1  0.00473983  0.25150141  0.75762202  1
  Li  Li28  1  0.33178272  0.24895166  0.75221237  1
  Li  Li29  1  0.83548725  0.66699066  0.74922136  1
  Li  Li30  1  -0.00063539  0.08821404  0.24680093  1
  Li  Li31  1  0.49962521  0.83960526  0.25023046  1
  Mg  Mg32  1  0.50185085  0.49793344  0.25287325  1
  Mg  Mg33  1  0.66997057  0.24959784  0.25530953  1
  Mg  Mg34  1  0.49791545  -0.00225942  0.24930153  1
  Mg  Mg35  1  0.16254264  0.00307328  0.24634437  1
  Mg  Mg36  1  -0.00223283  0.75102131  0.25030513  1
  Mg  Mg37  1  -0.00373998  0.74773706  0.74744116  1
  Mg  Mg38  1  0.16657074  0.49872823  0.75113035  1
  Mg  Mg39  1  0.83414605  -0.00096589  0.25143097  1
  Mg  Mg40  1  0.67147444  0.74961736  0.75041350  1
  Mg  Mg41  1  0.83388680  0.50006999  0.74996341  1
  Mg  Mg42  1  0.33251628  0.24806189  0.25197299  1
  Mg  Mg43  1  0.16597844  0.49902851  0.24772382  1
  Mg  Mg44  1  0.49911108  0.49873182  0.75235220  1
  Mg  Mg45  1  0.50099344  0.00131506  0.74605780  1
  Mg  Mg46  1  0.66540908  0.24949165  0.75062293  1
  Mg  Mg47  1  0.83485401  0.00078280  0.75390794  1
  Mg  Mg48  1  0.66089160  0.75343924  0.24751621  1
  Mg  Mg49  1  0.33652943  0.75197109  0.24952938  1
  Mg  Mg50  1  0.83391903  0.49834889  0.25078342  1
  Mg  Mg51  1  0.33304675  0.74966848  0.74922682  1
  Mg  Mg52  1  0.16534158  0.00037577  0.74851910  1
  Mg  Mg53  1  0.00209890  0.41289354  0.75319495  1
  Mg  Mg54  1  0.83612328  0.16436990  0.24741291  1
  Mg  Mg55  1  0.50010811  0.66731763  0.24995506  1
  Mg  Mg56  1  0.67085188  0.58455395  0.75037742  1
  Mg  Mg57  1  0.16220718  0.83338972  0.74594161  1
  Mg  Mg58  1  0.50193720  0.83391402  0.74901355  1
  Mg  Mg59  1  0.33371274  0.58502357  0.24886594  1
  Mg  Mg60  1  0.82900990  0.66745712  0.24810865  1
  Mg  Mg61  1  0.49710060  0.16684845  0.74891475  1
  Mg  Mg62  1  0.16907227  0.33021580  0.75360597  1
  Mg  Mg63  1  -0.00331434  0.58425774  0.74584333  1
  Mg  Mg64  1  0.33373590  0.58354901  0.75059152  1
  Mg  Mg65  1  -0.00087166  0.41630372  0.24691044  1
  Mg  Mg66  1  0.83638491  0.33206877  0.75216049  1
  Mg  Mg67  1  0.33400291  0.41581097  0.25202192  1
  Mg  Mg68  1  0.66366786  0.91474671  0.24774904  1
  Mg  Mg69  1  0.16605289  0.66684406  0.24900852  1
  Mg  Mg70  1  0.83569202  0.83293373  0.75240601  1
  Mg  Mg71  1  0.00193846  0.08627307  0.75211543  1
  Mg  Mg72  1  0.33427268  0.91472986  0.24834519  1
  Mg  Mg73  1  0.16928812  0.16790841  0.75263567  1
  Mg  Mg74  1  0.33243376  0.08330915  0.24951572  1
  Mg  Mg75  1  0.49445655  0.33313821  0.75203185  1
  Mg  Mg76  1  -0.00201661  0.58474086  0.24813593  1
  Mg  Mg77  1  0.50057763  0.16452802  0.25414513  1
  Mg  Mg78  1  0.16557444  0.83522690  0.24721790  1
  Mg  Mg79  1  0.50266510  0.66563895  0.75170740  1
  Mg  Mg80  1  0.33260242  0.91656091  0.74743944  1
  Mg  Mg81  1  0.66822713  0.08398316  0.25356849  1
  Mg  Mg82  1  0.82783309  0.83549047  0.25004535  1
  Mg  Mg83  1  0.67053331  0.91601079  0.75018964  1
  Mg  Mg84  1  0.33367883  0.08713495  0.74910442  1
  Mg  Mg85  1  0.16229880  0.66598741  0.74596108  1
  Mg  Mg86  1  0.83756700  0.16883201  0.75218578  1
  Mg  Mg87  1  0.66600387  0.41530822  0.75311877  1
  Mg  Mg88  1  0.66663868  0.58352956  0.25057572  1
  Mg  Mg89  1  0.67168596  0.41300078  0.25502155  1
  Mg  Mg90  1  0.50442028  0.33243009  0.25632471  1
  Mg  Mg91  1  0.66623109  0.08455264  0.75007918  1
  Mg  Mg92  1  0.16484165  0.33228522  0.24809620  1
  Mg  Mg93  1  0.33335089  0.41208934  0.75163272  1
  Mg  Mg94  1  -0.00246763  0.91747669  0.24908970  1
  Mg  Mg95  1  0.16616918  0.16340245  0.25033859  1
  Fe  Fe96  1  0.30040973  0.32635977  0.89227598  1
  Fe  Fe97  1  0.30155316  0.16569650  0.38997785  1
  Fe  Fe98  1  0.97535811  0.33646788  0.89064991  1
  Fe  Fe99  1  0.36685424  0.83416933  0.11143752  1
  Fe  Fe100  1  0.47810645  0.07605253  0.38953758  1
  Fe  Fe101  1  0.01945337  0.66911424  0.60548806  1
  Fe  Fe102  1  0.68809457  0.83529723  0.10613334  1
  Fe  Fe103  1  0.81434178  0.91739556  0.89243181  1
  Fe  Fe104  1  0.63761565  0.83023494  0.38880204  1
  Fe  Fe105  1  0.19079749  0.08366508  0.10735086  1
  Fe  Fe106  1  0.53009242  0.08075403  0.60906654  1
  Fe  Fe107  1  0.35844529  0.17476765  0.61133125  1
  Fe  Fe108  1  0.64825285  0.33741344  0.39592021  1
  Fe  Fe109  1  0.01918313  0.16598373  0.10483868  1
  Fe  Fe110  1  0.80808408  0.92059240  0.39168780  1
  Fe  Fe111  1  0.46893557  0.41825213  0.89243928  1
  Fe  Fe112  1  0.02299138  0.34200633  0.10447488  1
  Si  Si113  1  0.14646783  0.58446698  0.88425676  1
  Si  Si114  1  0.14100351  0.41993520  0.38600723  1
  Si  Si115  1  0.80196120  0.41599196  0.88786952  1
  Si  Si116  1  0.36245681  0.33548984  0.11926549  1
  Si  Si117  1  0.30633461  0.33802572  0.38716174  1
  Si  Si118  1  0.81442276  0.08727129  0.38757042  1
  Si  Si119  1  0.02992163  0.16602159  0.61818757  1
  Si  Si120  1  0.13118208  0.08189454  0.38655066  1
  Si  Si121  1  0.52878920  0.58631966  0.61546867  1
  Si  Si122  1  0.52714803  0.09411068  0.11500672  1
  Si  Si123  1  0.97066363  0.17081090  0.38249107  1
  Si  Si124  1  0.30901328  0.83587183  0.88263366  1
  Si  Si125  1  0.52758504  0.42031389  0.61483783  1
  Si  Si126  1  0.52546806  0.57510779  0.11616854  1
  Si  Si127  1  0.35497475  0.82816144  0.61360829  1
  Si  Si128  1  0.97391504  0.83007584  0.38592339  1
  Si  Si129  1  0.46933800  0.90894356  0.38760326  1
  Si  Si130  1  0.69446715  0.83159894  0.61400608  1
  Si  Si131  1  0.81201885  0.08884680  0.88779293  1
  Si  Si132  1  0.85377870  0.07609197  0.11353779  1
  Si  Si133  1  0.85512079  0.57565213  0.61059521  1
  Si  Si134  1  0.64471461  0.66939614  0.88503298  1
  Si  Si135  1  0.35744235  0.34383878  0.61115995  1
  Si  Si136  1  0.47791923  0.58941138  0.88845364  1
  Si  Si137  1  0.13566872  0.91650631  0.38400997  1
  Si  Si138  1  0.36024271  0.66231576  0.11145140  1
  Si  Si139  1  0.69069543  0.33224492  0.61697431  1
  Si  Si140  1  0.68361391  0.66612170  0.11223454  1
  Si  Si141  1  0.97748181  0.65967306  0.88454551  1
  Si  Si142  1  0.30861941  0.67055476  0.88375248  1
  Si  Si143  1  0.30757228  0.15437728  0.89030805  1
  Si  Si144  1  0.18917188  0.42004292  0.61502013  1
  Si  Si145  1  0.97947596  0.16759867  0.88608627  1
  Si  Si146  1  0.02862023  0.33222140  0.61725184  1
  Si  Si147  1  0.64564955  0.66018473  0.38722751  1
  Si  Si148  1  0.69513675  0.33227063  0.11707049  1
  Si  Si149  1  0.19214893  0.08172814  0.61308484  1
  Si  Si150  1  0.86080159  0.91118850  0.11241803  1
  Si  Si151  1  0.47543393  0.91520807  0.88249140  1
  Si  Si152  1  0.97874649  0.82270450  0.88846174  1
  Si  Si153  1  0.19022939  0.58527911  0.11381571  1
  Si  Si154  1  0.19275705  0.58461303  0.61220948  1
  Si  Si155  1  0.69492194  0.66567783  0.61517264  1
  Si  Si156  1  0.98078639  0.33607991  0.38592465  1
  Si  Si157  1  0.18971228  0.91536642  0.61277111  1
  Si  Si158  1  0.64042579  0.83428062  0.88555098  1
  Si  Si159  1  0.63708194  0.33147287  0.88731437  1
  Si  Si160  1  0.13931859  0.07545621  0.88626282  1
  Si  Si161  1  0.64185066  0.16622267  0.88542576  1
  Si  Si162  1  0.01907001  0.83680239  0.61029371  1
  Si  Si163  1  0.81290734  0.58309153  0.38464530  1
  Si  Si164  1  0.97551830  0.66647563  0.38353539  1
  Si  Si165  1  0.85789802  0.41144250  0.61530690  1
  Si  Si166  1  0.14125946  0.58413399  0.38459314  1
  Si  Si167  1  0.85136900  0.58812783  0.11372838  1
  Si  Si168  1  0.85440302  0.42638570  0.11149949  1
  Si  Si169  1  0.52280752  0.90792585  0.61130982  1
  Si  Si170  1  0.18876508  0.91165421  0.11000600  1
  Si  Si171  1  0.52980164  0.41085942  0.11820708  1
  Si  Si172  1  0.80790132  0.58168499  0.88446117  1
  Si  Si173  1  0.19823598  0.41919036  0.11281247  1
  Si  Si174  1  0.69524983  0.16717395  0.11626634  1
  Si  Si175  1  0.86268651  0.08801818  0.61702428  1
  Si  Si176  1  0.35953713  0.66269072  0.61528358  1
  Si  Si177  1  0.47179514  0.42096169  0.39007970  1
  Si  Si178  1  0.13861019  0.42222105  0.88897711  1
  Si  Si179  1  0.14249658  0.91086402  0.88351309  1
  Si  Si180  1  0.02517210  0.83073686  0.11492735  1
  Si  Si181  1  0.30022295  0.83501878  0.38487176  1
  Si  Si182  1  0.69867231  0.16732025  0.61519073  1
  Si  Si183  1  0.36201421  0.17157897  0.11393741  1
  Si  Si184  1  0.02097211  0.66567444  0.11399200  1
  Si  Si185  1  0.30610428  0.66965174  0.38452299  1
  Si  Si186  1  0.52782600  0.93078669  0.10746499  1
  Si  Si187  1  0.85403227  0.92302390  0.61570820  1
  Si  Si188  1  0.81786999  0.42128421  0.39005396  1
  Si  Si189  1  0.64813227  0.16607855  0.39124599  1
  Si  Si190  1  0.47283108  0.58636513  0.38518013  1
  Si  Si191  1  0.47729989  0.07911033  0.88567074  1
  O  O192  1  0.29011315  0.11822116  0.07789531  1
  O  O193  1  0.26457109  0.11507999  0.57800547  1
  O  O194  1  0.26830136  0.62175180  0.08401173  1
  O  O195  1  0.28164160  0.60876140  0.58637750  1
  O  O196  1  0.60684008  0.12659875  0.08372321  1
  O  O197  1  0.62911199  0.11180912  0.57996942  1
  O  O198  1  0.60659576  0.60722603  0.08688576  1
  O  O199  1  0.60217815  0.62892316  0.58438070  1
  O  O200  1  0.92622891  0.10435754  0.07525264  1
  O  O201  1  0.94401685  0.11995496  0.58766026  1
  O  O202  1  0.93583002  0.61804678  0.08532867  1
  O  O203  1  0.92725949  0.60837616  0.57323091  1
  O  O204  1  0.12369733  0.37086889  0.07404999  1
  O  O205  1  0.10444989  0.37207397  0.58451316  1
  O  O206  1  0.10874742  0.85400387  0.08596940  1
  O  O207  1  0.10182276  0.87331349  0.58276558  1
  O  O208  1  0.44635844  0.36261878  0.09038555  1
  O  O209  1  0.43688090  0.38476475  0.58212921  1
  O  O210  1  0.44846263  0.88157629  0.07220418  1
  O  O211  1  0.43768971  0.85675145  0.58538441  1
  O  O212  1  0.76978649  0.37517350  0.08735183  1
  O  O213  1  0.77193449  0.36475453  0.58736008  1
  O  O214  1  0.79083749  0.85462583  0.07730198  1
  O  O215  1  0.76872911  0.87552925  0.58462657  1
  O  O216  1  0.28830081  0.39363317  0.09078049  1
  O  O217  1  0.27263644  0.39525217  0.58486330  1
  O  O218  1  0.26364788  0.87798279  0.07535807  1
  O  O219  1  0.26842512  0.87406939  0.58456590  1
  O  O220  1  0.60670798  0.37563867  0.08573699  1
  O  O221  1  0.60669040  0.38126815  0.58698533  1
  O  O222  1  0.60959006  0.90773061  0.07472538  1
  O  O223  1  0.60103027  0.86513223  0.58431968  1
  O  O224  1  0.93067268  0.40547351  0.07432871  1
  O  O225  1  0.93826311  0.37424765  0.58701832  1
  O  O226  1  0.94909397  0.88619759  0.08621048  1
  O  O227  1  0.93707674  0.89129064  0.58789239  1
  O  O228  1  0.10554993  0.13850533  0.06119475  1
  O  O229  1  0.10379741  0.12626798  0.58499564  1
  O  O230  1  0.10192887  0.63006873  0.08560143  1
  O  O231  1  0.11973607  0.63748945  0.57610236  1
  O  O232  1  0.45051288  0.15073937  0.08734380  1
  O  O233  1  0.44745649  0.14355001  0.57310258  1
  O  O234  1  0.43561788  0.61430983  0.08569400  1
  O  O235  1  0.44127826  0.63073581  0.58615738  1
  O  O236  1  0.76700729  0.12377162  0.08441869  1
  O  O237  1  0.78691554  0.14466535  0.58899920  1
  O  O238  1  0.77093770  0.64024949  0.08512381  1
  O  O239  1  0.76423732  0.61812709  0.58420408  1
  O  O240  1  0.04709122  0.11469166  0.41373875  1
  O  O241  1  0.05729841  0.10962136  0.91206524  1
  O  O242  1  0.05906410  0.61676108  0.41262277  1
  O  O243  1  0.06338040  0.61228970  0.91425876  1
  O  O244  1  0.39051122  0.10958073  0.42761431  1
  O  O245  1  0.39583744  0.10650495  0.91686261  1
  O  O246  1  0.39536127  0.62784958  0.41405048  1
  O  O247  1  0.39577542  0.62783503  0.91405635  1
  O  O248  1  0.72953855  0.11216993  0.41618072  1
  O  O249  1  0.72795455  0.12162012  0.91536484  1
  O  O250  1  0.72679067  0.60479467  0.41290575  1
  O  O251  1  0.73067914  0.62318920  0.91385459  1
  O  O252  1  0.22755370  0.37721219  0.41630604  1
  O  O253  1  0.20613415  0.36437148  0.92449017  1
  O  O254  1  0.21971896  0.86815939  0.41477545  1
  O  O255  1  0.23228136  0.87031949  0.91489171  1
  O  O256  1  0.55377438  0.37863542  0.42719330  1
  O  O257  1  0.56249668  0.35860721  0.92406543  1
  O  O258  1  0.53311853  0.84407859  0.41588807  1
  O  O259  1  0.55165908  0.85895857  0.91018952  1
  O  O260  1  0.90224478  0.37142491  0.41818161  1
  O  O261  1  0.87809920  0.36671902  0.92333200  1
  O  O262  1  0.89895746  0.85533623  0.42240464  1
  O  O263  1  0.90819154  0.85818642  0.92576106  1
  O  O264  1  0.06518297  0.38431616  0.41947055  1
  O  O265  1  0.05000931  0.41390414  0.91527252  1
  O  O266  1  0.05960875  0.87693228  0.41437129  1
  O  O267  1  0.07057122  0.86417623  0.91205529  1
  O  O268  1  0.38633236  0.39210933  0.41502662  1
  O  O269  1  0.38724517  0.38451036  0.93618792  1
  O  O270  1  0.37982732  0.88531139  0.41462488  1
  O  O271  1  0.39299133  0.88378946  0.91083267  1
  O  O272  1  0.74286548  0.39675644  0.42845678  1
  O  O273  1  0.71700300  0.38566979  0.91371717  1
  O  O274  1  0.71936359  0.89221351  0.43221868  1
  O  O275  1  0.71496617  0.88499406  0.92144239  1
  O  O276  1  0.20925379  0.12846267  0.42479951  1
  O  O277  1  0.22974476  0.11216086  0.91890292  1
  O  O278  1  0.22766005  0.63028221  0.41387314  1
  O  O279  1  0.22737013  0.63817247  0.91285413  1
  O  O280  1  0.57012137  0.13587542  0.42305095  1
  O  O281  1  0.56192381  0.12830630  0.91400131  1
  O  O282  1  0.56266875  0.62522827  0.41512141  1
  O  O283  1  0.56166467  0.64083015  0.91364313  1
  O  O284  1  0.88773083  0.14820098  0.41548939  1
  O  O285  1  0.89283921  0.14203347  0.91382014  1
  O  O286  1  0.89190339  0.63837614  0.41206352  1
  O  O287  1  0.89771629  0.62278872  0.91424223  1
  O  O288  1  0.16224814  -0.01123130  0.07671156  1
  O  O289  1  0.17798373  -0.00262705  0.58482379  1
  O  O290  1  0.18092299  0.50342101  0.08528792  1
  O  O291  1  0.16966397  0.50207337  0.58512267  1
  O  O292  1  0.50313572  0.01514820  0.08185528  1
  O  O293  1  0.50517582  -0.01502806  0.57778102  1
  O  O294  1  0.51446175  0.49241457  0.08760734  1
  O  O295  1  0.52311435  0.50414063  0.58571269  1
  O  O296  1  0.83301667  -0.00755959  0.08558425  1
  O  O297  1  0.84080341  0.00628600  0.58700279  1
  O  O298  1  0.82431278  0.50879030  0.08342908  1
  O  O299  1  0.83992762  0.49160488  0.58222611  1
  O  O300  1  -0.01530988  0.25495042  0.07051782  1
  O  O301  1  0.01860899  0.24925559  0.58831110  1
  O  O302  1  0.00262406  0.74781208  0.08585337  1
  O  O303  1  -0.00176090  0.76249420  0.56961666  1
  O  O304  1  0.33960943  0.25571282  0.08822472  1
  O  O305  1  0.33623197  0.26816437  0.57512813  1
  O  O306  1  0.35653771  0.73864440  0.07482015  1
  O  O307  1  0.33792002  0.74460404  0.58635416  1
  O  O308  1  0.68941905  0.25026168  0.08637430  1
  O  O309  1  0.67553998  0.25058120  0.58832004  1
  O  O310  1  0.65346073  0.74073148  0.07629083  1
  O  O311  1  0.69402196  0.74816915  0.58556130  1
  O  O312  1  0.14263048  -0.00268433  0.41563477  1
  O  O313  1  0.14554982  -0.00798476  0.91433028  1
  O  O314  1  0.15536137  0.50310269  0.41577606  1
  O  O315  1  0.17452317  0.50508090  0.91331496  1
  O  O316  1  0.50199377  -0.01677708  0.42450518  1
  O  O317  1  0.49829903  -0.00421190  0.91285104  1
  O  O318  1  0.47834895  0.50562170  0.41692462  1
  O  O319  1  0.49664318  0.51370049  0.92489466  1
  O  O320  1  0.84747068  0.01241781  0.42313466  1
  O  O321  1  0.83271434  0.01204694  0.92346158  1
  O  O322  1  0.84572146  0.50486588  0.41538133  1
  O  O323  1  0.81382744  0.50037437  0.91590661  1
  O  O324  1  0.32312398  0.26137985  0.42188049  1
  O  O325  1  0.32145065  0.23125768  0.92642987  1
  O  O326  1  0.31359727  0.75151069  0.41457446  1
  O  O327  1  0.32310137  0.75343430  0.91166579  1
  O  O328  1  0.67581987  0.24415943  0.42476004  1
  O  O329  1  0.65863880  0.24816314  0.91422836  1
  O  O330  1  0.66815102  0.73519999  0.42389112  1
  O  O331  1  0.66109875  0.75129496  0.91289563  1
  O  O332  1  0.99603638  0.25285240  0.41348640  1
  O  O333  1  1.00997874  0.24349409  0.91976932  1
  O  O334  1  1.00052539  0.74669654  0.41168130  1
  O  O335  1  0.99462128  0.73943309  0.91827032  1
  O  O336  1  0.21272430  0.08125398  0.19880065  1
  O  O337  1  0.21062294  0.08130993  0.69386111  1
  O  O338  1  0.20881823  0.58560345  0.19450373  1
  O  O339  1  0.21081040  0.58523611  0.69319385  1
  O  O340  1  0.54645428  0.08861550  0.19499473  1
  O  O341  1  0.54633233  0.08328483  0.70142893  1
  O  O342  1  0.54267688  0.57902741  0.19660144  1
  O  O343  1  0.54470492  0.58515914  0.69572264  1
  O  O344  1  0.87027564  0.07762801  0.19326916  1
  O  O345  1  0.87831981  0.08519088  0.69706623  1
  O  O346  1  0.87401775  0.58715405  0.19411547  1
  O  O347  1  0.87619402  0.57705179  0.69057061  1
  O  O348  1  0.05118635  0.34692025  0.19501274  1
  O  O349  1  0.04907468  0.33757307  0.69614816  1
  O  O350  1  0.04226246  0.82899695  0.19545299  1
  O  O351  1  0.04455472  0.82642764  0.68948126  1
  O  O352  1  0.38082345  0.33556702  0.19979491  1
  O  O353  1  0.38002578  0.34208680  0.69065065  1
  O  O354  1  0.37765760  0.83109909  0.20176144  1
  O  O355  1  0.37470945  0.83080952  0.69414129  1
  O  O356  1  0.70361972  0.33329347  0.19585274  1
  O  O357  1  0.70820740  0.33478398  0.69728917  1
  O  O358  1  0.71011837  0.83081987  0.19694082  1
  O  O359  1  0.70916579  0.83147061  0.69412285  1
  O  O360  1  0.21360382  0.42053065  0.19406111  1
  O  O361  1  0.20831600  0.41943132  0.69495798  1
  O  O362  1  0.20829060  0.91257367  0.19143792  1
  O  O363  1  0.20995053  0.91404363  0.69306316  1
  O  O364  1  0.54525379  0.41581556  0.19825861  1
  O  O365  1  0.54544444  0.41984182  0.69494772  1
  O  O366  1  0.54414191  0.92639065  0.18785715  1
  O  O367  1  0.54276261  0.91154443  0.69255681  1
  O  O368  1  0.87884431  0.42849523  0.19121235  1
  O  O369  1  0.87487210  0.41610643  0.69506521  1
  O  O370  1  0.87781311  0.91073935  0.19303652  1
  O  O371  1  0.86650329  0.91913511  0.69461394  1
  O  O372  1  0.05417640  0.15706341  0.19221387  1
  O  O373  1  0.04820396  0.16487110  0.69740852  1
  O  O374  1  0.04164292  0.66600194  0.19444899  1
  O  O375  1  0.04271949  0.66568778  0.69730092  1
  O  O376  1  0.37919981  0.17065284  0.19429936  1
  O  O377  1  0.37861845  0.16666923  0.70219727  1
  O  O378  1  0.37545041  0.66318437  0.19235047  1
  O  O379  1  0.37872063  0.66585416  0.69571854  1
  O  O380  1  0.70762788  0.16583796  0.19612317  1
  O  O381  1  0.71180620  0.16746140  0.69614860  1
  O  O382  1  0.70602143  0.66452666  0.19323623  1
  O  O383  1  0.70693068  0.66575813  0.69460920  1
  O  O384  1  0.12368008  0.08007130  0.30740341  1
  O  O385  1  0.12550071  0.07958516  0.80607634  1
  O  O386  1  0.12383365  0.58498991  0.30426253  1
  O  O387  1  0.12699514  0.58472095  0.80394615  1
  O  O388  1  0.45464058  0.08116909  0.29743619  1
  O  O389  1  0.45759759  0.07919291  0.80581593  1
  O  O390  1  0.45513769  0.58306358  0.30492899  1
  O  O391  1  0.45829831  0.58677332  0.80708165  1
  O  O392  1  0.79228772  0.08285937  0.30689861  1
  O  O393  1  0.78970910  0.08618040  0.80675146  1
  O  O394  1  0.79231295  0.58415122  0.30407628  1
  O  O395  1  0.78912945  0.58043152  0.80480369  1
  O  O396  1  0.28973883  0.33791168  0.30627826  1
  O  O397  1  0.28845565  0.33476164  0.80139646  1
  O  O398  1  0.28344816  0.83074430  0.30484809  1
  O  O399  1  0.29100170  0.83324341  0.80234658  1
  O  O400  1  0.62456919  0.33506153  0.30454549  1
  O  O401  1  0.62104215  0.33346139  0.80622740  1
  O  O402  1  0.61938756  0.83261945  0.29777575  1
  O  O403  1  0.62321321  0.83287171  0.80438490  1
  O  O404  1  0.96587702  0.34378374  0.30814213  1
  O  O405  1  0.95323908  0.33563673  0.79994032  1
  O  O406  1  0.95553161  0.83064448  0.30514177  1
  O  O407  1  0.95468712  0.82197838  0.80876166  1
  O  O408  1  0.12517224  0.42247258  0.30611834  1
  O  O409  1  0.12514771  0.41966095  0.80733540  1
  O  O410  1  0.12122921  0.91395312  0.30395820  1
  O  O411  1  0.13363465  0.91382287  0.80436311  1
  O  O412  1  0.45797133  0.41896322  0.30897548  1
  O  O413  1  0.45467760  0.41906525  0.80018511  1
  O  O414  1  0.45152555  0.91794372  0.30739310  1
  O  O415  1  0.45627384  0.91536483  0.80184492  1
  O  O416  1  0.79117198  0.42371937  0.31041807  1
  O  O417  1  0.78778043  0.41743963  0.80661588  1
  O  O418  1  0.78738555  0.91675287  0.29986866  1
  O  O419  1  0.78976191  0.91577802  0.80100500  1
  O  O420  1  0.28950126  0.16679918  0.29875329  1
  O  O421  1  0.28723631  0.15618562  0.81038471  1
  O  O422  1  0.28772949  0.66605450  0.30430371  1
  O  O423  1  0.29043409  0.66803156  0.80321759  1
  O  O424  1  0.62576716  0.16673060  0.30964091  1
  O  O425  1  0.62382307  0.16687896  0.80526044  1
  O  O426  1  0.62412974  0.66217710  0.30642700  1
  O  O427  1  0.62528514  0.66665665  0.80449312  1
  O  O428  1  0.95071704  0.16608565  0.30424485  1
  O  O429  1  0.95741049  0.16636749  0.80585834  1
  O  O430  1  0.95665813  0.66548114  0.30317616  1
  O  O431  1  0.95991851  0.66223786  0.80511666  1
  F  F432  1  0.04644135  -0.01008297  0.19852725  1
  F  F433  1  0.04908345  0.00805820  0.69917481  1
  F  F434  1  0.04676925  0.50634135  0.20069755  1
  F  F435  1  0.04596874  0.49924559  0.70243960  1
  F  F436  1  0.37635098  -0.00272464  0.19912797  1
  F  F437  1  0.37840827  -0.00260497  0.70009313  1
  F  F438  1  0.38018412  0.49980786  0.20408868  1
  F  F439  1  0.37990789  0.50591345  0.70067533  1
  F  F440  1  0.71096758  0.00282486  0.20289241  1
  F  F441  1  0.71157950  0.00178961  0.70303361  1
  F  F442  1  0.71126508  0.49952482  0.20422592  1
  F  F443  1  0.71055375  0.49889973  0.70218334  1
  F  F444  1  0.21670809  0.25629103  0.19886920  1
  F  F445  1  0.20639246  0.24800812  0.70063987  1
  F  F446  1  0.21090862  0.74753672  0.20125243  1
  F  F447  1  0.21389942  0.74971392  0.69995508  1
  F  F448  1  0.54592156  0.24948416  0.20667461  1
  F  F449  1  0.54621198  0.25278332  0.70237889  1
  F  F450  1  0.54431942  0.73827929  0.19692483  1
  F  F451  1  0.54587798  0.74837304  0.70249092  1
  F  F452  1  0.86285324  0.23695568  0.18551003  1
  F  F453  1  0.86821861  0.25029847  0.69877484  1
  F  F454  1  0.87847141  0.74782056  0.20210716  1
  F  F455  1  0.87738760  0.75278374  0.69981498  1
  F  F456  1  0.28495892  -0.00546387  0.29638663  1
  F  F457  1  0.28897979  -0.00271889  0.79512097  1
  F  F458  1  0.28755882  0.50331062  0.29764919  1
  F  F459  1  0.28885738  0.50294809  0.79680320  1
  F  F460  1  0.61938314  0.00028347  0.29696476  1
  F  F461  1  0.62121785  -0.00383568  0.79813832  1
  F  F462  1  0.62205591  0.50055772  0.30025533  1
  F  F463  1  0.62160618  0.50259959  0.79820632  1
  F  F464  1  0.95235477  -0.00835939  0.29952367  1
  F  F465  1  0.95190474  0.00958239  0.80279321  1
  F  F466  1  0.95659351  0.50439832  0.29707492  1
  F  F467  1  0.95429335  0.50158435  0.79598507  1
  F  F468  1  0.13614368  0.25062507  0.30043949  1
  F  F469  1  0.12784983  0.24857665  0.80238063  1
  F  F470  1  0.12046121  0.74814719  0.29732338  1
  F  F471  1  0.12379255  0.75036282  0.79662196  1
  F  F472  1  0.45484947  0.25101234  0.30151803  1
  F  F473  1  0.46395611  0.25003678  0.80230376  1
  F  F474  1  0.44862679  0.73544018  0.30323736  1
  F  F475  1  0.45464482  0.75023994  0.79704181  1
  F  F476  1  0.78639171  0.24040480  0.30149832  1
  F  F477  1  0.78533237  0.25086839  0.79931542  1
  F  F478  1  0.78681804  0.74627137  0.29750563  1
  F  F479  1  0.78614843  0.75145972  0.79991022  1
