# generated using pymatgen
data_K24Na3Li5Mg64Fe17Si79(O5F)48
_symmetry_space_group_name_H-M   'P 1'
_cell_length_a   16.10580078
_cell_length_b   18.58423929
_cell_length_c   20.56090014
_cell_angle_alpha   89.99406782
_cell_angle_beta   99.98795860
_cell_angle_gamma   90.01280220
_symmetry_Int_Tables_number   1
_chemical_formula_structural   K24Na3Li5Mg64Fe17Si79(O5F)48
_chemical_formula_sum   'K24 Na3 Li5 Mg64 Fe17 Si79 O240 F48'
_cell_volume   6060.89508915
_cell_formula_units_Z   1
loop_
 _symmetry_equiv_pos_site_id
 _symmetry_equiv_pos_as_xyz
  1  'x, y, z'
loop_
 _atom_site_type_symbol
 _atom_site_label
 _atom_site_symmetry_multiplicity
 _atom_site_fract_x
 _atom_site_fract_y
 _atom_site_fract_z
 _atom_site_occupancy
  K  K0  1  -0.00763914  -0.00155623  -0.00078424  1
  K  K1  1  0.00089948  -0.00326081  0.49621204  1
  K  K2  1  -0.00944546  0.50062304  -0.00353367  1
  K  K3  1  -0.01427817  0.49857720  0.50142864  1
  K  K4  1  0.33134483  -0.00163154  -0.00317155  1
  K  K5  1  0.33484532  0.00431670  0.50314001  1
  K  K6  1  0.33833526  0.50555331  0.00324283  1
  K  K7  1  0.34737877  0.50091929  0.49255343  1
  K  K8  1  0.67850659  0.00256462  0.00722154  1
  K  K9  1  0.66573087  -0.00265467  0.49619434  1
  K  K10  1  0.67497445  0.50553982  0.00189165  1
  K  K11  1  0.66627877  0.49885109  0.49176105  1
  K  K12  1  0.17437005  0.24242053  -0.00217118  1
  K  K13  1  0.16236054  0.23662469  0.50508373  1
  K  K14  1  0.16106139  0.75662936  -0.00048426  1
  K  K15  1  0.16855486  0.75541692  0.49478382  1
  K  K16  1  0.51865274  0.24310915  0.00708365  1
  K  K17  1  0.50291717  0.24625780  0.49975731  1
  K  K18  1  0.51241748  0.75142594  0.00461830  1
  K  K19  1  0.50604252  0.74355050  0.48820582  1
  K  K20  1  0.82068630  0.24479445  -0.00544448  1
  K  K21  1  0.83263869  0.24924347  0.50441497  1
  K  K22  1  0.81486354  0.75061080  0.00240759  1
  K  K23  1  0.82777704  0.75736340  0.49457178  1
  Na  Na24  1  0.32892079  0.24976660  0.74169562  1
  Na  Na25  1  0.00073923  0.91537366  0.25180388  1
  Na  Na26  1  0.83433945  0.16887792  0.75670497  1
  Li  Li27  1  -0.00121321  0.75510736  0.25141618  1
  Li  Li28  1  0.50395171  0.50731925  0.24915827  1
  Li  Li29  1  0.16439532  0.83453908  0.75106711  1
  Li  Li30  1  0.49771098  0.83430064  0.75074001  1
  Li  Li31  1  0.50579741  0.66061947  0.25022109  1
  Mg  Mg32  1  0.83482047  -0.00096530  0.25182375  1
  Mg  Mg33  1  0.49776706  0.50101770  0.74906911  1
  Mg  Mg34  1  0.50478540  -0.00101732  0.24899284  1
  Mg  Mg35  1  0.17074243  0.50172001  0.25124774  1
  Mg  Mg36  1  0.83111920  0.00054165  0.75423713  1
  Mg  Mg37  1  0.16476582  -0.00443134  0.74981762  1
  Mg  Mg38  1  0.49449060  -0.00208662  0.74560713  1
  Mg  Mg39  1  0.66886201  0.74875686  0.25103574  1
  Mg  Mg40  1  0.00013277  0.25085132  0.25323044  1
  Mg  Mg41  1  0.33475913  0.24942186  0.25224734  1
  Mg  Mg42  1  0.16428514  0.50021110  0.74708051  1
  Mg  Mg43  1  0.66053762  0.75154845  0.75217633  1
  Mg  Mg44  1  0.16736002  -0.00101363  0.25262564  1
  Mg  Mg45  1  0.00043194  0.75207676  0.75204613  1
  Mg  Mg46  1  0.83475606  0.50481851  0.24911305  1
  Mg  Mg47  1  -0.00317791  0.24960380  0.75085881  1
  Mg  Mg48  1  0.83258192  0.49879346  0.74942282  1
  Mg  Mg49  1  0.66798820  0.24905123  0.24976846  1
  Mg  Mg50  1  0.33114187  0.75218673  0.74721006  1
  Mg  Mg51  1  0.34010115  0.74747551  0.25123477  1
  Mg  Mg52  1  0.66407781  0.24909460  0.74825675  1
  Mg  Mg53  1  0.16984875  0.66862866  0.25306416  1
  Mg  Mg54  1  0.00327244  0.58804463  0.24928352  1
  Mg  Mg55  1  0.33617829  0.91458795  0.25013092  1
  Mg  Mg56  1  0.66565995  0.58569226  0.75217370  1
  Mg  Mg57  1  0.00217454  0.41807359  0.25198873  1
  Mg  Mg58  1  0.66940491  0.91495294  0.25049610  1
  Mg  Mg59  1  -0.00062261  0.08467915  0.25250890  1
  Mg  Mg60  1  0.66599363  0.41530268  0.74719925  1
  Mg  Mg61  1  0.16376585  0.33291400  0.74592257  1
  Mg  Mg62  1  0.66290058  0.91565393  0.75276773  1
  Mg  Mg63  1  0.16807010  0.83145092  0.25372946  1
  Mg  Mg64  1  0.00049633  0.91327448  0.75314816  1
  Mg  Mg65  1  0.16854005  0.33419343  0.25268894  1
  Mg  Mg66  1  0.50380018  0.16519546  0.25093678  1
  Mg  Mg67  1  0.66409831  0.58656638  0.25221556  1
  Mg  Mg68  1  0.16284839  0.16449096  0.74710643  1
  Mg  Mg69  1  0.66350154  0.42002882  0.24868220  1
  Mg  Mg70  1  -0.00173598  0.58467484  0.74709189  1
  Mg  Mg71  1  0.50216491  0.33595508  0.25351014  1
  Mg  Mg72  1  0.49496105  0.33321562  0.74430620  1
  Mg  Mg73  1  0.66535554  0.08262977  0.75020027  1
  Mg  Mg74  1  -0.00199206  0.08289664  0.75423944  1
  Mg  Mg75  1  0.83341703  0.83388027  0.75409998  1
  Mg  Mg76  1  -0.00359745  0.41444352  0.74840125  1
  Mg  Mg77  1  0.66730347  0.08597698  0.25162750  1
  Mg  Mg78  1  0.83386994  0.16539252  0.25249198  1
  Mg  Mg79  1  0.16704796  0.16464204  0.25433081  1
  Mg  Mg80  1  0.50419304  0.83125501  0.25099951  1
  Mg  Mg81  1  0.33882438  0.41838388  0.25443769  1
  Mg  Mg82  1  0.83602247  0.83382876  0.25054176  1
  Mg  Mg83  1  0.49993033  0.66949606  0.75066183  1
  Mg  Mg84  1  0.83315697  0.33667049  0.25013057  1
  Mg  Mg85  1  0.34143871  0.58400504  0.24929356  1
  Mg  Mg86  1  0.83535066  0.33391843  0.74972317  1
  Mg  Mg87  1  0.49543495  0.16575703  0.74535396  1
  Mg  Mg88  1  0.33028006  0.91339540  0.74689110  1
  Mg  Mg89  1  0.83250716  0.66591870  0.75161961  1
  Mg  Mg90  1  0.33675015  0.08314871  0.25195401  1
  Mg  Mg91  1  0.83636756  0.67018901  0.24973145  1
  Mg  Mg92  1  0.16530835  0.67019639  0.74628857  1
  Mg  Mg93  1  0.33014576  0.41634565  0.74511960  1
  Mg  Mg94  1  0.32932928  0.08382887  0.74361673  1
  Mg  Mg95  1  0.33171460  0.58587167  0.74794869  1
  Fe  Fe96  1  0.80520215  0.08355477  0.89330528  1
  Fe  Fe97  1  0.69833611  0.16687102  0.10858569  1
  Fe  Fe98  1  0.51783331  0.58056674  0.11012949  1
  Fe  Fe99  1  0.35640510  0.16858230  0.60306763  1
  Fe  Fe100  1  0.98128862  0.33725129  0.89309120  1
  Fe  Fe101  1  0.97434443  0.82938740  0.89303507  1
  Fe  Fe102  1  0.51903994  0.08524595  0.10792694  1
  Fe  Fe103  1  0.63858137  0.66887125  0.89117288  1
  Fe  Fe104  1  0.64264921  0.16448246  0.39275860  1
  Fe  Fe105  1  0.48065189  0.58077632  0.39021548  1
  Fe  Fe106  1  0.81871731  0.91446692  0.39275561  1
  Fe  Fe107  1  0.97308334  0.17242825  0.39182093  1
  Fe  Fe108  1  0.85534426  0.41401672  0.60745331  1
  Fe  Fe109  1  0.51743103  0.91490981  0.10909353  1
  Fe  Fe110  1  0.69460154  0.83774337  0.10895728  1
  Fe  Fe111  1  0.98544298  0.16712662  0.89646989  1
  Fe  Fe112  1  0.69192963  0.66049717  0.11065301  1
  Si  Si113  1  0.63051048  0.16786782  0.88357621  1
  Si  Si114  1  0.35313680  0.82859951  0.11345348  1
  Si  Si115  1  0.03430772  0.16694393  0.11850161  1
  Si  Si116  1  0.02313875  0.16283412  0.61440183  1
  Si  Si117  1  0.14554664  0.58421019  0.88011129  1
  Si  Si118  1  0.80189583  0.41306013  0.88559275  1
  Si  Si119  1  0.14541095  0.42316838  0.88423340  1
  Si  Si120  1  0.81028949  0.08280974  0.39156375  1
  Si  Si121  1  0.80420278  0.91370950  0.88929190  1
  Si  Si122  1  0.52630476  0.58586560  0.61425395  1
  Si  Si123  1  0.18785115  0.58602808  0.61151798  1
  Si  Si124  1  0.86358957  0.41849702  0.11602970  1
  Si  Si125  1  0.52491183  0.42030187  0.61124487  1
  Si  Si126  1  0.18931989  0.42062070  0.61016736  1
  Si  Si127  1  0.19408620  0.58235935  0.11628038  1
  Si  Si128  1  0.30982772  0.66773425  0.38871346  1
  Si  Si129  1  0.69215810  0.34076974  0.11280551  1
  Si  Si130  1  0.03430062  0.66821248  0.11624982  1
  Si  Si131  1  0.14520517  0.07584008  0.88669847  1
  Si  Si132  1  0.68463979  0.32859641  0.60977362  1
  Si  Si133  1  0.30461310  0.66916232  0.88169426  1
  Si  Si134  1  0.35190199  0.66847491  0.11264507  1
  Si  Si135  1  0.81439958  0.58834224  0.38675031  1
  Si  Si136  1  0.63482933  0.84061030  0.88533452  1
  Si  Si137  1  0.98192008  0.66262841  0.38611999  1
  Si  Si138  1  0.18602001  0.07798591  0.60950765  1
  Si  Si139  1  0.98188614  0.82574021  0.38998678  1
  Si  Si140  1  0.30161315  0.33289043  0.88043151  1
  Si  Si141  1  0.80950567  0.57972717  0.88645616  1
  Si  Si142  1  0.47442546  0.91576325  0.38670998  1
  Si  Si143  1  0.30346128  0.16279516  0.38703067  1
  Si  Si144  1  0.18923169  0.91277895  0.61317003  1
  Si  Si145  1  0.35555650  0.83110828  0.61240668  1
  Si  Si146  1  0.30852704  0.83213091  0.88231450  1
  Si  Si147  1  0.85568797  0.58685803  0.61102308  1
  Si  Si148  1  0.97950510  0.65802092  0.88607780  1
  Si  Si149  1  0.51861905  0.41144257  0.11519341  1
  Si  Si150  1  0.19634374  0.08273540  0.11836476  1
  Si  Si151  1  0.46671559  0.41502581  0.88167259  1
  Si  Si152  1  0.97897978  0.34283944  0.38908059  1
  Si  Si153  1  0.86977868  0.08225698  0.11377159  1
  Si  Si154  1  0.63257378  0.33503937  0.88056089  1
  Si  Si155  1  0.35712085  0.66522768  0.61221055  1
  Si  Si156  1  0.02263149  0.67028122  0.61254680  1
  Si  Si157  1  0.30035393  0.16525634  0.88038905  1
  Si  Si158  1  0.47022050  0.08216184  0.38930041  1
  Si  Si159  1  0.14537670  0.91420497  0.88618169  1
  Si  Si160  1  0.52602397  0.07878183  0.60909042  1
  Si  Si161  1  0.02781132  0.33193514  0.11744832  1
  Si  Si162  1  0.64759343  0.33448912  0.38771575  1
  Si  Si163  1  0.13937954  0.07942601  0.39026894  1
  Si  Si164  1  0.85610847  0.91825691  0.61563113  1
  Si  Si165  1  0.02913012  0.33017735  0.61012432  1
  Si  Si166  1  0.14676495  0.41990791  0.38701000  1
  Si  Si167  1  0.19230605  0.41769808  0.11762419  1
  Si  Si168  1  0.31054403  0.83356206  0.38677309  1
  Si  Si169  1  0.86688815  0.91572880  0.11308715  1
  Si  Si170  1  0.46742569  0.92085129  0.88186157  1
  Si  Si171  1  0.47572777  0.40930326  0.39057169  1
  Si  Si172  1  0.64279352  0.83505654  0.39091848  1
  Si  Si173  1  0.35656104  0.34445416  0.60652022  1
  Si  Si174  1  0.52233003  0.91353029  0.61421931  1
  Si  Si175  1  0.85812225  0.08211965  0.61641160  1
  Si  Si176  1  0.14641847  0.58341886  0.38627694  1
  Si  Si177  1  0.14727937  0.91399392  0.38760449  1
  Si  Si178  1  0.46588287  0.08512031  0.88116802  1
  Si  Si179  1  0.86994115  0.58423448  0.11284336  1
  Si  Si180  1  0.69033196  0.83499868  0.61632375  1
  Si  Si181  1  0.02142353  0.83459279  0.61450377  1
  Si  Si182  1  0.46540822  0.58127128  0.88492134  1
  Si  Si183  1  0.03465358  0.83138936  0.11814861  1
  Si  Si184  1  0.64933844  0.66875876  0.39131507  1
  Si  Si185  1  0.69172590  0.67030935  0.61541805  1
  Si  Si186  1  0.35537376  0.17112071  0.11588712  1
  Si  Si187  1  0.19492589  0.91771766  0.11677385  1
  Si  Si188  1  0.80882904  0.42299405  0.38429306  1
  Si  Si189  1  0.30769718  0.32876553  0.38827937  1
  Si  Si190  1  0.68880605  0.16243985  0.61518821  1
  Si  Si191  1  0.35433588  0.33258008  0.11879697  1
  O  O192  1  0.27636382  0.11538249  0.08832703  1
  O  O193  1  0.25436231  0.11729665  0.57250813  1
  O  O194  1  0.27337406  0.61112563  0.08403016  1
  O  O195  1  0.26838473  0.62169430  0.58247326  1
  O  O196  1  0.60678944  0.11527242  0.06647129  1
  O  O197  1  0.61108018  0.10910929  0.58267099  1
  O  O198  1  0.60954508  0.59826540  0.07020919  1
  O  O199  1  0.60140050  0.62996021  0.58619278  1
  O  O200  1  0.95585461  0.11514900  0.08975102  1
  O  O201  1  0.93217060  0.12449305  0.58487110  1
  O  O202  1  0.95253772  0.61866336  0.08594160  1
  O  O203  1  0.93520782  0.62742023  0.58332600  1
  O  O204  1  0.10704726  0.37015124  0.08897325  1
  O  O205  1  0.11030785  0.36760099  0.58136868  1
  O  O206  1  0.11317946  0.86818538  0.08632954  1
  O  O207  1  0.10015420  0.87035970  0.58363450  1
  O  O208  1  0.44005377  0.35199052  0.08981994  1
  O  O209  1  0.43250339  0.38850749  0.57781095  1
  O  O210  1  0.43174850  0.84480241  0.07749140  1
  O  O211  1  0.43341037  0.87065730  0.58339753  1
  O  O212  1  0.77010533  0.38628594  0.08667189  1
  O  O213  1  0.75577158  0.36333431  0.57291427  1
  O  O214  1  0.78916857  0.87087020  0.07270906  1
  O  O215  1  0.76726145  0.87504341  0.58660557  1
  O  O216  1  0.27476131  0.38688401  0.08883519  1
  O  O217  1  0.27182645  0.39475005  0.57983752  1
  O  O218  1  0.27536552  0.88666933  0.08656972  1
  O  O219  1  0.26528278  0.87167085  0.58152695  1
  O  O220  1  0.60309919  0.38416558  0.08526656  1
  O  O221  1  0.59489826  0.37207759  0.58190019  1
  O  O222  1  0.61063252  0.89991083  0.07015797  1
  O  O223  1  0.60031860  0.87374684  0.58499706  1
  O  O224  1  0.93892358  0.37328690  0.08835739  1
  O  O225  1  0.94599597  0.37166881  0.57311030  1
  O  O226  1  0.95328896  0.88170103  0.09017468  1
  O  O227  1  0.93331851  0.87838462  0.58540379  1
  O  O228  1  0.11633740  0.13522016  0.08990406  1
  O  O229  1  0.09333674  0.11612718  0.58303050  1
  O  O230  1  0.11299388  0.63240031  0.08495080  1
  O  O231  1  0.10233980  0.63326069  0.58314646  1
  O  O232  1  0.43336971  0.15665946  0.07939841  1
  O  O233  1  0.44646915  0.12361378  0.57005456  1
  O  O234  1  0.42831326  0.64641932  0.07560691  1
  O  O235  1  0.43482950  0.62426044  0.58393050  1
  O  O236  1  0.79277342  0.12986346  0.07641195  1
  O  O237  1  0.77228446  0.12916030  0.58932476  1
  O  O238  1  0.78797193  0.62506296  0.07653281  1
  O  O239  1  0.76932076  0.63452819  0.58432325  1
  O  O240  1  0.06533145  0.11101029  0.42540327  1
  O  O241  1  0.06900736  0.09436879  0.92496966  1
  O  O242  1  0.06358327  0.61013720  0.41607460  1
  O  O243  1  0.06048204  0.60255876  0.90997886  1
  O  O244  1  0.38444447  0.11242613  0.41563629  1
  O  O245  1  0.38575510  0.11967185  0.91047086  1
  O  O246  1  0.39044016  0.62471404  0.42705338  1
  O  O247  1  0.37891179  0.61143382  0.90967343  1
  O  O248  1  0.72339257  0.09439563  0.42166835  1
  O  O249  1  0.70680773  0.12065934  0.92157752  1
  O  O250  1  0.74344484  0.63136739  0.41986398  1
  O  O251  1  0.73803871  0.61668162  0.92082718  1
  O  O252  1  0.22853131  0.36850763  0.41637338  1
  O  O253  1  0.22513526  0.36877586  0.91346535  1
  O  O254  1  0.23506720  0.87127425  0.41984460  1
  O  O255  1  0.22634724  0.85960815  0.91268843  1
  O  O256  1  0.56428955  0.36471098  0.41694516  1
  O  O257  1  0.55331743  0.37093598  0.91039825  1
  O  O258  1  0.55879908  0.86966434  0.41804823  1
  O  O259  1  0.55124441  0.87436985  0.91094917  1
  O  O260  1  0.89723229  0.38077613  0.41485559  1
  O  O261  1  0.87905954  0.36471655  0.92180162  1
  O  O262  1  0.91231193  0.85578088  0.43151492  1
  O  O263  1  0.87130996  0.85094874  0.91911475  1
  O  O264  1  0.06136951  0.39686670  0.41509717  1
  O  O265  1  0.06624640  0.40944998  0.92045968  1
  O  O266  1  0.07145421  0.87229965  0.41626573  1
  O  O267  1  0.06897284  0.88982668  0.92354381  1
  O  O268  1  0.39747808  0.36635643  0.41978912  1
  O  O269  1  0.38967828  0.37556878  0.91089743  1
  O  O270  1  0.39705660  0.87752509  0.41768149  1
  O  O271  1  0.38850707  0.88435515  0.91232046  1
  O  O272  1  0.72833340  0.38988650  0.41325903  1
  O  O273  1  0.71512085  0.38372780  0.91094664  1
  O  O274  1  0.72319818  0.88056762  0.42756353  1
  O  O275  1  0.71194871  0.89683725  0.91151758  1
  O  O276  1  0.22538792  0.12740338  0.41709829  1
  O  O277  1  0.22448743  0.13164314  0.91501534  1
  O  O278  1  0.22492885  0.63632669  0.41628442  1
  O  O279  1  0.21886245  0.64340576  0.90907361  1
  O  O280  1  0.54608189  0.13157200  0.42582143  1
  O  O281  1  0.54404612  0.13916315  0.90875013  1
  O  O282  1  0.58268788  0.62699936  0.42875315  1
  O  O283  1  0.54447741  0.62718835  0.92020792  1
  O  O284  1  0.87430957  0.14849139  0.42159483  1
  O  O285  1  0.88881087  0.14682528  0.93015005  1
  O  O286  1  0.90423147  0.62765875  0.41889544  1
  O  O287  1  0.90136895  0.61809747  0.91381000  1
  O  O288  1  0.17770540  0.00095265  0.08899151  1
  O  O289  1  0.17786012  -0.00608525  0.58105174  1
  O  O290  1  0.17360318  0.49939792  0.08845764  1
  O  O291  1  0.16930291  0.50390225  0.58210606  1
  O  O292  1  0.46803956  0.00056363  0.07659395  1
  O  O293  1  0.51354504  -0.00558908  0.58147664  1
  O  O294  1  0.48389102  0.48531084  0.08000131  1
  O  O295  1  0.52641388  0.50397151  0.58383243  1
  O  O296  1  0.86384669  -0.00036969  0.08503068  1
  O  O297  1  0.84601183  -0.00006132  0.58389898  1
  O  O298  1  0.86828616  0.49948520  0.08595448  1
  O  O299  1  0.84369363  0.51000449  0.57435961  1
  O  O300  1  0.01940624  0.24948839  0.08965915  1
  O  O301  1  0.02456935  0.24518973  0.58481132  1
  O  O302  1  0.02168802  0.74973131  0.08511141  1
  O  O303  1  0.01148360  0.75234426  0.58296135  1
  O  O304  1  0.31888619  0.25285926  0.09309129  1
  O  O305  1  0.34315057  0.26616258  0.57263289  1
  O  O306  1  0.31318667  0.74897256  0.08844836  1
  O  O307  1  0.34768995  0.74767837  0.58214997  1
  O  O308  1  0.68635365  0.26405954  0.07618481  1
  O  O309  1  0.66952040  0.24405348  0.58414159  1
  O  O310  1  0.66690114  0.74842723  0.07139889  1
  O  O311  1  0.68274681  0.75271007  0.58600006  1
  O  O312  1  0.15872633  -0.00379924  0.41818663  1
  O  O313  1  0.18105307  -0.00507238  0.91123633  1
  O  O314  1  0.17145219  0.50162400  0.41492858  1
  O  O315  1  0.18241063  0.50524979  0.90635784  1
  O  O316  1  0.48257779  -0.00195849  0.41703908  1
  O  O317  1  0.47951302  0.00346865  0.91192102  1
  O  O318  1  0.48431396  0.48619268  0.42735196  1
  O  O319  1  0.47358996  0.49688588  0.91127354  1
  O  O320  1  0.85198684  0.00718467  0.42223766  1
  O  O321  1  0.83664325  -0.01050108  0.92339656  1
  O  O322  1  0.82126440  0.50495329  0.41538183  1
  O  O323  1  0.81871127  0.49612011  0.91373675  1
  O  O324  1  0.31399614  0.24554221  0.41609776  1
  O  O325  1  0.31280764  0.24935005  0.90680933  1
  O  O326  1  0.31889478  0.75170057  0.41682923  1
  O  O327  1  0.32915568  0.74957681  0.91133841  1
  O  O328  1  0.67322515  0.25864848  0.42383732  1
  O  O329  1  0.64290061  0.25300027  0.90966489  1
  O  O330  1  0.65415524  0.75211958  0.42143114  1
  O  O331  1  0.65465538  0.76353222  0.92111944  1
  O  O332  1  1.00219155  0.26690514  0.42486750  1
  O  O333  1  1.02659093  0.25471363  0.93346972  1
  O  O334  1  1.00651596  0.74208398  0.41852184  1
  O  O335  1  1.00412674  0.73387971  0.92187051  1
  O  O336  1  0.21369996  0.08366141  0.19892902  1
  O  O337  1  0.20506675  0.07953243  0.69019793  1
  O  O338  1  0.21162505  0.58306704  0.19673361  1
  O  O339  1  0.20767544  0.58465984  0.69169349  1
  O  O340  1  0.54315224  0.08374952  0.20083613  1
  O  O341  1  0.54021560  0.08058436  0.68990514  1
  O  O342  1  0.54916084  0.58287120  0.19885675  1
  O  O343  1  0.54059727  0.58339832  0.69418128  1
  O  O344  1  0.87980727  0.08395507  0.19441794  1
  O  O345  1  0.88052228  0.07500573  0.69505906  1
  O  O346  1  0.88342015  0.58381656  0.19383400  1
  O  O347  1  0.87473885  0.58536427  0.69206832  1
  O  O348  1  0.04618066  0.33482694  0.19818632  1
  O  O349  1  0.04424143  0.33562240  0.69058328  1
  O  O350  1  0.05629827  0.82632161  0.19656087  1
  O  O351  1  0.03857630  0.83258802  0.69372426  1
  O  O352  1  0.37345469  0.33409959  0.19922162  1
  O  O353  1  0.37762269  0.34509032  0.68654977  1
  O  O354  1  0.37471832  0.83262400  0.19458873  1
  O  O355  1  0.37033304  0.83154290  0.69155596  1
  O  O356  1  0.71126303  0.33815217  0.19396313  1
  O  O357  1  0.70459329  0.33388477  0.69040075  1
  O  O358  1  0.71203569  0.83160584  0.20123695  1
  O  O359  1  0.70829844  0.83354047  0.69634840  1
  O  O360  1  0.21021003  0.41597680  0.19808518  1
  O  O361  1  0.20725349  0.41998373  0.69065074  1
  O  O362  1  0.21280950  0.91720156  0.19716202  1
  O  O363  1  0.20888559  0.91554040  0.69247787  1
  O  O364  1  0.54244571  0.41194300  0.19546752  1
  O  O365  1  0.54118574  0.41945185  0.69173621  1
  O  O366  1  0.54489251  0.91462171  0.20222828  1
  O  O367  1  0.54100739  0.91627291  0.69349483  1
  O  O368  1  0.88107623  0.41858815  0.19660103  1
  O  O369  1  0.87493778  0.41944408  0.69862512  1
  O  O370  1  0.87107830  0.91699284  0.19214380  1
  O  O371  1  0.87382795  0.91595808  0.69554585  1
  O  O372  1  0.05030066  0.16985332  0.19880466  1
  O  O373  1  0.04171578  0.16328539  0.69431687  1
  O  O374  1  0.05270980  0.66380267  0.19584411  1
  O  O375  1  0.04139997  0.66757719  0.69273217  1
  O  O376  1  0.37499547  0.16737980  0.19712295  1
  O  O377  1  0.37967168  0.15848608  0.69245727  1
  O  O378  1  0.36940778  0.66667463  0.19274482  1
  O  O379  1  0.37467864  0.66519036  0.69220843  1
  O  O380  1  0.71550972  0.16853144  0.20105471  1
  O  O381  1  0.69792049  0.16600960  0.69409278  1
  O  O382  1  0.71562628  0.66478491  0.20279454  1
  O  O383  1  0.71041911  0.66681783  0.69532563  1
  O  O384  1  0.12498413  0.08279979  0.30952583  1
  O  O385  1  0.12480797  0.07930693  0.80551902  1
  O  O386  1  0.12727982  0.58269246  0.30603359  1
  O  O387  1  0.12419027  0.58520896  0.79944782  1
  O  O388  1  0.45484168  0.08349070  0.30865992  1
  O  O389  1  0.45129220  0.08197330  0.80088903  1
  O  O390  1  0.45480032  0.58197433  0.30210193  1
  O  O391  1  0.45209756  0.58237924  0.80359035  1
  O  O392  1  0.79285755  0.08424339  0.30958228  1
  O  O393  1  0.78003849  0.07550380  0.80269900  1
  O  O394  1  0.79788212  0.58523629  0.30700701  1
  O  O395  1  0.79040498  0.58229084  0.80495389  1
  O  O396  1  0.28957181  0.33195504  0.30791930  1
  O  O397  1  0.28253306  0.34104697  0.80109734  1
  O  O398  1  0.29316623  0.83419737  0.30681992  1
  O  O399  1  0.29165005  0.83173214  0.80257718  1
  O  O400  1  0.62710180  0.33492008  0.30678384  1
  O  O401  1  0.61655392  0.33627078  0.80004569  1
  O  O402  1  0.62549945  0.83350942  0.31096796  1
  O  O403  1  0.62121213  0.83435933  0.80491038  1
  O  O404  1  0.96061434  0.33888077  0.30800667  1
  O  O405  1  0.95767590  0.33433158  0.80046370  1
  O  O406  1  0.95470339  0.82652566  0.31162023  1
  O  O407  1  0.95447530  0.83127177  0.80092615  1
  O  O408  1  0.12758327  0.41788112  0.30651702  1
  O  O409  1  0.12379050  0.41903313  0.80294592  1
  O  O410  1  0.13674043  0.91623122  0.30866104  1
  O  O411  1  0.12209299  0.91531448  0.80592108  1
  O  O412  1  0.45404123  0.40914729  0.31072675  1
  O  O413  1  0.45154524  0.41691177  0.80099098  1
  O  O414  1  0.45560236  0.91667576  0.30678481  1
  O  O415  1  0.44856637  0.92096643  0.80206194  1
  O  O416  1  0.79359625  0.42055220  0.30413338  1
  O  O417  1  0.78541098  0.41695392  0.80449999  1
  O  O418  1  0.79238382  0.91666759  0.30194798  1
  O  O419  1  0.78815218  0.91409888  0.80712177  1
  O  O420  1  0.28886962  0.16582821  0.30661451  1
  O  O421  1  0.28044074  0.15931957  0.80122268  1
  O  O422  1  0.29324978  0.66530564  0.30818688  1
  O  O423  1  0.28730736  0.66742259  0.80111217  1
  O  O424  1  0.62189526  0.16979111  0.30180087  1
  O  O425  1  0.61708218  0.16690742  0.80260738  1
  O  O426  1  0.63218981  0.66755785  0.31201289  1
  O  O427  1  0.61957218  0.66610946  0.79903137  1
  O  O428  1  0.95685257  0.17025855  0.30004021  1
  O  O429  1  0.96958348  0.16707193  0.80500289  1
  O  O430  1  0.96004503  0.66151152  0.30681477  1
  O  O431  1  0.95766308  0.66350747  0.80481580  1
  F  F432  1  0.05384942  0.01128764  0.20131186  1
  F  F433  1  0.04375003  -0.00282942  0.70320324  1
  F  F434  1  0.04930756  0.49961693  0.20348337  1
  F  F435  1  0.04382931  0.50152415  0.69887525  1
  F  F436  1  0.37830788  0.00012213  0.20493005  1
  F  F437  1  0.37368996  -0.00344385  0.69561906  1
  F  F438  1  0.36771954  0.49678372  0.19985272  1
  F  F439  1  0.37655374  0.50326401  0.69850560  1
  F  F440  1  0.71286473  0.00351771  0.20430717  1
  F  F441  1  0.70834071  -0.00508337  0.70055666  1
  F  F442  1  0.71647313  0.50075330  0.20250555  1
  F  F443  1  0.70933407  0.50222432  0.70161528  1
  F  F444  1  0.21193221  0.24989351  0.20566527  1
  F  F445  1  0.19514940  0.24926397  0.69322011  1
  F  F446  1  0.21704252  0.74962230  0.20601923  1
  F  F447  1  0.21347691  0.74395837  0.69439261  1
  F  F448  1  0.54361224  0.25362491  0.20346567  1
  F  F449  1  0.54279274  0.25147432  0.69671336  1
  F  F450  1  0.54855324  0.75051966  0.20639451  1
  F  F451  1  0.54399125  0.74645925  0.69643677  1
  F  F452  1  0.88180354  0.25729323  0.20181841  1
  F  F453  1  0.88031030  0.25854526  0.69536874  1
  F  F454  1  0.87964098  0.74997538  0.20221591  1
  F  F455  1  0.87653854  0.74760786  0.70188062  1
  F  F456  1  0.29033267  -0.00011862  0.30013616  1
  F  F457  1  0.28664613  -0.00131126  0.79308587  1
  F  F458  1  0.28802730  0.49906960  0.30174922  1
  F  F459  1  0.28638718  0.50161052  0.79301066  1
  F  F460  1  0.62355437  0.00000524  0.30143541  1
  F  F461  1  0.61347728  0.00014736  0.79508895  1
  F  F462  1  0.63324551  0.49958285  0.30277877  1
  F  F463  1  0.61837094  0.49922596  0.79609369  1
  F  F464  1  0.95351972  0.00903676  0.30207495  1
  F  F465  1  0.95427507  -0.00348747  0.79938465  1
  F  F466  1  0.95852656  0.50195470  0.29810775  1
  F  F467  1  0.95525868  0.50348823  0.79602868  1
  F  F468  1  0.12411048  0.25199110  0.30193993  1
  F  F469  1  0.12243555  0.25116118  0.79520348  1
  F  F470  1  0.13554390  0.74826419  0.30679055  1
  F  F471  1  0.12023433  0.74592039  0.79660748  1
  F  F472  1  0.45383466  0.24938091  0.29966438  1
  F  F473  1  0.46202759  0.25243989  0.79603875  1
  F  F474  1  0.45262196  0.75719967  0.30377938  1
  F  F475  1  0.44831849  0.74587594  0.79652831  1
  F  F476  1  0.79136236  0.25625966  0.29847754  1
  F  F477  1  0.77753018  0.26322058  0.79921435  1
  F  F478  1  0.79307477  0.74892718  0.30322893  1
  F  F479  1  0.78534078  0.74813559  0.79717702  1
