# generated using pymatgen
data_K24Na3Li5Mg64Fe17Si79(O5F)48
_symmetry_space_group_name_H-M   'P 1'
_cell_length_a   16.08857127
_cell_length_b   18.58497367
_cell_length_c   20.54993536
_cell_angle_alpha   89.99671745
_cell_angle_beta   100.00911663
_cell_angle_gamma   90.01810489
_symmetry_Int_Tables_number   1
_chemical_formula_structural   K24Na3Li5Mg64Fe17Si79(O5F)48
_chemical_formula_sum   'K24 Na3 Li5 Mg64 Fe17 Si79 O240 F48'
_cell_volume   6051.02762852
_cell_formula_units_Z   1
loop_
 _symmetry_equiv_pos_site_id
 _symmetry_equiv_pos_as_xyz
  1  'x, y, z'
loop_
 _atom_site_type_symbol
 _atom_site_label
 _atom_site_symmetry_multiplicity
 _atom_site_fract_x
 _atom_site_fract_y
 _atom_site_fract_z
 _atom_site_occupancy
  K  K0  1  0.00790640  0.00140655  0.00392676  1
  K  K1  1  -0.00430777  0.00356622  0.48815405  1
  K  K2  1  0.00525574  0.49608272  0.00116662  1
  K  K3  1  0.00492796  0.49836001  0.50259272  1
  K  K4  1  0.35114154  0.00172052  0.01632945  1
  K  K5  1  0.34075908  0.00913780  0.48617273  1
  K  K6  1  0.33485150  0.50099954  0.00151746  1
  K  K7  1  0.32245620  0.49792263  0.49939162  1
  K  K8  1  0.66884250  0.00467451  0.00674743  1
  K  K9  1  0.66306364  -0.00174775  0.48527115  1
  K  K10  1  0.66417601  0.49627190  0.00288937  1
  K  K11  1  0.67468334  0.50106786  0.49955975  1
  K  K12  1  0.16179541  0.24992720  0.00892186  1
  K  K13  1  0.15980067  0.24790213  0.49246297  1
  K  K14  1  0.16439383  0.74376584  0.00422743  1
  K  K15  1  0.15653139  0.75338742  0.49757373  1
  K  K16  1  0.50307121  0.24570664  0.00963276  1
  K  K17  1  0.49577303  0.24501559  0.49630672  1
  K  K18  1  0.49243868  0.75386474  0.00923629  1
  K  K19  1  0.49987560  0.76527539  0.49239387  1
  K  K20  1  0.82953646  0.25375809  0.00676366  1
  K  K21  1  0.83127114  0.24733528  0.49399173  1
  K  K22  1  0.83544018  0.74648357  0.01557281  1
  K  K23  1  0.83106288  0.75401019  0.48775651  1
  Na  Na24  1  0.83420212  0.50091815  0.75226389  1
  Na  Na25  1  0.83169729  0.82589341  0.25554601  1
  Na  Na26  1  0.50136236  0.83026869  0.75005929  1
  Li  Li27  1  0.00194910  0.24558264  0.24546819  1
  Li  Li28  1  0.49280192  0.00178388  0.25200953  1
  Li  Li29  1  0.33961472  0.08275154  0.24246000  1
  Li  Li30  1  0.83320269  0.66916542  0.25026927  1
  Li  Li31  1  0.67024026  0.08472643  0.75010136  1
  Mg  Mg32  1  0.83155032  -0.00120911  0.25259686  1
  Mg  Mg33  1  0.50580680  -0.00076744  0.75138909  1
  Mg  Mg34  1  0.83479476  0.50212142  0.24961364  1
  Mg  Mg35  1  0.16902366  0.00186384  0.24854950  1
  Mg  Mg36  1  0.16645260  0.00232122  0.74621432  1
  Mg  Mg37  1  0.66909127  0.24858638  0.25143196  1
  Mg  Mg38  1  0.49934591  0.49873760  0.75389444  1
  Mg  Mg39  1  0.66731651  0.24934009  0.75443780  1
  Mg  Mg40  1  0.66675398  0.74805310  0.75164864  1
  Mg  Mg41  1  0.33357157  0.75130541  0.75056329  1
  Mg  Mg42  1  0.33535479  0.75092729  0.25010104  1
  Mg  Mg43  1  0.33497797  0.24913079  0.74767281  1
  Mg  Mg44  1  -0.00112549  0.24867711  0.74511505  1
  Mg  Mg45  1  -0.00334055  0.74725072  0.24611213  1
  Mg  Mg46  1  0.16598441  0.49963171  0.74716599  1
  Mg  Mg47  1  0.50023079  0.49963890  0.24839544  1
  Mg  Mg48  1  0.83027904  0.00184066  0.74804384  1
  Mg  Mg49  1  0.16558926  0.49949888  0.24518163  1
  Mg  Mg50  1  0.00006915  0.74953201  0.74844037  1
  Mg  Mg51  1  0.66851858  0.75003560  0.25640886  1
  Mg  Mg52  1  0.33442650  0.24736795  0.24693319  1
  Mg  Mg53  1  0.49954163  0.66641984  0.75194379  1
  Mg  Mg54  1  0.66984090  0.58594131  0.25249933  1
  Mg  Mg55  1  0.16466728  0.16627716  0.74524822  1
  Mg  Mg56  1  0.66755450  0.41648001  0.24953713  1
  Mg  Mg57  1  -0.00252147  0.91505183  0.24925082  1
  Mg  Mg58  1  0.33621738  0.08363108  0.74824991  1
  Mg  Mg59  1  0.16377696  0.66535206  0.74723138  1
  Mg  Mg60  1  0.49741135  0.33235888  0.24745850  1
  Mg  Mg61  1  0.16533364  0.66607107  0.24655999  1
  Mg  Mg62  1  0.83012023  0.16383420  0.74830489  1
  Mg  Mg63  1  -0.00031022  0.41598109  0.74872541  1
  Mg  Mg64  1  0.50709174  0.16388574  0.75262967  1
  Mg  Mg65  1  -0.00043825  0.41423585  0.24865289  1
  Mg  Mg66  1  0.00235406  0.58438603  0.74828696  1
  Mg  Mg67  1  0.83505492  0.16489689  0.24875301  1
  Mg  Mg68  1  0.66659225  0.58242655  0.75310239  1
  Mg  Mg69  1  0.66621311  0.91664670  0.75262505  1
  Mg  Mg70  1  0.33561789  0.91710389  0.74829641  1
  Mg  Mg71  1  0.50232678  0.33307463  0.75413892  1
  Mg  Mg72  1  0.66462452  0.91622720  0.25612834  1
  Mg  Mg73  1  0.16624322  0.16587403  0.24758281  1
  Mg  Mg74  1  0.33124052  0.41555618  0.74865095  1
  Mg  Mg75  1  -0.00065027  0.08542010  0.24854983  1
  Mg  Mg76  1  0.33594131  0.92051850  0.24975170  1
  Mg  Mg77  1  0.83482021  0.66484820  0.75032602  1
  Mg  Mg78  1  0.50169316  0.83623845  0.25282980  1
  Mg  Mg79  1  0.83179263  0.83401545  0.74999192  1
  Mg  Mg80  1  0.33095288  0.58548496  0.74828521  1
  Mg  Mg81  1  0.33251863  0.58408325  0.24720175  1
  Mg  Mg82  1  0.66612063  0.08281387  0.25043815  1
  Mg  Mg83  1  0.16526028  0.83565816  0.74637402  1
  Mg  Mg84  1  0.16573733  0.83351651  0.24919875  1
  Mg  Mg85  1  -0.00324336  0.91724354  0.74606021  1
  Mg  Mg86  1  0.83298326  0.33417222  0.75345343  1
  Mg  Mg87  1  0.49950870  0.66620682  0.25245553  1
  Mg  Mg88  1  0.33063659  0.41372418  0.24518838  1
  Mg  Mg89  1  -0.00279036  0.58581786  0.24771339  1
  Mg  Mg90  1  0.83740337  0.33240421  0.25049953  1
  Mg  Mg91  1  -0.00429016  0.08530473  0.74488224  1
  Mg  Mg92  1  0.16196474  0.33059989  0.24640544  1
  Mg  Mg93  1  0.16483043  0.33468171  0.74485278  1
  Mg  Mg94  1  0.66780030  0.41544040  0.75612392  1
  Mg  Mg95  1  0.49875106  0.16229829  0.24849950  1
  Fe  Fe96  1  0.35900223  0.16368478  0.10706250  1
  Fe  Fe97  1  0.64332156  0.82955098  0.39632292  1
  Fe  Fe98  1  0.35960812  0.66626731  0.11071435  1
  Fe  Fe99  1  0.02094520  0.66551558  0.10779849  1
  Fe  Fe100  1  0.19202561  0.41545990  0.60690055  1
  Fe  Fe101  1  0.85087270  0.08044025  0.60671038  1
  Fe  Fe102  1  0.97978783  0.17104670  0.38896748  1
  Fe  Fe103  1  0.80618712  0.08463745  0.39175872  1
  Fe  Fe104  1  0.02351595  0.16228218  0.10728406  1
  Fe  Fe105  1  0.35855716  0.33586297  0.10599184  1
  Fe  Fe106  1  0.47338857  0.92445356  0.39182654  1
  Fe  Fe107  1  0.64354704  0.33486100  0.89542865  1
  Fe  Fe108  1  0.02077628  0.66984278  0.60647549  1
  Fe  Fe109  1  0.02429853  0.16319450  0.60578736  1
  Fe  Fe110  1  0.69693040  0.16854560  0.11103181  1
  Fe  Fe111  1  0.14084822  0.57940577  0.88898761  1
  Fe  Fe112  1  0.01984421  0.33406997  0.10823109  1
  Si  Si113  1  0.81391432  0.91516907  0.39225905  1
  Si  Si114  1  0.01958087  0.84177105  0.61021894  1
  Si  Si115  1  0.30744663  0.67204752  0.88561408  1
  Si  Si116  1  0.97269009  0.16561586  0.88476946  1
  Si  Si117  1  0.97675766  0.83483051  0.88433195  1
  Si  Si118  1  0.14361963  0.58583530  0.38475235  1
  Si  Si119  1  0.01587271  0.33407372  0.60858315  1
  Si  Si120  1  0.19219762  0.91884191  0.61165820  1
  Si  Si121  1  0.63994632  0.66569891  0.88890886  1
  Si  Si122  1  0.52782569  0.41827325  0.61800800  1
  Si  Si123  1  0.01914034  0.83568579  0.11113025  1
  Si  Si124  1  0.63575034  0.17219439  0.38813657  1
  Si  Si125  1  0.30246841  0.33315817  0.38383446  1
  Si  Si126  1  0.20114126  0.08526446  0.61066357  1
  Si  Si127  1  0.80998086  0.41820338  0.38668644  1
  Si  Si128  1  0.64129282  0.33793835  0.38553700  1
  Si  Si129  1  0.14519164  0.07735014  0.38657794  1
  Si  Si130  1  0.85383626  0.58169911  0.11407780  1
  Si  Si131  1  0.19079824  0.41929253  0.11081968  1
  Si  Si132  1  0.47661615  0.91789428  0.88534621  1
  Si  Si133  1  0.14169452  0.91220416  0.38420933  1
  Si  Si134  1  0.19223624  0.07929835  0.11041527  1
  Si  Si135  1  0.80632345  0.58871890  0.88728458  1
  Si  Si136  1  0.19684537  0.58937358  0.60745785  1
  Si  Si137  1  0.97342620  0.33156025  0.88514652  1
  Si  Si138  1  0.97783478  0.34138489  0.38770354  1
  Si  Si139  1  0.85557163  0.41596097  0.61656127  1
  Si  Si140  1  0.53123415  0.58528007  0.11432363  1
  Si  Si141  1  0.81066510  0.58206481  0.38574385  1
  Si  Si142  1  0.97091772  0.66902319  0.88779401  1
  Si  Si143  1  0.68758675  0.83058645  0.11700031  1
  Si  Si144  1  0.36941486  0.16355937  0.61518412  1
  Si  Si145  1  0.69111910  0.17473894  0.61477334  1
  Si  Si146  1  0.85307467  0.91602058  0.11687743  1
  Si  Si147  1  0.18749519  0.91573395  0.11455571  1
  Si  Si148  1  0.81158916  0.42045953  0.89076372  1
  Si  Si149  1  0.53375623  0.08214995  0.61665437  1
  Si  Si150  1  0.86022810  0.07654993  0.11023239  1
  Si  Si151  1  0.14231655  0.40847760  0.88548403  1
  Si  Si152  1  0.30628456  0.32838918  0.88274849  1
  Si  Si153  1  0.85576670  0.58281757  0.61258043  1
  Si  Si154  1  0.68944169  0.82709126  0.61663862  1
  Si  Si155  1  0.31000444  0.16396172  0.88283420  1
  Si  Si156  1  0.52545963  0.58197661  0.61780292  1
  Si  Si157  1  0.47668890  0.08103065  0.88610966  1
  Si  Si158  1  0.30938920  0.66633085  0.38536829  1
  Si  Si159  1  0.36465351  0.67046469  0.61394131  1
  Si  Si160  1  0.52884209  0.91855405  0.61572260  1
  Si  Si161  1  0.30612870  0.83164159  0.38678993  1
  Si  Si162  1  0.35433034  0.83614759  0.11238410  1
  Si  Si163  1  0.97983474  0.83031174  0.38467471  1
  Si  Si164  1  0.84811788  0.91392216  0.61353785  1
  Si  Si165  1  0.69375837  0.33740713  0.11608082  1
  Si  Si166  1  0.30195110  0.16984782  0.38287388  1
  Si  Si167  1  0.53194813  0.08032242  0.11072287  1
  Si  Si168  1  0.19185232  0.58171920  0.11155178  1
  Si  Si169  1  0.69063233  0.33674941  0.61728883  1
  Si  Si170  1  0.68993039  0.66292425  0.61641377  1
  Si  Si171  1  0.80964151  0.91468461  0.88731227  1
  Si  Si172  1  0.14208397  0.91937679  0.88310927  1
  Si  Si173  1  0.85506158  0.42166264  0.11414040  1
  Si  Si174  1  0.35803174  0.83598247  0.61373386  1
  Si  Si175  1  0.36671712  0.33027923  0.61270979  1
  Si  Si176  1  0.69374842  0.66729209  0.11840054  1
  Si  Si177  1  0.80924297  0.07994492  0.88586625  1
  Si  Si178  1  0.47113705  0.58591092  0.88578667  1
  Si  Si179  1  0.47231641  0.57736344  0.38700604  1
  Si  Si180  1  0.47070646  0.41351124  0.38532807  1
  Si  Si181  1  0.46693497  0.41866851  0.88869361  1
  Si  Si182  1  0.64454354  0.16317973  0.88915260  1
  Si  Si183  1  0.52583829  0.91371327  0.11618716  1
  Si  Si184  1  0.14230327  0.42262128  0.38402246  1
  Si  Si185  1  0.30944540  0.83815010  0.88424746  1
  Si  Si186  1  0.14131618  0.08528670  0.88321725  1
  Si  Si187  1  0.53138264  0.41992182  0.11366436  1
  Si  Si188  1  0.64074744  0.65774416  0.39117185  1
  Si  Si189  1  0.97658439  0.66530230  0.38507735  1
  Si  Si190  1  0.47104437  0.09446855  0.38659036  1
  Si  Si191  1  0.64476285  0.83195892  0.88759850  1
  O  O192  1  0.27614383  0.09401218  0.07860315  1
  O  O193  1  0.28885928  0.11245045  0.58602791  1
  O  O194  1  0.27749587  0.59641349  0.08153041  1
  O  O195  1  0.28261692  0.62328300  0.58203676  1
  O  O196  1  0.61188183  0.10376800  0.07625656  1
  O  O197  1  0.60999680  0.12122883  0.58692658  1
  O  O198  1  0.61729645  0.61173202  0.08701667  1
  O  O199  1  0.60796519  0.61115884  0.58858169  1
  O  O200  1  0.94574750  0.08725774  0.07975123  1
  O  O201  1  0.95109676  0.08984006  0.57591471  1
  O  O202  1  0.92970915  0.60374312  0.07517724  1
  O  O203  1  0.92891899  0.60804715  0.57255969  1
  O  O204  1  0.11884010  0.36369486  0.07676488  1
  O  O205  1  0.09440310  0.36233669  0.57487714  1
  O  O206  1  0.10347743  0.86724108  0.08345950  1
  O  O207  1  0.10202044  0.87907902  0.58360347  1
  O  O208  1  0.45914310  0.36747739  0.07649670  1
  O  O209  1  0.45196173  0.36276149  0.58691566  1
  O  O210  1  0.43628992  0.87185642  0.08434688  1
  O  O211  1  0.43815971  0.87642633  0.58855743  1
  O  O212  1  0.77821921  0.36441169  0.08790249  1
  O  O213  1  0.77212709  0.36593009  0.58607862  1
  O  O214  1  0.77114608  0.86259588  0.08898718  1
  O  O215  1  0.77579194  0.85031346  0.58992922  1
  O  O216  1  0.27702512  0.40838389  0.08093997  1
  O  O217  1  0.28690656  0.37516093  0.57575055  1
  O  O218  1  0.27031795  0.88689705  0.08463886  1
  O  O219  1  0.26834595  0.87641911  0.58203875  1
  O  O220  1  0.62236373  0.40024548  0.09148800  1
  O  O221  1  0.61276504  0.39332549  0.58957734  1
  O  O222  1  0.60161606  0.87480385  0.08177059  1
  O  O223  1  0.60536080  0.87560802  0.58767075  1
  O  O224  1  0.93419814  0.40430861  0.07855830  1
  O  O225  1  0.93624276  0.39159670  0.58321456  1
  O  O226  1  0.93581194  0.88803632  0.08509030  1
  O  O227  1  0.93630124  0.89331101  0.58642456  1
  O  O228  1  0.11835687  0.13133501  0.07181274  1
  O  O229  1  0.12821098  0.13894928  0.57785597  1
  O  O230  1  0.12100444  0.63948286  0.07886111  1
  O  O231  1  0.12014951  0.64244960  0.57626977  1
  O  O232  1  0.45117206  0.12537267  0.07237830  1
  O  O233  1  0.44844635  0.12872650  0.58545692  1
  O  O234  1  0.45716225  0.63747948  0.07818523  1
  O  O235  1  0.44589636  0.63413821  0.58715115  1
  O  O236  1  0.79010822  0.13457106  0.07606883  1
  O  O237  1  0.77002564  0.15380795  0.58021922  1
  O  O238  1  0.77580615  0.63892764  0.08832788  1
  O  O239  1  0.76823963  0.62989851  0.58479039  1
  O  O240  1  0.07197558  0.10880520  0.42264847  1
  O  O241  1  0.06313819  0.12364837  0.91208377  1
  O  O242  1  0.06428408  0.62028752  0.41566428  1
  O  O243  1  0.04762427  0.61895546  0.92188417  1
  O  O244  1  0.39278144  0.13513040  0.41622557  1
  O  O245  1  0.39418814  0.11598364  0.91215122  1
  O  O246  1  0.39628894  0.62075980  0.41553831  1
  O  O247  1  0.39779554  0.63076417  0.91391820  1
  O  O248  1  0.71092690  0.12185156  0.42418111  1
  O  O249  1  0.72872496  0.11249261  0.91538972  1
  O  O250  1  0.73065029  0.61385975  0.41741858  1
  O  O251  1  0.72470894  0.61904212  0.91937946  1
  O  O252  1  0.22905334  0.37747160  0.41490944  1
  O  O253  1  0.22143481  0.35222215  0.91025197  1
  O  O254  1  0.21883679  0.85676148  0.41311501  1
  O  O255  1  0.23067693  0.87693781  0.91272909  1
  O  O256  1  0.56282636  0.37655856  0.41603566  1
  O  O257  1  0.54941102  0.37705853  0.92532702  1
  O  O258  1  0.56465972  0.87491549  0.43821954  1
  O  O259  1  0.56356696  0.87136659  0.91283268  1
  O  O260  1  0.89569262  0.37431813  0.41888242  1
  O  O261  1  0.90043120  0.37526004  0.91581358  1
  O  O262  1  0.90133463  0.86484349  0.41369372  1
  O  O263  1  0.89879354  0.87197643  0.91490251  1
  O  O264  1  0.05970926  0.39611016  0.41416273  1
  O  O265  1  0.06264653  0.37139225  0.91412340  1
  O  O266  1  0.06331037  0.87872014  0.41733189  1
  O  O267  1  0.06393179  0.88060783  0.91224913  1
  O  O268  1  0.39585258  0.36969005  0.41467339  1
  O  O269  1  0.38258464  0.38398006  0.91280531  1
  O  O270  1  0.38091217  0.88067806  0.42561138  1
  O  O271  1  0.39751297  0.88069523  0.91510699  1
  O  O272  1  0.72775210  0.38413404  0.41545328  1
  O  O273  1  0.73916091  0.39187678  0.93006601  1
  O  O274  1  0.74688093  0.87315773  0.42982822  1
  O  O275  1  0.73311500  0.87496187  0.91901172  1
  O  O276  1  0.23262819  0.12302933  0.41563209  1
  O  O277  1  0.22918750  0.12931971  0.91149211  1
  O  O278  1  0.23018117  0.63090522  0.41604453  1
  O  O279  1  0.23456915  0.63938272  0.92106633  1
  O  O280  1  0.54995270  0.14952734  0.41656261  1
  O  O281  1  0.56322158  0.12401896  0.91581176  1
  O  O282  1  0.56562041  0.60937991  0.41865444  1
  O  O283  1  0.56094136  0.62650711  0.91615977  1
  O  O284  1  0.89144269  0.14555085  0.42979536  1
  O  O285  1  0.89784875  0.12343790  0.91539271  1
  O  O286  1  0.89754413  0.62793569  0.41502528  1
  O  O287  1  0.88417901  0.64384372  0.91526961  1
  O  O288  1  0.16321692  -0.00451782  0.08478378  1
  O  O289  1  0.18755753  0.00126060  0.58328912  1
  O  O290  1  0.15436051  0.50123120  0.08943075  1
  O  O291  1  0.18304777  0.51027225  0.57368848  1
  O  O292  1  0.51438599  -0.00532745  0.08532230  1
  O  O293  1  0.52067090  0.00038165  0.58474153  1
  O  O294  1  0.51150584  0.50293512  0.08620868  1
  O  O295  1  0.50419443  0.50002802  0.58859793  1
  O  O296  1  0.82438905  -0.00553257  0.08397851  1
  O  O297  1  0.80712027  -0.01257603  0.58260465  1
  O  O298  1  0.81643981  0.50158765  0.08827072  1
  O  O299  1  0.82851826  0.49842333  0.59148007  1
  O  O300  1  -0.01405582  0.24813467  0.06638043  1
  O  O301  1  -0.01695027  0.25601223  0.58023650  1
  O  O302  1  -0.00355867  0.75946178  0.07432052  1
  O  O303  1  0.00065453  0.76509834  0.57406402  1
  O  O304  1  0.32637819  0.25020532  0.06351655  1
  O  O305  1  0.35811369  0.24585719  0.58611395  1
  O  O306  1  0.33472959  0.75942537  0.07499884  1
  O  O307  1  0.35481000  0.75307978  0.58417851  1
  O  O308  1  0.66344609  0.26247033  0.08050191  1
  O  O309  1  0.66025500  0.25744436  0.58755926  1
  O  O310  1  0.67335502  0.74810827  0.08554026  1
  O  O311  1  0.66718221  0.74474951  0.58891746  1
  O  O312  1  0.16493416  -0.00697925  0.41428159  1
  O  O313  1  0.15016353  0.00205968  0.91227003  1
  O  O314  1  0.16121368  0.50430797  0.41483336  1
  O  O315  1  0.16460292  0.48507960  0.92120356  1
  O  O316  1  0.48459124  0.01905468  0.42688730  1
  O  O317  1  0.48858835  -0.00088280  0.91747853  1
  O  O318  1  0.47088416  0.49507399  0.41726897  1
  O  O319  1  0.47281694  0.50371542  0.91475105  1
  O  O320  1  0.83510426  -0.00728409  0.42775543  1
  O  O321  1  0.82137895  -0.00304572  0.91604065  1
  O  O322  1  0.82395592  0.50008785  0.41812176  1
  O  O323  1  0.83058772  0.50646257  0.91294036  1
  O  O324  1  0.30338321  0.25222061  0.41566882  1
  O  O325  1  0.32951799  0.24616956  0.90989222  1
  O  O326  1  0.32329599  0.74762652  0.41547132  1
  O  O327  1  0.32281716  0.75621766  0.91213843  1
  O  O328  1  0.65340617  0.25697332  0.41616815  1
  O  O329  1  0.66053613  0.23975496  0.92621496  1
  O  O330  1  0.64683874  0.73290047  0.42983395  1
  O  O331  1  0.65054558  0.74889706  0.91808780  1
  O  O332  1  1.00549477  0.26556825  0.42187822  1
  O  O333  1  0.97916253  0.24829033  0.91340659  1
  O  O334  1  0.99201309  0.74738411  0.41600046  1
  O  O335  1  0.98939793  0.75335762  0.91391762  1
  O  O336  1  0.20463370  0.08194509  0.19085297  1
  O  O337  1  0.21460281  0.08310979  0.69217921  1
  O  O338  1  0.21059308  0.58412366  0.19361403  1
  O  O339  1  0.21396629  0.58684292  0.68916977  1
  O  O340  1  0.54801336  0.08742898  0.19078419  1
  O  O341  1  0.54403157  0.08204696  0.69646416  1
  O  O342  1  0.54479557  0.58426609  0.19553496  1
  O  O343  1  0.54169902  0.58217063  0.69827041  1
  O  O344  1  0.87579263  0.07896024  0.19120547  1
  O  O345  1  0.87519605  0.08247894  0.69972660  1
  O  O346  1  0.87767267  0.58021488  0.19398313  1
  O  O347  1  0.88050781  0.59167788  0.69213644  1
  O  O348  1  0.04337032  0.33559506  0.19944876  1
  O  O349  1  0.04044890  0.33418982  0.69068327  1
  O  O350  1  0.04148568  0.83310011  0.19180954  1
  O  O351  1  0.04186076  0.83703995  0.69173521  1
  O  O352  1  0.37820433  0.33379618  0.19888794  1
  O  O353  1  0.38031745  0.33238272  0.69388589  1
  O  O354  1  0.37356222  0.83201937  0.19285092  1
  O  O355  1  0.36707549  0.83374605  0.69308433  1
  O  O356  1  0.71108727  0.33542787  0.19720492  1
  O  O357  1  0.71024713  0.33592011  0.69754255  1
  O  O358  1  0.69965861  0.83099182  0.19575644  1
  O  O359  1  0.70762028  0.83036095  0.69722019  1
  O  O360  1  0.20876437  0.41633669  0.19284916  1
  O  O361  1  0.21263571  0.41670619  0.69910556  1
  O  O362  1  0.20758686  0.91363406  0.19483467  1
  O  O363  1  0.21047422  0.91809060  0.69261264  1
  O  O364  1  0.54368967  0.41816802  0.19500785  1
  O  O365  1  0.54134117  0.41801712  0.69823026  1
  O  O366  1  0.54556822  0.91055667  0.19491903  1
  O  O367  1  0.54815101  0.92163378  0.69504999  1
  O  O368  1  0.87502287  0.41900385  0.19530621  1
  O  O369  1  0.87824103  0.40899023  0.69574778  1
  O  O370  1  0.87752460  0.91933728  0.19591180  1
  O  O371  1  0.87247866  0.91440465  0.69515107  1
  O  O372  1  0.04785624  0.16282944  0.19771500  1
  O  O373  1  0.04534801  0.16563223  0.69905063  1
  O  O374  1  0.04563245  0.66526560  0.19910483  1
  O  O375  1  0.04317214  0.67011452  0.69848182  1
  O  O376  1  0.38163139  0.17047919  0.19738429  1
  O  O377  1  0.38283235  0.16502906  0.69582712  1
  O  O378  1  0.37945234  0.66661425  0.20258220  1
  O  O379  1  0.37839488  0.66902989  0.69454021  1
  O  O380  1  0.71179173  0.16856726  0.20226171  1
  O  O381  1  0.70957371  0.17330301  0.69517761  1
  O  O382  1  0.70486493  0.66776748  0.19774116  1
  O  O383  1  0.70956779  0.66378177  0.69690265  1
  O  O384  1  0.12605524  0.07956590  0.30638176  1
  O  O385  1  0.12535645  0.08277408  0.80290357  1
  O  O386  1  0.12653471  0.58410204  0.30495303  1
  O  O387  1  0.12535148  0.58237976  0.79709999  1
  O  O388  1  0.45779689  0.08815413  0.30781540  1
  O  O389  1  0.45840901  0.08175623  0.80547411  1
  O  O390  1  0.45637803  0.57917887  0.30696037  1
  O  O391  1  0.45534638  0.58417059  0.80512299  1
  O  O392  1  0.78925007  0.08287342  0.30015498  1
  O  O393  1  0.79284607  0.08132157  0.80635086  1
  O  O394  1  0.78982347  0.57862188  0.30658288  1
  O  O395  1  0.78366151  0.59254755  0.80780842  1
  O  O396  1  0.28735119  0.33568088  0.30424739  1
  O  O397  1  0.29185458  0.32982023  0.80211294  1
  O  O398  1  0.28972415  0.83103092  0.30606124  1
  O  O399  1  0.28996999  0.83780335  0.80370883  1
  O  O400  1  0.62235762  0.33799704  0.30548160  1
  O  O401  1  0.62117719  0.33347065  0.80300722  1
  O  O402  1  0.62110797  0.83120059  0.30468066  1
  O  O403  1  0.63433302  0.83018078  0.80851370  1
  O  O404  1  0.95329612  0.34320360  0.30836996  1
  O  O405  1  0.95668874  0.33195716  0.80459270  1
  O  O406  1  0.96996783  0.82958098  0.30574781  1
  O  O407  1  0.95753418  0.83517423  0.80372386  1
  O  O408  1  0.12582275  0.42041252  0.30431594  1
  O  O409  1  0.12323125  0.41288656  0.80442081  1
  O  O410  1  0.12238905  0.91363433  0.30414572  1
  O  O411  1  0.12423960  0.91800646  0.80255812  1
  O  O412  1  0.45637674  0.41705370  0.30558397  1
  O  O413  1  0.45375731  0.41695437  0.80724806  1
  O  O414  1  0.45263307  0.91307423  0.30221896  1
  O  O415  1  0.45315896  0.92221029  0.80621368  1
  O  O416  1  0.79033157  0.41838271  0.30654607  1
  O  O417  1  0.78628908  0.41112828  0.81120314  1
  O  O418  1  0.78696786  0.92106321  0.31255977  1
  O  O419  1  0.79088340  0.91400936  0.80702352  1
  O  O420  1  0.28534007  0.17202922  0.30397977  1
  O  O421  1  0.29098243  0.16405211  0.80201443  1
  O  O422  1  0.28956284  0.66483732  0.30542471  1
  O  O423  1  0.28918443  0.66888308  0.80430811  1
  O  O424  1  0.62108237  0.17084121  0.30772049  1
  O  O425  1  0.62380380  0.16783195  0.80888698  1
  O  O426  1  0.62010019  0.66077702  0.31053256  1
  O  O427  1  0.62231633  0.66613035  0.80839806  1
  O  O428  1  0.95363399  0.16438781  0.29914468  1
  O  O429  1  0.95567322  0.16625648  0.80474327  1
  O  O430  1  0.96096168  0.66528206  0.30610043  1
  O  O431  1  0.95497626  0.66856356  0.80681947  1
  F  F432  1  0.04652867  -0.00301430  0.20382004  1
  F  F433  1  0.04665885  -0.00097494  0.70112930  1
  F  F434  1  0.04455274  0.50130443  0.20309241  1
  F  F435  1  0.04507364  0.49782040  0.69744774  1
  F  F436  1  0.37468611  -0.00286602  0.19795587  1
  F  F437  1  0.38115661  0.00015182  0.70093040  1
  F  F438  1  0.38029597  0.50000770  0.20255825  1
  F  F439  1  0.38022270  0.50088130  0.70236860  1
  F  F440  1  0.71056057  -0.00525966  0.20254538  1
  F  F441  1  0.71097762  -0.00480488  0.70474439  1
  F  F442  1  0.71119265  0.50123474  0.20425911  1
  F  F443  1  0.69727919  0.49931432  0.70300376  1
  F  F444  1  0.21265776  0.25082094  0.19933780  1
  F  F445  1  0.21503362  0.24882504  0.69936880  1
  F  F446  1  0.21332454  0.75029752  0.20195403  1
  F  F447  1  0.21251564  0.75216169  0.70187573  1
  F  F448  1  0.54778656  0.25188093  0.20393200  1
  F  F449  1  0.54429084  0.24892879  0.70324024  1
  F  F450  1  0.54395779  0.74671123  0.20569008  1
  F  F451  1  0.55042710  0.73853900  0.69996729  1
  F  F452  1  0.87025499  0.25156786  0.20045044  1
  F  F453  1  0.87592715  0.25024562  0.70423058  1
  F  F454  1  0.88283914  0.74177785  0.19552483  1
  F  F455  1  0.87737723  0.75123703  0.70324439  1
  F  F456  1  0.28316062  -0.00675211  0.30077492  1
  F  F457  1  0.28777797  0.00052621  0.79584894  1
  F  F458  1  0.28806524  0.49972036  0.29576569  1
  F  F459  1  0.29006334  0.50256120  0.79688099  1
  F  F460  1  0.62309452  0.00195533  0.29986839  1
  F  F461  1  0.61935644  -0.00865261  0.80621837  1
  F  F462  1  0.62062323  0.49975652  0.29899751  1
  F  F463  1  0.61867464  0.50152476  0.80409820  1
  F  F464  1  0.95604221  -0.00175239  0.29872816  1
  F  F465  1  0.95649275  -0.00240927  0.79767717  1
  F  F466  1  0.95622058  0.50184056  0.29855809  1
  F  F467  1  0.96856808  0.50054165  0.79946289  1
  F  F468  1  0.13146264  0.24983465  0.30121558  1
  F  F469  1  0.12321085  0.25124402  0.79490065  1
  F  F470  1  0.12385691  0.74963032  0.29709814  1
  F  F471  1  0.12234490  0.75566869  0.79737073  1
  F  F472  1  0.45671331  0.25331089  0.30133890  1
  F  F473  1  0.45430393  0.24798745  0.79870227  1
  F  F474  1  0.45467698  0.74921951  0.30238901  1
  F  F475  1  0.44989470  0.74188217  0.80284820  1
  F  F476  1  0.78783593  0.25633341  0.30301541  1
  F  F477  1  0.78934856  0.24888406  0.80068124  1
  F  F478  1  0.78079836  0.73769018  0.31015170  1
  F  F479  1  0.78905227  0.74986055  0.79861518  1
