# generated using pymatgen
data_K24Na3Li5Mg64Fe17Si79(O5F)48
_symmetry_space_group_name_H-M   'P 1'
_cell_length_a   16.09012102
_cell_length_b   18.58116413
_cell_length_c   20.54454686
_cell_angle_alpha   89.99183531
_cell_angle_beta   100.02745599
_cell_angle_gamma   90.00093122
_symmetry_Int_Tables_number   1
_chemical_formula_structural   K24Na3Li5Mg64Fe17Si79(O5F)48
_chemical_formula_sum   'K24 Na3 Li5 Mg64 Fe17 Si79 O240 F48'
_cell_volume   6048.44177018
_cell_formula_units_Z   1
loop_
 _symmetry_equiv_pos_site_id
 _symmetry_equiv_pos_as_xyz
  1  'x, y, z'
loop_
 _atom_site_type_symbol
 _atom_site_label
 _atom_site_symmetry_multiplicity
 _atom_site_fract_x
 _atom_site_fract_y
 _atom_site_fract_z
 _atom_site_occupancy
  K  K0  1  -0.00088020  -0.00948460  -0.00438941  1
  K  K1  1  0.00280992  -0.00878475  0.50225498  1
  K  K2  1  0.00114296  0.49795239  -0.00652170  1
  K  K3  1  -0.00134250  0.49891636  0.50239170  1
  K  K4  1  0.32558609  -0.00240288  -0.00416811  1
  K  K5  1  0.33263172  0.00013337  0.50495653  1
  K  K6  1  0.33906688  0.49975423  -0.00253601  1
  K  K7  1  0.33333836  0.50585801  0.51037256  1
  K  K8  1  0.66590429  0.00365325  -0.01501295  1
  K  K9  1  0.67392355  0.00880912  0.50804276  1
  K  K10  1  0.65590704  0.50516440  -0.00296474  1
  K  K11  1  0.67184573  0.49553114  0.50243147  1
  K  K12  1  0.16938671  0.24788924  -0.00139528  1
  K  K13  1  0.17764172  0.25409874  0.49678583  1
  K  K14  1  0.16651355  0.75627326  -0.00413779  1
  K  K15  1  0.17161013  0.75885572  0.50609825  1
  K  K16  1  0.49286356  0.25047311  -0.00405190  1
  K  K17  1  0.50599506  0.23805034  0.50342965  1
  K  K18  1  0.50022353  0.74369454  -0.00981352  1
  K  K19  1  0.48775566  0.75788811  0.51303623  1
  K  K20  1  0.83922026  0.24781146  -0.00520356  1
  K  K21  1  0.82850428  0.25101126  0.50351456  1
  K  K22  1  0.82832234  0.75246528  -0.00655171  1
  K  K23  1  0.84426041  0.75071817  0.50239359  1
  Na  Na24  1  0.49781995  0.00017979  0.25262513  1
  Na  Na25  1  0.66511866  0.91930219  0.75759050  1
  Na  Na26  1  0.00062215  0.58011701  0.75533493  1
  Li  Li27  1  0.33599647  0.75231819  0.74759022  1
  Li  Li28  1  0.49661172  0.50421388  0.74923860  1
  Li  Li29  1  0.16776981  0.33178212  0.25060320  1
  Li  Li30  1  0.33393366  0.91296960  0.74720019  1
  Li  Li31  1  0.16637929  0.83640758  0.24661214  1
  Mg  Mg32  1  0.83316021  0.00082549  0.74864140  1
  Mg  Mg33  1  0.83281473  0.50121109  0.75406772  1
  Mg  Mg34  1  0.83342518  0.49859735  0.25122785  1
  Mg  Mg35  1  0.83623833  -0.00058083  0.25177608  1
  Mg  Mg36  1  0.00421723  0.25091700  0.25073332  1
  Mg  Mg37  1  0.66848699  0.25169047  0.74998613  1
  Mg  Mg38  1  -0.00056210  0.24847368  0.74827526  1
  Mg  Mg39  1  0.16919313  -0.00157223  0.74579784  1
  Mg  Mg40  1  0.66551117  0.24949539  0.24981028  1
  Mg  Mg41  1  0.16693283  0.49721546  0.24999461  1
  Mg  Mg42  1  0.66822790  0.75305491  0.24923054  1
  Mg  Mg43  1  0.16649237  0.50051747  0.75106152  1
  Mg  Mg44  1  0.33027874  0.75212391  0.24642638  1
  Mg  Mg45  1  0.66100466  0.75053740  0.75399107  1
  Mg  Mg46  1  0.16878626  -0.00170605  0.24922406  1
  Mg  Mg47  1  0.50217019  0.49973192  0.24681052  1
  Mg  Mg48  1  0.00074048  0.74682146  0.75330795  1
  Mg  Mg49  1  0.32970389  0.25085323  0.24859489  1
  Mg  Mg50  1  0.49806062  0.00030939  0.75217020  1
  Mg  Mg51  1  0.00314927  0.75063835  0.25131103  1
  Mg  Mg52  1  0.33298895  0.24687466  0.74950059  1
  Mg  Mg53  1  0.66728926  0.41507239  0.25019953  1
  Mg  Mg54  1  -0.00197056  0.58267772  0.25006019  1
  Mg  Mg55  1  0.16569776  0.66702195  0.24822992  1
  Mg  Mg56  1  0.49921048  0.33557007  0.24777491  1
  Mg  Mg57  1  -0.00040427  0.08349317  0.74582324  1
  Mg  Mg58  1  0.83487919  0.33485182  0.75045769  1
  Mg  Mg59  1  0.83543455  0.16572219  0.25008504  1
  Mg  Mg60  1  0.16464287  0.16360635  0.74677519  1
  Mg  Mg61  1  0.66854795  0.58554026  0.24903098  1
  Mg  Mg62  1  0.17225089  0.83180857  0.74601680  1
  Mg  Mg63  1  0.66056185  0.58394642  0.75069975  1
  Mg  Mg64  1  0.33184172  0.41544664  0.24856374  1
  Mg  Mg65  1  0.66336927  0.41930492  0.74997643  1
  Mg  Mg66  1  0.00174270  0.41449691  0.25215830  1
  Mg  Mg67  1  0.00598565  0.91260660  0.25064699  1
  Mg  Mg68  1  0.00125701  0.41553475  0.75326040  1
  Mg  Mg69  1  0.49926045  0.33625430  0.74958815  1
  Mg  Mg70  1  0.50069356  0.66698937  0.24762513  1
  Mg  Mg71  1  0.83563500  0.66522788  0.25147408  1
  Mg  Mg72  1  0.33269928  0.07949333  0.74885957  1
  Mg  Mg73  1  0.33392599  0.58537646  0.75042683  1
  Mg  Mg74  1  0.50132349  0.16539345  0.75022229  1
  Mg  Mg75  1  0.49640305  0.16519387  0.25017081  1
  Mg  Mg76  1  0.16519456  0.33336517  0.75055165  1
  Mg  Mg77  1  0.32963897  0.08402805  0.24939409  1
  Mg  Mg78  1  0.66908073  0.08652463  0.75258452  1
  Mg  Mg79  1  0.33352720  0.58438366  0.24852129  1
  Mg  Mg80  1  0.66618255  0.08333921  0.25087264  1
  Mg  Mg81  1  0.83782957  0.83474852  0.25276818  1
  Mg  Mg82  1  0.00406628  0.08376413  0.24936575  1
  Mg  Mg83  1  -0.00112639  0.91350258  0.74853124  1
  Mg  Mg84  1  0.16968021  0.66635254  0.74953441  1
  Mg  Mg85  1  0.49792310  0.83512216  0.24772442  1
  Mg  Mg86  1  0.83045311  0.83400134  0.75198698  1
  Mg  Mg87  1  0.83126724  0.66671561  0.75399613  1
  Mg  Mg88  1  0.49549753  0.66607857  0.75089678  1
  Mg  Mg89  1  0.49400836  0.83347800  0.75220638  1
  Mg  Mg90  1  0.83388114  0.33413759  0.25131674  1
  Mg  Mg91  1  0.16966620  0.16798413  0.24944058  1
  Mg  Mg92  1  0.32824798  0.91603157  0.24725764  1
  Mg  Mg93  1  0.83459525  0.16478816  0.75044307  1
  Mg  Mg94  1  0.33440150  0.41717768  0.74843351  1
  Mg  Mg95  1  0.66713662  0.91853315  0.25216658  1
  Fe  Fe96  1  0.80858327  0.41237479  0.39203556  1
  Fe  Fe97  1  0.97817765  0.33155861  0.88994946  1
  Fe  Fe98  1  0.35482093  0.66870532  0.60892543  1
  Fe  Fe99  1  0.02761437  0.17199315  0.60542616  1
  Fe  Fe100  1  0.18651417  0.91262693  0.10743160  1
  Fe  Fe101  1  0.86560332  0.07545238  0.60665181  1
  Fe  Fe102  1  0.80884360  0.91977441  0.89194282  1
  Fe  Fe103  1  0.97809002  0.83554895  0.39259601  1
  Fe  Fe104  1  0.52988655  0.41536460  0.10810110  1
  Fe  Fe105  1  0.63770609  0.66160148  0.89145035  1
  Fe  Fe106  1  0.14670821  0.58661165  0.89175943  1
  Fe  Fe107  1  0.18761701  0.08423879  0.10709062  1
  Fe  Fe108  1  0.70038229  0.16908712  0.61096747  1
  Fe  Fe109  1  0.19505523  0.08681456  0.60571643  1
  Fe  Fe110  1  0.31270821  0.17059422  0.39179792  1
  Fe  Fe111  1  0.47805974  0.08414179  0.89089191  1
  Fe  Fe112  1  0.85351246  0.57962224  0.11052365  1
  Si  Si113  1  0.47051404  0.91067242  0.38454552  1
  Si  Si114  1  0.69268500  0.84185529  0.11630662  1
  Si  Si115  1  0.18528713  0.91650515  0.61018936  1
  Si  Si116  1  0.80400564  0.92054700  0.38871540  1
  Si  Si117  1  0.02442700  0.66378611  0.61624367  1
  Si  Si118  1  0.63344666  0.33016524  0.38804400  1
  Si  Si119  1  0.30801459  0.83041710  0.38393631  1
  Si  Si120  1  0.80717960  0.08738055  0.38482251  1
  Si  Si121  1  0.97993271  0.16330373  0.88755979  1
  Si  Si122  1  0.31418233  0.34020463  0.38714894  1
  Si  Si123  1  0.86247529  0.08248327  0.11486018  1
  Si  Si124  1  0.14362314  0.41561357  0.38511213  1
  Si  Si125  1  0.69102024  0.33977651  0.61244205  1
  Si  Si126  1  0.47552255  0.91524107  0.88847237  1
  Si  Si127  1  0.02444920  0.82693236  0.61397866  1
  Si  Si128  1  0.98135003  0.32799280  0.38893378  1
  Si  Si129  1  0.36714823  0.16722653  0.61233969  1
  Si  Si130  1  0.97073664  0.66718543  0.88941894  1
  Si  Si131  1  0.63731796  0.16424848  0.38469108  1
  Si  Si132  1  0.52712194  0.08433555  0.11582592  1
  Si  Si133  1  0.14702703  0.92019074  0.38705362  1
  Si  Si134  1  0.14474826  0.91221204  0.88166397  1
  Si  Si135  1  0.19042318  0.41752163  0.11518284  1
  Si  Si136  1  0.97681855  0.16240111  0.38461955  1
  Si  Si137  1  0.63568287  0.82963722  0.89232648  1
  Si  Si138  1  0.36278567  0.83321836  0.10986888  1
  Si  Si139  1  0.35495215  0.33327368  0.11107227  1
  Si  Si140  1  0.30747030  0.67166794  0.88700458  1
  Si  Si141  1  0.69754459  0.32453383  0.11223804  1
  Si  Si142  1  0.30245161  0.16199464  0.88624518  1
  Si  Si143  1  0.02233111  0.17399334  0.11219246  1
  Si  Si144  1  0.18768096  0.57938839  0.61093312  1
  Si  Si145  1  0.13816240  0.07702052  0.88221862  1
  Si  Si146  1  0.69339580  0.15963102  0.11458801  1
  Si  Si147  1  0.46811247  0.41355303  0.88404391  1
  Si  Si148  1  0.64306454  0.67104107  0.38502168  1
  Si  Si149  1  0.19406202  0.58369749  0.11468065  1
  Si  Si150  1  0.47345624  0.42272516  0.38421675  1
  Si  Si151  1  0.53257672  0.08375830  0.61425852  1
  Si  Si152  1  0.80752401  0.41722865  0.88664355  1
  Si  Si153  1  0.30781081  0.66478310  0.38401387  1
  Si  Si154  1  0.47405186  0.07895411  0.38827292  1
  Si  Si155  1  0.52748852  0.58832083  0.11204372  1
  Si  Si156  1  0.02066018  0.82413308  0.11245209  1
  Si  Si157  1  0.85356027  0.90531188  0.61093429  1
  Si  Si158  1  0.63892102  0.83585556  0.38553762  1
  Si  Si159  1  0.14256254  0.57996638  0.38498389  1
  Si  Si160  1  0.47773932  0.58700674  0.38363761  1
  Si  Si161  1  0.85573790  0.41198755  0.11420488  1
  Si  Si162  1  0.35930766  0.33319374  0.61366477  1
  Si  Si163  1  0.52404909  0.41870599  0.61477621  1
  Si  Si164  1  0.36199065  0.16623796  0.11129147  1
  Si  Si165  1  0.86216908  0.91639025  0.11549960  1
  Si  Si166  1  0.80816519  0.58146773  0.88870279  1
  Si  Si167  1  0.52129377  0.91851676  0.61670016  1
  Si  Si168  1  0.80994271  0.09016914  0.89069693  1
  Si  Si169  1  0.85697969  0.42534618  0.61598678  1
  Si  Si170  1  0.52493846  0.58360349  0.61131110  1
  Si  Si171  1  0.85303023  0.58904713  0.61710207  1
  Si  Si172  1  0.68551741  0.82831246  0.61676160  1
  Si  Si173  1  0.02540509  0.65989879  0.11360009  1
  Si  Si174  1  0.64029925  0.34200240  0.88513788  1
  Si  Si175  1  0.14915739  0.41763259  0.89057303  1
  Si  Si176  1  0.35943837  0.66708018  0.11377702  1
  Si  Si177  1  0.14163179  0.08412101  0.38612840  1
  Si  Si178  1  0.19056127  0.41335711  0.61471534  1
  Si  Si179  1  0.97885219  0.66470991  0.38899477  1
  Si  Si180  1  0.01905475  0.33932876  0.61266769  1
  Si  Si181  1  0.97822597  0.83185052  0.88858907  1
  Si  Si182  1  0.35587673  0.83788708  0.61160886  1
  Si  Si183  1  0.68810053  0.66608871  0.61492268  1
  Si  Si184  1  0.52760042  0.91788521  0.11559140  1
  Si  Si185  1  0.64440574  0.17732334  0.88933480  1
  Si  Si186  1  0.30672776  0.32717575  0.88446320  1
  Si  Si187  1  0.02248246  0.33846950  0.11669742  1
  Si  Si188  1  0.46570370  0.57983987  0.88811740  1
  Si  Si189  1  0.80820713  0.58536065  0.38914326  1
  Si  Si190  1  0.31054782  0.83466287  0.88024586  1
  Si  Si191  1  0.69151169  0.67638850  0.11411877  1
  O  O192  1  0.28636648  0.11621848  0.07551765  1
  O  O193  1  0.29487849  0.11479917  0.57535522  1
  O  O194  1  0.27619102  0.61704038  0.08674032  1
  O  O195  1  0.25510503  0.61657189  0.57177612  1
  O  O196  1  0.61099493  0.10995686  0.08517236  1
  O  O197  1  0.60733293  0.11016614  0.57681823  1
  O  O198  1  0.60320580  0.63322063  0.08618648  1
  O  O199  1  0.61161155  0.61097763  0.58341356  1
  O  O200  1  0.93597658  0.12532132  0.08484425  1
  O  O201  1  0.95908048  0.09730599  0.56969322  1
  O  O202  1  0.95531860  0.60200124  0.08139649  1
  O  O203  1  0.93329645  0.62366299  0.58802327  1
  O  O204  1  0.10373465  0.37200577  0.08763557  1
  O  O205  1  0.10340345  0.37013055  0.58405835  1
  O  O206  1  0.09641962  0.84815897  0.07556698  1
  O  O207  1  0.10149437  0.86373528  0.58271913  1
  O  O208  1  0.42734271  0.36844980  0.07539615  1
  O  O209  1  0.43687410  0.37317244  0.58429386  1
  O  O210  1  0.45001674  0.86334595  0.08527685  1
  O  O211  1  0.43438739  0.87780099  0.58048502  1
  O  O212  1  0.78802535  0.34606794  0.08997834  1
  O  O213  1  0.77142734  0.37973553  0.58511611  1
  O  O214  1  0.77312901  0.87460137  0.08668795  1
  O  O215  1  0.76807466  0.85488951  0.58511971  1
  O  O216  1  0.26586621  0.37766123  0.08404334  1
  O  O217  1  0.27019283  0.37630767  0.58471762  1
  O  O218  1  0.28453637  0.87984921  0.07391852  1
  O  O219  1  0.26795020  0.88323234  0.58230187  1
  O  O220  1  0.62157501  0.37419847  0.07498891  1
  O  O221  1  0.60560456  0.38862859  0.58404440  1
  O  O222  1  0.61223474  0.89332723  0.08585829  1
  O  O223  1  0.60211232  0.87927460  0.58863024  1
  O  O224  1  0.94273757  0.39076990  0.08605242  1
  O  O225  1  0.94140008  0.39842878  0.58802253  1
  O  O226  1  0.93558565  0.87457368  0.08494902  1
  O  O227  1  0.93301575  0.86438506  0.58319067  1
  O  O228  1  0.09857623  0.15041084  0.07615222  1
  O  O229  1  0.12470964  0.16073396  0.57090182  1
  O  O230  1  0.11425730  0.63658103  0.08740790  1
  O  O231  1  0.09362245  0.61635237  0.58419039  1
  O  O232  1  0.44998334  0.13897348  0.08551539  1
  O  O233  1  0.45424528  0.14001419  0.58812925  1
  O  O234  1  0.43946562  0.63300556  0.08517439  1
  O  O235  1  0.44630090  0.62921192  0.57187725  1
  O  O236  1  0.77277927  0.12315751  0.08579695  1
  O  O237  1  0.78225021  0.13746699  0.56549851  1
  O  O238  1  0.76791404  0.64750830  0.08022473  1
  O  O239  1  0.77110770  0.63849516  0.58375675  1
  O  O240  1  0.05188426  0.10530467  0.41180153  1
  O  O241  1  0.05448353  0.10234742  0.91200256  1
  O  O242  1  0.06233440  0.61266459  0.41488279  1
  O  O243  1  0.04568559  0.61328991  0.92137466  1
  O  O244  1  0.40639535  0.11266219  0.42933631  1
  O  O245  1  0.38109322  0.11548160  0.92373309  1
  O  O246  1  0.39632111  0.62056580  0.41217415  1
  O  O247  1  0.38611405  0.61651330  0.91763166  1
  O  O248  1  0.73017041  0.12869982  0.41222315  1
  O  O249  1  0.73357204  0.13503817  0.91801134  1
  O  O250  1  0.72952886  0.62795154  0.41619580  1
  O  O251  1  0.72962248  0.60105544  0.92427675  1
  O  O252  1  0.23100254  0.37318984  0.41478945  1
  O  O253  1  0.22852357  0.36045885  0.91546837  1
  O  O254  1  0.23194511  0.86989028  0.41356579  1
  O  O255  1  0.22838999  0.86453684  0.91221457  1
  O  O256  1  0.55204158  0.36927703  0.41363612  1
  O  O257  1  0.55787129  0.37276357  0.91426188  1
  O  O258  1  0.55706687  0.86507401  0.41497370  1
  O  O259  1  0.54905255  0.85664929  0.91959745  1
  O  O260  1  0.90753330  0.35957354  0.42500228  1
  O  O261  1  0.87897989  0.36137454  0.92106840  1
  O  O262  1  0.88345505  0.87441533  0.42492850  1
  O  O263  1  0.90741018  0.86640840  0.92632557  1
  O  O264  1  0.06828919  0.37506631  0.41592587  1
  O  O265  1  0.06944619  0.39166425  0.92383234  1
  O  O266  1  0.07391842  0.89046816  0.42536768  1
  O  O267  1  0.06713685  0.87728312  0.91371991  1
  O  O268  1  0.38997666  0.39996949  0.41452712  1
  O  O269  1  0.39475264  0.36975321  0.91536152  1
  O  O270  1  0.39572249  0.87235461  0.41809282  1
  O  O271  1  0.38823007  0.88783852  0.91353545  1
  O  O272  1  0.71759906  0.36966894  0.42545311  1
  O  O273  1  0.71828537  0.39682317  0.91336057  1
  O  O274  1  0.71874431  0.88814603  0.41416430  1
  O  O275  1  0.71124434  0.88603732  0.92123923  1
  O  O276  1  0.21247313  0.14068749  0.41941470  1
  O  O277  1  0.21632448  0.13164493  0.91171586  1
  O  O278  1  0.23062034  0.62448393  0.41304978  1
  O  O279  1  0.23117434  0.65328864  0.92685898  1
  O  O280  1  0.56853977  0.11569687  0.41479797  1
  O  O281  1  0.57027689  0.14591434  0.92543834  1
  O  O282  1  0.56186146  0.63543645  0.41269219  1
  O  O283  1  0.54969016  0.61851881  0.92762469  1
  O  O284  1  0.89238330  0.13408901  0.41242357  1
  O  O285  1  0.89604259  0.13760461  0.91761206  1
  O  O286  1  0.89639589  0.62971379  0.41620848  1
  O  O287  1  0.88503071  0.63851304  0.91663519  1
  O  O288  1  0.15283047  -0.00132000  0.06570657  1
  O  O289  1  0.16380517  -0.00693169  0.57368831  1
  O  O290  1  0.17809164  0.50100087  0.08541701  1
  O  O291  1  0.17782089  0.49465234  0.58355843  1
  O  O292  1  0.50422689  0.00106173  0.09051316  1
  O  O293  1  0.51024292  0.00088825  0.58631605  1
  O  O294  1  0.51834896  0.51083877  0.07673752  1
  O  O295  1  0.50864604  0.49967777  0.58342172  1
  O  O296  1  0.85587463  -0.00050709  0.08675236  1
  O  O297  1  0.83505829  -0.01905221  0.57342258  1
  O  O298  1  0.81768370  0.48627521  0.08088737  1
  O  O299  1  0.83825099  0.50730556  0.58570089  1
  O  O300  1  -0.00254876  0.25761139  0.08725049  1
  O  O301  1  -0.01321129  0.26555888  0.57628272  1
  O  O302  1  -0.00488707  0.74082518  0.08677373  1
  O  O303  1  0.01681259  0.74464716  0.58261790  1
  O  O304  1  0.34273023  0.24977149  0.08407869  1
  O  O305  1  0.35136249  0.25144293  0.58371834  1
  O  O306  1  0.34770327  0.74851829  0.08376476  1
  O  O307  1  0.34270575  0.76160843  0.57175920  1
  O  O308  1  0.67842096  0.24102190  0.08478085  1
  O  O309  1  0.67495624  0.26337476  0.57608321  1
  O  O310  1  0.67113121  0.76028008  0.08929910  1
  O  O311  1  0.66262617  0.74697940  0.58427084  1
  O  O312  1  0.17034634  0.00296967  0.41397671  1
  O  O313  1  0.16137589  -0.00492110  0.91038576  1
  O  O314  1  0.15564887  0.49819021  0.41589125  1
  O  O315  1  0.18292863  0.49407630  0.92293863  1
  O  O316  1  0.48691994  -0.00676405  0.41105191  1
  O  O317  1  0.50199659  -0.00853425  0.92574616  1
  O  O318  1  0.49744674  0.50511289  0.41255299  1
  O  O319  1  0.46948408  0.49461560  0.91501721  1
  O  O320  1  0.81375737  0.00525136  0.41427155  1
  O  O321  1  0.82107244  0.01391010  0.92898130  1
  O  O322  1  0.81762038  0.50779511  0.42494626  1
  O  O323  1  0.83783562  0.49868707  0.91284750  1
  O  O324  1  0.33979192  0.26510872  0.42464008  1
  O  O325  1  0.31758051  0.24544739  0.91470477  1
  O  O326  1  0.31707717  0.74683023  0.41376856  1
  O  O327  1  0.33728960  0.75445215  0.91174473  1
  O  O328  1  0.63352685  0.24589648  0.41425875  1
  O  O329  1  0.66281775  0.26164177  0.91619452  1
  O  O330  1  0.65688867  0.75337138  0.41415650  1
  O  O331  1  0.66019284  0.75267940  0.92975810  1
  O  O332  1  1.00174985  0.24363758  0.41301699  1
  O  O333  1  1.01040729  0.23879349  0.92327147  1
  O  O334  1  0.99760353  0.74098112  0.42581131  1
  O  O335  1  0.99458969  0.74929077  0.91864542  1
  O  O336  1  0.20783125  0.08330594  0.19942877  1
  O  O337  1  0.21159225  0.08414648  0.69789599  1
  O  O338  1  0.21143983  0.58194868  0.19540762  1
  O  O339  1  0.20986395  0.58097652  0.69110176  1
  O  O340  1  0.54863504  0.09000373  0.19525610  1
  O  O341  1  0.54867511  0.08576622  0.69484022  1
  O  O342  1  0.54455143  0.58576694  0.19361675  1
  O  O343  1  0.54195792  0.58582204  0.69102151  1
  O  O344  1  0.87833412  0.08311176  0.19548129  1
  O  O345  1  0.87857081  0.08300010  0.69952582  1
  O  O346  1  0.87645071  0.58206066  0.20318152  1
  O  O347  1  0.86496996  0.58533361  0.69614924  1
  O  O348  1  0.03911447  0.33550574  0.19643737  1
  O  O349  1  0.04306830  0.33471782  0.69329297  1
  O  O350  1  0.03910166  0.82937759  0.19267152  1
  O  O351  1  0.04102117  0.82991833  0.69409956  1
  O  O352  1  0.37577942  0.33563063  0.19225779  1
  O  O353  1  0.37608763  0.33325158  0.69393287  1
  O  O354  1  0.37789133  0.83213200  0.19103061  1
  O  O355  1  0.37795805  0.83385842  0.69042919  1
  O  O356  1  0.70895692  0.32838438  0.19340734  1
  O  O357  1  0.70924345  0.33760989  0.69347402  1
  O  O358  1  0.71283629  0.83848489  0.19723732  1
  O  O359  1  0.70921901  0.82490808  0.69571361  1
  O  O360  1  0.21234223  0.42052137  0.19488566  1
  O  O361  1  0.21046217  0.41337655  0.69494893  1
  O  O362  1  0.20999585  0.91662191  0.19866480  1
  O  O363  1  0.20123864  0.91628646  0.68995702  1
  O  O364  1  0.54708730  0.41677407  0.20042382  1
  O  O365  1  0.54296556  0.41434633  0.69416172  1
  O  O366  1  0.54919739  0.91110301  0.19510572  1
  O  O367  1  0.53446032  0.91737525  0.69573841  1
  O  O368  1  0.87726511  0.41458556  0.19553513  1
  O  O369  1  0.87355952  0.42120382  0.69581451  1
  O  O370  1  0.87714702  0.91770555  0.19592079  1
  O  O371  1  0.87617732  0.91067036  0.69136261  1
  O  O372  1  0.04079588  0.16850345  0.19319689  1
  O  O373  1  0.04387544  0.16778409  0.69859694  1
  O  O374  1  0.04347842  0.66203951  0.19498397  1
  O  O375  1  0.04527837  0.67055785  0.69490945  1
  O  O376  1  0.37850145  0.16692958  0.19221358  1
  O  O377  1  0.37790487  0.16956538  0.69295709  1
  O  O378  1  0.37769838  0.66640903  0.19457965  1
  O  O379  1  0.37743940  0.66285087  0.69854983  1
  O  O380  1  0.71191849  0.16361510  0.19526691  1
  O  O381  1  0.71322388  0.17010766  0.70296201  1
  O  O382  1  0.71014410  0.67064713  0.19560906  1
  O  O383  1  0.70815761  0.66577820  0.69491392  1
  O  O384  1  0.12238450  0.08426918  0.30509528  1
  O  O385  1  0.12118829  0.07946350  0.80226830  1
  O  O386  1  0.12487670  0.58131000  0.30456398  1
  O  O387  1  0.13429006  0.58324373  0.80175968  1
  O  O388  1  0.45132743  0.09063951  0.30898495  1
  O  O389  1  0.45449522  0.08682799  0.79962456  1
  O  O390  1  0.45877619  0.58560203  0.30305198  1
  O  O391  1  0.45301672  0.58285297  0.80842691  1
  O  O392  1  0.79121562  0.08473864  0.30412236  1
  O  O393  1  0.79181450  0.08557821  0.81033753  1
  O  O394  1  0.78802792  0.58479324  0.30817744  1
  O  O395  1  0.78791331  0.58345867  0.80756549  1
  O  O396  1  0.29824271  0.33671737  0.30694707  1
  O  O397  1  0.29039191  0.33099234  0.80406794  1
  O  O398  1  0.29524395  0.82944602  0.30456947  1
  O  O399  1  0.28793971  0.83413773  0.80159372  1
  O  O400  1  0.62232787  0.33173168  0.30712786  1
  O  O401  1  0.62215787  0.33726669  0.80472346  1
  O  O402  1  0.62279222  0.83398013  0.30496814  1
  O  O403  1  0.61677235  0.82463043  0.81217376  1
  O  O404  1  0.95856958  0.33181949  0.30789992  1
  O  O405  1  0.95616550  0.33148913  0.79833243  1
  O  O406  1  0.95697552  0.83334118  0.30086328  1
  O  O407  1  0.95825319  0.83209289  0.80748556  1
  O  O408  1  0.12303920  0.41898710  0.30558044  1
  O  O409  1  0.12743535  0.41525279  0.80880368  1
  O  O410  1  0.12241502  0.91967053  0.30713825  1
  O  O411  1  0.12338051  0.91319479  0.80157762  1
  O  O412  1  0.45604138  0.42067669  0.30373306  1
  O  O413  1  0.45152392  0.41157664  0.80462184  1
  O  O414  1  0.45027852  0.90587591  0.30528875  1
  O  O415  1  0.46279130  0.91822643  0.80871828  1
  O  O416  1  0.78751646  0.41500390  0.29985349  1
  O  O417  1  0.78759364  0.41591476  0.80557037  1
  O  O418  1  0.79096557  0.91773055  0.30757036  1
  O  O419  1  0.80139233  0.91876393  0.80224542  1
  O  O420  1  0.29124179  0.16972827  0.30024435  1
  O  O421  1  0.28926640  0.16573701  0.80562330  1
  O  O422  1  0.29108547  0.66467699  0.30374772  1
  O  O423  1  0.28714634  0.66370185  0.80742728  1
  O  O424  1  0.62186017  0.16636734  0.30416963  1
  O  O425  1  0.62331450  0.17415302  0.80871599  1
  O  O426  1  0.62438216  0.66923495  0.30435646  1
  O  O427  1  0.61881944  0.66443024  0.79996724  1
  O  O428  1  0.95708733  0.16501264  0.30376420  1
  O  O429  1  0.95823087  0.16663686  0.80695016  1
  O  O430  1  0.95954429  0.66635819  0.30807288  1
  O  O431  1  0.95029831  0.67241761  0.80950573  1
  F  F432  1  0.04289259  -0.00081932  0.20185478  1
  F  F433  1  0.04376830  -0.00377575  0.70007271  1
  F  F434  1  0.04523762  0.49897559  0.20346774  1
  F  F435  1  0.04959266  0.48869445  0.69997791  1
  F  F436  1  0.36762454  0.00022049  0.19995666  1
  F  F437  1  0.38047203  0.00272529  0.69941275  1
  F  F438  1  0.37930926  0.50172803  0.20092303  1
  F  F439  1  0.37294518  0.49859540  0.69911441  1
  F  F440  1  0.71491714  0.00049999  0.20220534  1
  F  F441  1  0.71523199  0.01079209  0.70022407  1
  F  F442  1  0.71021448  0.50216563  0.20233986  1
  F  F443  1  0.71110546  0.50095212  0.70274608  1
  F  F444  1  0.21181280  0.25195525  0.19950443  1
  F  F445  1  0.21279855  0.25121684  0.70223353  1
  F  F446  1  0.21512679  0.74176193  0.19792546  1
  F  F447  1  0.20477395  0.74748019  0.69659941  1
  F  F448  1  0.54562802  0.25067259  0.20177483  1
  F  F449  1  0.54561242  0.25243476  0.70301160  1
  F  F450  1  0.54684915  0.75049611  0.20158539  1
  F  F451  1  0.54283031  0.75207454  0.70021788  1
  F  F452  1  0.87933960  0.24953870  0.20448011  1
  F  F453  1  0.87556940  0.24988989  0.70087823  1
  F  F454  1  0.87735810  0.74860143  0.20381720  1
  F  F455  1  0.87772405  0.74903261  0.70440459  1
  F  F456  1  0.29054281  -0.00132481  0.30209606  1
  F  F457  1  0.28524495  0.00123483  0.79897145  1
  F  F458  1  0.29025809  0.50166364  0.29809118  1
  F  F459  1  0.28861632  0.49727309  0.79662329  1
  F  F460  1  0.63455177  0.00097878  0.30299394  1
  F  F461  1  0.61650601  0.01485183  0.80481172  1
  F  F462  1  0.62206966  0.50428552  0.29916824  1
  F  F463  1  0.62142254  0.49979548  0.79805532  1
  F  F464  1  0.95527809  0.00052995  0.29794895  1
  F  F465  1  0.95793528  -0.00273431  0.79626642  1
  F  F466  1  0.95653956  0.49724232  0.30121183  1
  F  F467  1  0.94905669  0.48935612  0.80393291  1
  F  F468  1  0.12044516  0.24757324  0.29857151  1
  F  F469  1  0.12331189  0.25048194  0.79773656  1
  F  F470  1  0.12169755  0.74327376  0.29916945  1
  F  F471  1  0.12216548  0.75093749  0.79797369  1
  F  F472  1  0.45472069  0.25299910  0.29494043  1
  F  F473  1  0.45430062  0.25141664  0.79734523  1
  F  F474  1  0.45490796  0.74814822  0.29564339  1
  F  F475  1  0.45667238  0.74947239  0.79964678  1
  F  F476  1  0.78708850  0.24822959  0.29816754  1
  F  F477  1  0.78938775  0.25440335  0.79976456  1
  F  F478  1  0.78767342  0.75102579  0.29944501  1
  F  F479  1  0.78538847  0.74968107  0.80031488  1
