# generated using pymatgen
data_K24Na3Li5Mg64Fe17Si79(O5F)48
_symmetry_space_group_name_H-M   'P 1'
_cell_length_a   16.08848751
_cell_length_b   18.58505961
_cell_length_c   20.56006918
_cell_angle_alpha   89.99486693
_cell_angle_beta   100.02048712
_cell_angle_gamma   90.01292728
_symmetry_Int_Tables_number   1
_chemical_formula_structural   K24Na3Li5Mg64Fe17Si79(O5F)48
_chemical_formula_sum   'K24 Na3 Li5 Mg64 Fe17 Si79 O240 F48'
_cell_volume   6053.79603545
_cell_formula_units_Z   1
loop_
 _symmetry_equiv_pos_site_id
 _symmetry_equiv_pos_as_xyz
  1  'x, y, z'
loop_
 _atom_site_type_symbol
 _atom_site_label
 _atom_site_symmetry_multiplicity
 _atom_site_fract_x
 _atom_site_fract_y
 _atom_site_fract_z
 _atom_site_occupancy
  K  K0  1  -0.00183851  0.00538914  -0.00292541  1
  K  K1  1  0.00246224  0.01104583  0.50295241  1
  K  K2  1  -0.00826531  0.50034060  -0.00853547  1
  K  K3  1  0.00120885  0.49506582  0.50734096  1
  K  K4  1  0.33374657  -0.00147507  -0.00837701  1
  K  K5  1  0.33217527  0.01091152  0.50836684  1
  K  K6  1  0.33290989  0.49689734  -0.00993237  1
  K  K7  1  0.33793654  0.49457995  0.51517487  1
  K  K8  1  0.67392125  -0.00344216  -0.00965640  1
  K  K9  1  0.67268786  0.01018844  0.51375786  1
  K  K10  1  0.67060116  0.49900231  -0.01008017  1
  K  K11  1  0.66136168  0.49908298  0.51557482  1
  K  K12  1  0.17322605  0.24220048  -0.00738351  1
  K  K13  1  0.16098517  0.23925462  0.50263489  1
  K  K14  1  0.16794983  0.75830938  -0.01365937  1
  K  K15  1  0.16571783  0.75783224  0.51388143  1
  K  K16  1  0.49333901  0.25368566  -0.00525054  1
  K  K17  1  0.51416269  0.24404606  0.51341496  1
  K  K18  1  0.48748316  0.75621912  -0.01926042  1
  K  K19  1  0.50340125  0.75194723  0.51348533  1
  K  K20  1  0.82846786  0.24553685  -0.00492140  1
  K  K21  1  0.82529234  0.24014275  0.50477778  1
  K  K22  1  0.83600524  0.75826806  -0.00864968  1
  K  K23  1  0.83678146  0.75629396  0.51532909  1
  Na  Na24  1  0.00014464  0.25021994  0.75245649  1
  Na  Na25  1  0.83051368  0.83099881  0.75176646  1
  Na  Na26  1  0.66814544  0.91841149  0.74828763  1
  Li  Li27  1  0.33398882  0.75319703  0.75563357  1
  Li  Li28  1  0.16747763  -0.00163259  0.75332629  1
  Li  Li29  1  -0.00151946  0.41346638  0.24776004  1
  Li  Li30  1  -0.00266794  0.58410253  0.75010477  1
  Li  Li31  1  0.66260898  0.58489263  0.74828218  1
  Mg  Mg32  1  0.33552684  0.24843357  0.24887314  1
  Mg  Mg33  1  0.83604532  0.49614408  0.24955964  1
  Mg  Mg34  1  0.33127801  0.25113555  0.74931025  1
  Mg  Mg35  1  0.33277629  0.74967225  0.25252720  1
  Mg  Mg36  1  0.16758373  0.00175552  0.25140956  1
  Mg  Mg37  1  0.83528994  0.00208376  0.25096737  1
  Mg  Mg38  1  0.83283020  0.00143006  0.74869626  1
  Mg  Mg39  1  0.16239847  0.50153482  0.75114817  1
  Mg  Mg40  1  0.50064416  -0.00077820  0.74757827  1
  Mg  Mg41  1  0.50181721  0.00051561  0.24851295  1
  Mg  Mg42  1  0.49970237  0.50243848  0.74852314  1
  Mg  Mg43  1  0.83146051  0.50236227  0.74609850  1
  Mg  Mg44  1  0.66989056  0.25005357  0.24734933  1
  Mg  Mg45  1  0.50142313  0.49949704  0.24665456  1
  Mg  Mg46  1  0.16571413  0.49682772  0.25036675  1
  Mg  Mg47  1  0.66538336  0.74753785  0.74956521  1
  Mg  Mg48  1  0.00130778  0.74849606  0.24885036  1
  Mg  Mg49  1  -0.00178909  0.74724923  0.74971822  1
  Mg  Mg50  1  0.66809335  0.75010170  0.25045330  1
  Mg  Mg51  1  0.00218326  0.25269636  0.25402300  1
  Mg  Mg52  1  0.66621997  0.25071952  0.74522834  1
  Mg  Mg53  1  0.83531244  0.83414045  0.25056123  1
  Mg  Mg54  1  0.50032125  0.16540189  0.74594948  1
  Mg  Mg55  1  -0.00033047  0.57906088  0.24942644  1
  Mg  Mg56  1  0.00133421  0.91646186  0.75180715  1
  Mg  Mg57  1  0.16499854  0.66388660  0.24959256  1
  Mg  Mg58  1  0.16704375  0.33378632  0.25263874  1
  Mg  Mg59  1  0.83221200  0.16601883  0.25206700  1
  Mg  Mg60  1  0.16800840  0.16419920  0.25265471  1
  Mg  Mg61  1  0.00192892  0.91461339  0.25092929  1
  Mg  Mg62  1  0.66710098  0.08414796  0.74694050  1
  Mg  Mg63  1  0.49825257  0.66634288  0.75091626  1
  Mg  Mg64  1  -0.00118109  0.42005432  0.74895928  1
  Mg  Mg65  1  0.83383641  0.33402247  0.24804376  1
  Mg  Mg66  1  0.00212848  0.08245473  0.75004462  1
  Mg  Mg67  1  0.50011327  0.83386496  0.25132574  1
  Mg  Mg68  1  0.16943592  0.83394463  0.75353370  1
  Mg  Mg69  1  0.83089796  0.33465487  0.74343555  1
  Mg  Mg70  1  0.16692039  0.66723176  0.75317643  1
  Mg  Mg71  1  0.33337938  0.41716392  0.74943951  1
  Mg  Mg72  1  0.33421056  0.58680158  0.75364146  1
  Mg  Mg73  1  0.49861852  0.33717105  0.74656515  1
  Mg  Mg74  1  0.33304674  0.08428739  0.24952918  1
  Mg  Mg75  1  0.33263800  0.08165343  0.75132630  1
  Mg  Mg76  1  0.33354647  0.91520597  0.75242543  1
  Mg  Mg77  1  0.33496196  0.41471062  0.24961837  1
  Mg  Mg78  1  0.83128339  0.66496368  0.74676927  1
  Mg  Mg79  1  0.66299708  0.42050818  0.74338645  1
  Mg  Mg80  1  0.50215889  0.33494218  0.24581189  1
  Mg  Mg81  1  0.16738894  0.16467120  0.75266388  1
  Mg  Mg82  1  0.00265384  0.08633596  0.25361874  1
  Mg  Mg83  1  0.83241894  0.16665985  0.74799841  1
  Mg  Mg84  1  0.66569804  0.58372368  0.24802960  1
  Mg  Mg85  1  0.49916559  0.66616492  0.25000013  1
  Mg  Mg86  1  0.66809099  0.91592888  0.25163324  1
  Mg  Mg87  1  0.49831205  0.83338660  0.75041599  1
  Mg  Mg88  1  0.33215210  0.91611092  0.25044645  1
  Mg  Mg89  1  0.16477642  0.83401551  0.25009683  1
  Mg  Mg90  1  0.83391775  0.66379970  0.24994386  1
  Mg  Mg91  1  0.50246982  0.16441163  0.24637571  1
  Mg  Mg92  1  0.66579893  0.41433306  0.24480208  1
  Mg  Mg93  1  0.16664783  0.33344705  0.75184842  1
  Mg  Mg94  1  0.66853600  0.08552324  0.24852116  1
  Mg  Mg95  1  0.33289323  0.58293518  0.25091102  1
  Fe  Fe96  1  0.47737118  0.41548148  0.88943782  1
  Fe  Fe97  1  0.51952700  0.08005941  0.60419504  1
  Fe  Fe98  1  0.52660673  0.07676448  0.10784958  1
  Fe  Fe99  1  0.69586518  0.16673442  0.60667637  1
  Fe  Fe100  1  0.47959868  0.58735403  0.89156266  1
  Fe  Fe101  1  0.30057035  0.33133814  0.89002918  1
  Fe  Fe102  1  0.51822981  0.41943302  0.60459290  1
  Fe  Fe103  1  0.69173118  0.16374089  0.10664663  1
  Fe  Fe104  1  0.14126205  0.08282622  0.39414036  1
  Fe  Fe105  1  0.80614354  0.08222251  0.39212179  1
  Fe  Fe106  1  0.69248121  0.33511009  0.10544169  1
  Fe  Fe107  1  0.48592947  0.91975263  0.89130261  1
  Fe  Fe108  1  0.30802518  0.83769578  0.89319027  1
  Fe  Fe109  1  0.02642125  0.82989740  0.11021394  1
  Fe  Fe110  1  0.52322041  0.42370911  0.10606507  1
  Fe  Fe111  1  0.19369491  0.08309505  0.11073999  1
  Fe  Fe112  1  0.81077464  0.08200311  0.89034348  1
  Si  Si113  1  0.18923469  0.58417005  0.61513806  1
  Si  Si114  1  0.85846267  0.58581621  0.61192846  1
  Si  Si115  1  0.19186175  0.08200702  0.61722887  1
  Si  Si116  1  0.64686099  0.66928694  0.88478312  1
  Si  Si117  1  0.31069701  0.83113594  0.38746626  1
  Si  Si118  1  0.13521155  0.58246295  0.88504534  1
  Si  Si119  1  0.85830343  0.92147224  0.11500487  1
  Si  Si120  1  0.80793796  0.41726962  0.38592138  1
  Si  Si121  1  0.97056221  0.66516010  0.88347697  1
  Si  Si122  1  0.51896463  0.59382813  0.11296714  1
  Si  Si123  1  0.19407911  0.41432015  0.11582647  1
  Si  Si124  1  0.31077118  0.17000047  0.38918142  1
  Si  Si125  1  0.52143541  0.90734254  0.11508199  1
  Si  Si126  1  0.18999982  0.91691018  0.61642080  1
  Si  Si127  1  0.86287584  0.42082929  0.61094619  1
  Si  Si128  1  0.97697197  0.33961980  0.38558879  1
  Si  Si129  1  0.64959050  0.82933863  0.88576176  1
  Si  Si130  1  0.14523482  0.58157359  0.38700324  1
  Si  Si131  1  0.97609109  0.82560656  0.38712928  1
  Si  Si132  1  0.69402332  0.83409753  0.11612245  1
  Si  Si133  1  0.34861734  0.33223779  0.60912914  1
  Si  Si134  1  0.47704562  0.41819274  0.38503867  1
  Si  Si135  1  0.02653239  0.33431793  0.61465502  1
  Si  Si136  1  0.69516956  0.33912765  0.60561752  1
  Si  Si137  1  0.51818938  0.90917869  0.60732872  1
  Si  Si138  1  0.86800582  0.08801169  0.11671357  1
  Si  Si139  1  0.14707294  0.41664997  0.38712094  1
  Si  Si140  1  0.02560186  0.66808644  0.61565321  1
  Si  Si141  1  0.30809343  0.15966421  0.88721493  1
  Si  Si142  1  0.69321065  0.66747441  0.11472903  1
  Si  Si143  1  0.31046708  0.66535010  0.38728378  1
  Si  Si144  1  0.64187334  0.66660722  0.38594637  1
  Si  Si145  1  0.35837642  0.83130613  0.11915202  1
  Si  Si146  1  0.86756100  0.08035198  0.61100786  1
  Si  Si147  1  0.31312430  0.33472939  0.38711090  1
  Si  Si148  1  0.97261308  0.17442660  0.39224507  1
  Si  Si149  1  0.19203753  0.58001864  0.11584307  1
  Si  Si150  1  0.51974614  0.59138793  0.60927109  1
  Si  Si151  1  0.63475630  0.16816767  0.38712544  1
  Si  Si152  1  0.13329437  0.91832653  0.88915087  1
  Si  Si153  1  0.47571763  0.91718963  0.38626546  1
  Si  Si154  1  0.14360358  0.91052291  0.39077225  1
  Si  Si155  1  0.02537491  0.83276398  0.61552857  1
  Si  Si156  1  0.64360448  0.33025267  0.88078053  1
  Si  Si157  1  0.97493717  0.82909905  0.88502505  1
  Si  Si158  1  0.69212245  0.66823946  0.61061192  1
  Si  Si159  1  0.80290805  0.41773215  0.88009072  1
  Si  Si160  1  0.86030245  0.91607778  0.61489117  1
  Si  Si161  1  0.02205876  0.65934092  0.11322972  1
  Si  Si162  1  0.80713053  0.58213787  0.88093728  1
  Si  Si163  1  0.13110407  0.41754688  0.88774266  1
  Si  Si164  1  0.30149034  0.66269162  0.89192749  1
  Si  Si165  1  0.35303173  0.83244992  0.61388142  1
  Si  Si166  1  0.47633168  0.58289898  0.38553656  1
  Si  Si167  1  0.97656079  0.66048621  0.38547226  1
  Si  Si168  1  0.64150350  0.83239696  0.38711111  1
  Si  Si169  1  0.18712980  0.41892139  0.61394289  1
  Si  Si170  1  0.13656249  0.08409670  0.88475396  1
  Si  Si171  1  0.86416854  0.41397887  0.11364061  1
  Si  Si172  1  0.81467654  0.91735142  0.88751695  1
  Si  Si173  1  0.47085306  0.08345627  0.38469864  1
  Si  Si174  1  0.69026820  0.83104608  0.61163587  1
  Si  Si175  1  0.02846324  0.33539073  0.11827804  1
  Si  Si176  1  0.81234987  0.91008350  0.38979789  1
  Si  Si177  1  0.35289771  0.66871598  0.61518965  1
  Si  Si178  1  0.36291983  0.16719670  0.11261291  1
  Si  Si179  1  0.85609832  0.57797316  0.11497563  1
  Si  Si180  1  0.02931221  0.17278512  0.11629393  1
  Si  Si181  1  0.35303890  0.67020119  0.11738302  1
  Si  Si182  1  0.64085265  0.16917800  0.88244053  1
  Si  Si183  1  0.80717833  0.58256282  0.38576550  1
  Si  Si184  1  0.47956493  0.08963482  0.88411698  1
  Si  Si185  1  0.03081308  0.16609539  0.61575144  1
  Si  Si186  1  0.35085679  0.16830701  0.61164846  1
  Si  Si187  1  0.64192909  0.33383023  0.38509777  1
  Si  Si188  1  0.19539077  0.91270279  0.11407633  1
  Si  Si189  1  0.35707499  0.33049511  0.11385451  1
  Si  Si190  1  0.96546888  0.33844265  0.88138827  1
  Si  Si191  1  0.97526911  0.17100137  0.88710039  1
  O  O192  1  0.29204411  0.10950965  0.07977016  1
  O  O193  1  0.26809064  0.11655282  0.58362742  1
  O  O194  1  0.27425457  0.61522942  0.08919147  1
  O  O195  1  0.26691809  0.62083865  0.58342274  1
  O  O196  1  0.62470850  0.08571237  0.07507434  1
  O  O197  1  0.60042031  0.12101948  0.56225570  1
  O  O198  1  0.60364356  0.62705292  0.08735421  1
  O  O199  1  0.59890288  0.63279801  0.57981664  1
  O  O200  1  0.95636762  0.11166224  0.09116863  1
  O  O201  1  0.94769288  0.11924684  0.58274635  1
  O  O202  1  0.94063043  0.60563905  0.08756480  1
  O  O203  1  0.93431689  0.62995442  0.58281254  1
  O  O204  1  0.11226544  0.36346387  0.08813984  1
  O  O205  1  0.10031288  0.37517791  0.58073032  1
  O  O206  1  0.13075983  0.84862153  0.08499999  1
  O  O207  1  0.10084091  0.87396899  0.58427563  1
  O  O208  1  0.43603368  0.35493789  0.08126787  1
  O  O209  1  0.42080471  0.36336839  0.57071883  1
  O  O210  1  0.44789440  0.84449517  0.09408750  1
  O  O211  1  0.43231614  0.85909310  0.57812158  1
  O  O212  1  0.79738332  0.35726879  0.07669384  1
  O  O213  1  0.77337178  0.38446242  0.57887792  1
  O  O214  1  0.77004889  0.87554760  0.08812573  1
  O  O215  1  0.76795577  0.87699143  0.58516729  1
  O  O216  1  0.27548611  0.38425823  0.08727720  1
  O  O217  1  0.26318417  0.38224538  0.58197080  1
  O  O218  1  0.28850515  0.89230500  0.09246112  1
  O  O219  1  0.26624383  0.87920354  0.58265087  1
  O  O220  1  0.62245387  0.41220533  0.07568738  1
  O  O221  1  0.61021831  0.38156371  0.57103892  1
  O  O222  1  0.60528672  0.87481184  0.08843559  1
  O  O223  1  0.59840957  0.86780099  0.57888016  1
  O  O224  1  0.95638055  0.39594434  0.09084550  1
  O  O225  1  0.93854709  0.37703571  0.58205838  1
  O  O226  1  0.93241719  0.88906683  0.07984014  1
  O  O227  1  0.93291671  0.86855008  0.58416881  1
  O  O228  1  0.11024746  0.15366137  0.08292565  1
  O  O229  1  0.10828522  0.12968166  0.58384689  1
  O  O230  1  0.10530784  0.62407479  0.08706577  1
  O  O231  1  0.10058334  0.62663512  0.58322132  1
  O  O232  1  0.44928509  0.15355580  0.08423777  1
  O  O233  1  0.42429256  0.14029218  0.57379959  1
  O  O234  1  0.44091706  0.65260112  0.09103284  1
  O  O235  1  0.43246801  0.63970904  0.58066017  1
  O  O236  1  0.79876894  0.14461021  0.08305423  1
  O  O237  1  0.78467058  0.12044957  0.57338899  1
  O  O238  1  0.77197543  0.62746374  0.08731579  1
  O  O239  1  0.76658243  0.62319844  0.57888126  1
  O  O240  1  0.05338134  0.12753365  0.42794141  1
  O  O241  1  0.06844606  0.13374031  0.91634464  1
  O  O242  1  0.06379364  0.61589336  0.41530303  1
  O  O243  1  0.05379410  0.61644734  0.91395301  1
  O  O244  1  0.39146915  0.11611315  0.41540017  1
  O  O245  1  0.39393344  0.11261510  0.91371808  1
  O  O246  1  0.39741519  0.61998837  0.41520129  1
  O  O247  1  0.38157017  0.61379943  0.92522102  1
  O  O248  1  0.71163007  0.11929547  0.42326536  1
  O  O249  1  0.71102073  0.11309087  0.91832335  1
  O  O250  1  0.73163053  0.62582722  0.41506232  1
  O  O251  1  0.72782012  0.61410687  0.91194126  1
  O  O252  1  0.23311051  0.37028528  0.41761664  1
  O  O253  1  0.20516696  0.36659594  0.92444156  1
  O  O254  1  0.22983280  0.86121512  0.41763627  1
  O  O255  1  0.21905366  0.88286496  0.92845001  1
  O  O256  1  0.56538794  0.37639904  0.41398168  1
  O  O257  1  0.56406888  0.34782680  0.91538697  1
  O  O258  1  0.56322320  0.87211343  0.41515076  1
  O  O259  1  0.57669228  0.85694937  0.92520557  1
  O  O260  1  0.90023327  0.38102041  0.41602441  1
  O  O261  1  0.88385208  0.36730369  0.91302868  1
  O  O262  1  0.89533761  0.85732477  0.41683679  1
  O  O263  1  0.89239732  0.85882998  0.91332064  1
  O  O264  1  0.06456274  0.38542044  0.41537682  1
  O  O265  1  0.04282664  0.39271788  0.91293724  1
  O  O266  1  0.06499114  0.86640717  0.41686560  1
  O  O267  1  0.05567121  0.87784054  0.91968469  1
  O  O268  1  0.39715204  0.38411566  0.41482115  1
  O  O269  1  0.38738372  0.38908726  0.92942481  1
  O  O270  1  0.39752203  0.87701054  0.41525892  1
  O  O271  1  0.40244175  0.88598802  0.93568917  1
  O  O272  1  0.73197755  0.37530288  0.41489863  1
  O  O273  1  0.72182908  0.38675569  0.90927961  1
  O  O274  1  0.73176888  0.87006279  0.41706249  1
  O  O275  1  0.73246926  0.88068305  0.91288437  1
  O  O276  1  0.23506338  0.14255667  0.42494377  1
  O  O277  1  0.23142750  0.11490276  0.91427345  1
  O  O278  1  0.23057830  0.62921418  0.41629567  1
  O  O279  1  0.21757832  0.62803531  0.92002123  1
  O  O280  1  0.54956833  0.13653630  0.41232955  1
  O  O281  1  0.54970002  0.15438500  0.90727716  1
  O  O282  1  0.56403759  0.62684427  0.41454801  1
  O  O283  1  0.57070789  0.64995142  0.92395077  1
  O  O284  1  0.89108843  0.14930259  0.42295528  1
  O  O285  1  0.90530580  0.13998797  0.92771816  1
  O  O286  1  0.89821878  0.62215802  0.41484743  1
  O  O287  1  0.89218424  0.62859346  0.91467002  1
  O  O288  1  0.16267830  -0.01105691  0.08156293  1
  O  O289  1  0.17714623  -0.00047049  0.58682970  1
  O  O290  1  0.17765111  0.49749090  0.08783319  1
  O  O291  1  0.17615852  0.50193580  0.58367350  1
  O  O292  1  0.48669769  -0.01820650  0.08228056  1
  O  O293  1  0.50208435  -0.01492470  0.56849868  1
  O  O294  1  0.48569517  0.51880701  0.08103767  1
  O  O295  1  0.50535575  0.51518308  0.56991243  1
  O  O296  1  0.84208392  0.00516729  0.09096610  1
  O  O297  1  0.86248397  -0.00362255  0.58156399  1
  O  O298  1  0.83839048  0.49703727  0.08547316  1
  O  O299  1  0.86122256  0.50369973  0.58018521  1
  O  O300  1  -0.00148903  0.25518448  0.08912636  1
  O  O301  1  0.01935942  0.25034253  0.58746288  1
  O  O302  1  -0.00197606  0.73555656  0.07882911  1
  O  O303  1  0.02094273  0.75034811  0.58346881  1
  O  O304  1  0.32525727  0.24909877  0.09094768  1
  O  O305  1  0.32115786  0.24992627  0.58377168  1
  O  O306  1  0.32256930  0.75131262  0.09276705  1
  O  O307  1  0.33120077  0.75004886  0.58389932  1
  O  O308  1  0.64825150  0.24948953  0.06915499  1
  O  O309  1  0.69478307  0.26081821  0.57147221  1
  O  O310  1  0.68957677  0.75074509  0.08789006  1
  O  O311  1  0.69117073  0.74960549  0.57588636  1
  O  O312  1  0.15602413  -0.01311577  0.42786830  1
  O  O313  1  0.12904929  0.00290005  0.91430314  1
  O  O314  1  0.16163838  0.49990407  0.41715716  1
  O  O315  1  0.14588612  0.50068326  0.91632001  1
  O  O316  1  0.48667419  0.00003309  0.41353758  1
  O  O317  1  0.51469384  0.01529776  0.91879234  1
  O  O318  1  0.48863907  0.50106802  0.41431140  1
  O  O319  1  0.51720658  0.50054921  0.92830438  1
  O  O320  1  0.83069455  -0.01318516  0.42490677  1
  O  O321  1  0.83705312  -0.00923367  0.93007075  1
  O  O322  1  0.81197799  0.50061115  0.41578767  1
  O  O323  1  0.82326475  0.49926478  0.91118040  1
  O  O324  1  0.33400110  0.25354808  0.41599537  1
  O  O325  1  0.31668381  0.23650827  0.92426322  1
  O  O326  1  0.32660927  0.74771040  0.41572709  1
  O  O327  1  0.31209893  0.74207425  0.92578888  1
  O  O328  1  0.64649065  0.25236328  0.41535787  1
  O  O329  1  0.67729305  0.24987614  0.90691339  1
  O  O330  1  0.64679264  0.74888603  0.41542922  1
  O  O331  1  0.68328722  0.74857374  0.91340842  1
  O  O332  1  0.99191824  0.25956825  0.41805152  1
  O  O333  1  0.98998039  0.25727158  0.90896900  1
  O  O334  1  0.98861382  0.74217459  0.41565834  1
  O  O335  1  0.98817795  0.74619455  0.91582547  1
  O  O336  1  0.21407096  0.08313094  0.20307352  1
  O  O337  1  0.21160197  0.08553642  0.69620454  1
  O  O338  1  0.21032142  0.58183646  0.19683576  1
  O  O339  1  0.20679933  0.58434218  0.69471614  1
  O  O340  1  0.54711999  0.08011456  0.20169694  1
  O  O341  1  0.54203179  0.08345391  0.69558985  1
  O  O342  1  0.54214891  0.58900088  0.19483530  1
  O  O343  1  0.53636958  0.58670582  0.68851149  1
  O  O344  1  0.88371911  0.08509659  0.19815361  1
  O  O345  1  0.88251679  0.08352076  0.69112768  1
  O  O346  1  0.87514995  0.58183944  0.19580175  1
  O  O347  1  0.87208409  0.58344751  0.69064273  1
  O  O348  1  0.04897003  0.33268623  0.19824099  1
  O  O349  1  0.04729822  0.34096828  0.69343939  1
  O  O350  1  0.04506609  0.83069243  0.20314797  1
  O  O351  1  0.04303815  0.83246410  0.69500349  1
  O  O352  1  0.37597605  0.33439519  0.19559402  1
  O  O353  1  0.37185226  0.33411107  0.68918908  1
  O  O354  1  0.37670364  0.83054292  0.20039869  1
  O  O355  1  0.37456464  0.83559513  0.69249601  1
  O  O356  1  0.71374164  0.33415961  0.19962343  1
  O  O357  1  0.70957125  0.33748143  0.68676403  1
  O  O358  1  0.71198020  0.83165092  0.19736339  1
  O  O359  1  0.70255027  0.82335673  0.68910004  1
  O  O360  1  0.21181460  0.41649732  0.19667820  1
  O  O361  1  0.20513480  0.41892079  0.69357121  1
  O  O362  1  0.21118598  0.91415282  0.19660609  1
  O  O363  1  0.20903574  0.91361726  0.69514409  1
  O  O364  1  0.54458337  0.41962298  0.19988070  1
  O  O365  1  0.54154549  0.41872508  0.69511188  1
  O  O366  1  0.54428416  0.91139891  0.19681153  1
  O  O367  1  0.53238180  0.91382587  0.68653111  1
  O  O368  1  0.87503949  0.41704195  0.19408862  1
  O  O369  1  0.87819859  0.41945046  0.69057999  1
  O  O370  1  0.87737431  0.91557714  0.19659536  1
  O  O371  1  0.88160584  0.92071351  0.69349901  1
  O  O372  1  0.04575525  0.17177289  0.19766657  1
  O  O373  1  0.04914941  0.16164107  0.69450017  1
  O  O374  1  0.04249137  0.66206726  0.19491806  1
  O  O375  1  0.04502655  0.66776286  0.69448611  1
  O  O376  1  0.37795556  0.16569722  0.19505252  1
  O  O377  1  0.37243395  0.16737472  0.69224937  1
  O  O378  1  0.37337218  0.66659093  0.19852478  1
  O  O379  1  0.37217363  0.66538972  0.69395661  1
  O  O380  1  0.71260298  0.16754275  0.20044610  1
  O  O381  1  0.71055363  0.16934397  0.69762209  1
  O  O382  1  0.71111236  0.66678572  0.19594520  1
  O  O383  1  0.71091854  0.66778487  0.68944903  1
  O  O384  1  0.12181996  0.08271477  0.30276861  1
  O  O385  1  0.11982561  0.08650838  0.80539810  1
  O  O386  1  0.12608803  0.58242248  0.30674334  1
  O  O387  1  0.12265964  0.58276395  0.80546799  1
  O  O388  1  0.45379745  0.08150788  0.30450796  1
  O  O389  1  0.45538810  0.08656035  0.80327314  1
  O  O390  1  0.45708209  0.58448644  0.30512299  1
  O  O391  1  0.45467992  0.58363251  0.79923726  1
  O  O392  1  0.78959091  0.08022127  0.30061302  1
  O  O393  1  0.79080465  0.08474415  0.79917004  1
  O  O394  1  0.78941687  0.58436430  0.30559583  1
  O  O395  1  0.79370224  0.58181838  0.80178602  1
  O  O396  1  0.29274328  0.33539191  0.30666176  1
  O  O397  1  0.28769915  0.33450557  0.79766551  1
  O  O398  1  0.29092313  0.83113388  0.30704968  1
  O  O399  1  0.28708900  0.83592782  0.80292006  1
  O  O400  1  0.62383366  0.33508941  0.30522823  1
  O  O401  1  0.62521415  0.33393686  0.79986404  1
  O  O402  1  0.62410827  0.83123995  0.30658767  1
  O  O403  1  0.62070774  0.82629776  0.80642940  1
  O  O404  1  0.95681100  0.33647463  0.30619713  1
  O  O405  1  0.94752997  0.34348788  0.80217596  1
  O  O406  1  0.95659841  0.82832762  0.30683284  1
  O  O407  1  0.96616370  0.82970341  0.80600759  1
  O  O408  1  0.13259644  0.41759357  0.30778773  1
  O  O409  1  0.11987239  0.41753668  0.80689023  1
  O  O410  1  0.12645868  0.91362857  0.30999679  1
  O  O411  1  0.11975651  0.91251415  0.80932648  1
  O  O412  1  0.45635096  0.41873913  0.30489284  1
  O  O413  1  0.45283601  0.41756142  0.79696328  1
  O  O414  1  0.45732670  0.91432319  0.30596351  1
  O  O415  1  0.45717786  0.91732304  0.79928047  1
  O  O416  1  0.79066521  0.41924415  0.30598534  1
  O  O417  1  0.78758190  0.41806540  0.79993815  1
  O  O418  1  0.79250980  0.91115144  0.30875804  1
  O  O419  1  0.79987599  0.92705094  0.80938440  1
  O  O420  1  0.29322654  0.16950397  0.30831627  1
  O  O421  1  0.29085855  0.16525035  0.80622840  1
  O  O422  1  0.29046438  0.66455435  0.30690478  1
  O  O423  1  0.28389861  0.66095843  0.81117475  1
  O  O424  1  0.62192391  0.16872978  0.30673285  1
  O  O425  1  0.62228514  0.16966612  0.80169575  1
  O  O426  1  0.62419401  0.66659157  0.30555175  1
  O  O427  1  0.62148625  0.66693438  0.80492040  1
  O  O428  1  0.95930343  0.17011725  0.31079654  1
  O  O429  1  0.95192666  0.16019352  0.80786365  1
  O  O430  1  0.95812911  0.66291132  0.30508900  1
  O  O431  1  0.95258509  0.66767257  0.80421415  1
  F  F432  1  0.04562202  -0.00287602  0.20498469  1
  F  F433  1  0.04376824  -0.00211137  0.70160061  1
  F  F434  1  0.04899524  0.50266503  0.20262060  1
  F  F435  1  0.04657232  0.49780204  0.69762448  1
  F  F436  1  0.37913063  -0.00299854  0.20487484  1
  F  F437  1  0.37499632  0.00166414  0.69934404  1
  F  F438  1  0.37723076  0.50172174  0.20339743  1
  F  F439  1  0.37004854  0.50211526  0.69713900  1
  F  F440  1  0.71421804  -0.00679289  0.20389299  1
  F  F441  1  0.71745849  0.00886320  0.69178855  1
  F  F442  1  0.71408456  0.50340529  0.20361898  1
  F  F443  1  0.71495669  0.49675177  0.69315898  1
  F  F444  1  0.21358466  0.25134238  0.20646261  1
  F  F445  1  0.20881230  0.24842630  0.69957234  1
  F  F446  1  0.21222964  0.74680748  0.20594201  1
  F  F447  1  0.20215771  0.74858436  0.70062799  1
  F  F448  1  0.54657411  0.25090623  0.20311427  1
  F  F449  1  0.54323546  0.25199159  0.69730158  1
  F  F450  1  0.54631146  0.74937639  0.20536357  1
  F  F451  1  0.54223634  0.74817746  0.69976033  1
  F  F452  1  0.88286654  0.24996708  0.20657268  1
  F  F453  1  0.86827086  0.25081629  0.69515617  1
  F  F454  1  0.87818727  0.74733167  0.20354987  1
  F  F455  1  0.88343553  0.74001425  0.69392826  1
  F  F456  1  0.29098433  -0.00383992  0.30201815  1
  F  F457  1  0.29156571  -0.00002597  0.79933404  1
  F  F458  1  0.28936897  0.50030149  0.29968554  1
  F  F459  1  0.28379572  0.50014301  0.79610608  1
  F  F460  1  0.62206466  -0.00605163  0.30139121  1
  F  F461  1  0.61749442  0.00838676  0.79791509  1
  F  F462  1  0.62196467  0.50501889  0.29932106  1
  F  F463  1  0.62182797  0.50045632  0.79390823  1
  F  F464  1  0.95654194  -0.00309527  0.30009620  1
  F  F465  1  0.95664064  0.00031204  0.79812312  1
  F  F466  1  0.95264117  0.50537534  0.30209388  1
  F  F467  1  0.95095558  0.49981979  0.79570813  1
  F  F468  1  0.12483238  0.25170294  0.30291060  1
  F  F469  1  0.13427814  0.25039160  0.80277103  1
  F  F470  1  0.12291284  0.74420862  0.30136940  1
  F  F471  1  0.11884478  0.74841015  0.80017061  1
  F  F472  1  0.45615373  0.25160635  0.29639980  1
  F  F473  1  0.45327248  0.25130748  0.79145899  1
  F  F474  1  0.45598060  0.74814018  0.30154583  1
  F  F475  1  0.45561367  0.74968665  0.79755339  1
  F  F476  1  0.79134779  0.25282713  0.30188785  1
  F  F477  1  0.78827283  0.25552784  0.79535357  1
  F  F478  1  0.78933291  0.74747675  0.29964754  1
  F  F479  1  0.78364048  0.73745575  0.79987793  1
