# generated using pymatgen
data_K24Na3Li5Mg64Fe17Si79(O5F)48
_symmetry_space_group_name_H-M   'P 1'
_cell_length_a   16.08304889
_cell_length_b   18.57339229
_cell_length_c   20.55582319
_cell_angle_alpha   90.01861547
_cell_angle_beta   99.99937390
_cell_angle_gamma   89.95281185
_symmetry_Int_Tables_number   1
_chemical_formula_structural   K24Na3Li5Mg64Fe17Si79(O5F)48
_chemical_formula_sum   'K24 Na3 Li5 Mg64 Fe17 Si79 O240 F48'
_cell_volume   6047.09272870
_cell_formula_units_Z   1
loop_
 _symmetry_equiv_pos_site_id
 _symmetry_equiv_pos_as_xyz
  1  'x, y, z'
loop_
 _atom_site_type_symbol
 _atom_site_label
 _atom_site_symmetry_multiplicity
 _atom_site_fract_x
 _atom_site_fract_y
 _atom_site_fract_z
 _atom_site_occupancy
  K  K0  1  0.00327840  0.01196880  -0.00968339  1
  K  K1  1  0.00438610  -0.00755776  0.50819889  1
  K  K2  1  -0.00193297  0.49873291  -0.00037903  1
  K  K3  1  -0.00283914  0.50187685  0.49921761  1
  K  K4  1  0.32384527  -0.00552519  -0.01386320  1
  K  K5  1  0.34460236  0.00923191  0.51223207  1
  K  K6  1  0.34324680  0.50148425  0.00671585  1
  K  K7  1  0.33823007  0.50428052  0.50062331  1
  K  K8  1  0.67157240  -0.00113651  -0.00582310  1
  K  K9  1  0.66622668  0.01252515  0.51147442  1
  K  K10  1  0.65875522  0.49396628  0.00018344  1
  K  K11  1  0.66597288  0.49906211  0.49390349  1
  K  K12  1  0.17068753  0.25059555  -0.00293766  1
  K  K13  1  0.16744817  0.25394535  0.50274448  1
  K  K14  1  0.18011298  0.74360475  -0.00562887  1
  K  K15  1  0.16388225  0.74505957  0.51207372  1
  K  K16  1  0.50342191  0.24978115  -0.00660087  1
  K  K17  1  0.50657570  0.24652983  0.51185030  1
  K  K18  1  0.48245744  0.74633385  -0.00972651  1
  K  K19  1  0.49061516  0.74744212  0.50413789  1
  K  K20  1  0.82558301  0.25452307  -0.00531201  1
  K  K21  1  0.82824357  0.24826371  0.50144275  1
  K  K22  1  0.82595390  0.74448940  -0.00371044  1
  K  K23  1  0.84536713  0.74551081  0.50781699  1
  Na  Na24  1  0.49671984  0.49772548  0.24292328  1
  Na  Na25  1  0.83743002  0.17224515  0.25027499  1
  Na  Na26  1  0.33770184  0.57710090  0.24142006  1
  Li  Li27  1  0.00176689  0.25249891  0.25198718  1
  Li  Li28  1  0.34191361  0.24832783  0.75601997  1
  Li  Li29  1  0.49717590  0.16946611  0.75397252  1
  Li  Li30  1  0.49793681  0.33871032  0.24822031  1
  Li  Li31  1  0.16224733  0.33113058  0.25160141  1
  Mg  Mg32  1  -0.00137084  0.24981019  0.74822150  1
  Mg  Mg33  1  0.66145429  0.24683223  0.75163413  1
  Mg  Mg34  1  0.16623047  0.00280930  0.74801507  1
  Mg  Mg35  1  0.33179808  0.25184648  0.25151903  1
  Mg  Mg36  1  0.16630304  0.00240971  0.25162226  1
  Mg  Mg37  1  0.33118290  0.75155243  0.74764928  1
  Mg  Mg38  1  0.66397094  0.25207756  0.25001150  1
  Mg  Mg39  1  0.83136317  0.50177712  0.75347844  1
  Mg  Mg40  1  0.83214945  0.00128415  0.74811661  1
  Mg  Mg41  1  0.83378147  0.49879703  0.25571245  1
  Mg  Mg42  1  0.16639916  0.49720341  0.74767659  1
  Mg  Mg43  1  0.66814516  0.74743304  0.25217976  1
  Mg  Mg44  1  0.66540481  0.75128252  0.75257329  1
  Mg  Mg45  1  -0.00029915  0.75148798  0.75029405  1
  Mg  Mg46  1  0.49695678  0.49891297  0.75104204  1
  Mg  Mg47  1  0.49937217  0.00228253  0.24947395  1
  Mg  Mg48  1  0.83482314  0.00193270  0.25146233  1
  Mg  Mg49  1  0.00302686  0.74815300  0.25152759  1
  Mg  Mg50  1  0.16868835  0.49358376  0.24886034  1
  Mg  Mg51  1  0.50037276  0.00226866  0.74748237  1
  Mg  Mg52  1  0.33582193  0.74759606  0.24772537  1
  Mg  Mg53  1  0.16624294  0.66463346  0.74743675  1
  Mg  Mg54  1  0.17147658  0.66176087  0.24802857  1
  Mg  Mg55  1  -0.00114992  0.91491476  0.75022451  1
  Mg  Mg56  1  0.16777959  0.16957250  0.74830331  1
  Mg  Mg57  1  0.66918559  0.91739089  0.75037605  1
  Mg  Mg58  1  0.33161014  0.91602126  0.74586888  1
  Mg  Mg59  1  0.33349998  0.58380303  0.74720920  1
  Mg  Mg60  1  0.49876331  0.16965692  0.25004241  1
  Mg  Mg61  1  0.66849495  0.08567581  0.25110605  1
  Mg  Mg62  1  0.82919035  0.33472555  0.74967063  1
  Mg  Mg63  1  0.49446611  0.66617307  0.74806426  1
  Mg  Mg64  1  -0.00086353  0.41639674  0.74861737  1
  Mg  Mg65  1  0.83523264  0.66389567  0.25292520  1
  Mg  Mg66  1  0.16245933  0.17241568  0.25205825  1
  Mg  Mg67  1  0.16934886  0.33066932  0.74852962  1
  Mg  Mg68  1  0.49909608  0.32874218  0.75268811  1
  Mg  Mg69  1  0.66327190  0.41461056  0.25122253  1
  Mg  Mg70  1  -0.00008402  0.58517971  0.75083343  1
  Mg  Mg71  1  0.33224591  0.41263290  0.24796761  1
  Mg  Mg72  1  0.50090839  0.66385248  0.24850795  1
  Mg  Mg73  1  0.83572316  0.33135842  0.25265135  1
  Mg  Mg74  1  -0.00015333  0.08731024  0.25140242  1
  Mg  Mg75  1  0.33102204  0.08650895  0.25047684  1
  Mg  Mg76  1  0.00199705  0.41096871  0.25219164  1
  Mg  Mg77  1  0.16839786  0.83326456  0.25032880  1
  Mg  Mg78  1  0.00115587  0.91649151  0.25031262  1
  Mg  Mg79  1  0.33489887  0.41153287  0.75141902  1
  Mg  Mg80  1  0.83546278  0.66797592  0.75372799  1
  Mg  Mg81  1  0.66377473  0.58513082  0.75184483  1
  Mg  Mg82  1  0.00340993  0.58132620  0.25331019  1
  Mg  Mg83  1  0.83455617  0.83382861  0.25123510  1
  Mg  Mg84  1  0.49913642  0.83454804  0.24872498  1
  Mg  Mg85  1  -0.00226299  0.08622428  0.74889779  1
  Mg  Mg86  1  0.16521208  0.83623287  0.74763108  1
  Mg  Mg87  1  0.66719044  0.08649896  0.75132437  1
  Mg  Mg88  1  0.66342971  0.41497555  0.75010811  1
  Mg  Mg89  1  0.66742980  0.91653570  0.25132734  1
  Mg  Mg90  1  0.33264448  0.91692951  0.24921044  1
  Mg  Mg91  1  0.49724182  0.83487338  0.74857927  1
  Mg  Mg92  1  0.83548914  0.83548673  0.75050468  1
  Mg  Mg93  1  0.83114112  0.16478010  0.75033219  1
  Mg  Mg94  1  0.33617033  0.08802494  0.74940778  1
  Mg  Mg95  1  0.66790674  0.58155833  0.25316546  1
  Fe  Fe96  1  0.47336129  0.58325772  0.88791567  1
  Fe  Fe97  1  0.85776548  0.07734855  0.60592781  1
  Fe  Fe98  1  0.53265480  0.58070816  0.10712183  1
  Fe  Fe99  1  0.02283655  0.16910205  0.60813068  1
  Fe  Fe100  1  0.35917066  0.67058423  0.10539191  1
  Fe  Fe101  1  0.64009253  0.32859434  0.88987049  1
  Fe  Fe102  1  0.35261351  0.66812008  0.60519431  1
  Fe  Fe103  1  0.97866028  0.82920736  0.89308892  1
  Fe  Fe104  1  0.97962489  0.66244740  0.89213519  1
  Fe  Fe105  1  0.81458523  0.08462313  0.89347160  1
  Fe  Fe106  1  0.30204539  0.83451150  0.88706246  1
  Fe  Fe107  1  0.31008815  0.32994971  0.88879236  1
  Fe  Fe108  1  0.81083921  0.91364696  0.89148415  1
  Fe  Fe109  1  0.35747063  0.83939688  0.60535241  1
  Fe  Fe110  1  0.69286140  0.17230308  0.60893099  1
  Fe  Fe111  1  0.02880166  0.83305085  0.60803696  1
  Fe  Fe112  1  0.80895398  0.58307702  0.39383173  1
  Si  Si113  1  0.52223169  0.41972943  0.61409032  1
  Si  Si114  1  0.19052725  0.40897675  0.61281534  1
  Si  Si115  1  0.85880783  0.41765194  0.11779949  1
  Si  Si116  1  0.31375399  0.16197289  0.88706741  1
  Si  Si117  1  0.14233345  0.41351831  0.88335580  1
  Si  Si118  1  0.63976469  0.83713949  0.38683706  1
  Si  Si119  1  0.02314250  0.33298171  0.11688091  1
  Si  Si120  1  0.47275662  0.91942511  0.38486618  1
  Si  Si121  1  0.85569266  0.42350733  0.61482434  1
  Si  Si122  1  0.35591430  0.16410082  0.11457300  1
  Si  Si123  1  0.13618596  0.92539689  0.88867741  1
  Si  Si124  1  0.97881331  0.17724542  0.88858960  1
  Si  Si125  1  0.52768291  0.91977185  0.11494985  1
  Si  Si126  1  0.35618192  0.84253085  0.11197737  1
  Si  Si127  1  0.47458278  0.91591151  0.88525596  1
  Si  Si128  1  0.30977541  0.66639991  0.38403311  1
  Si  Si129  1  0.70128286  0.66779535  0.11439979  1
  Si  Si130  1  0.14348718  0.08388096  0.38797140  1
  Si  Si131  1  0.69188500  0.82864653  0.61556423  1
  Si  Si132  1  0.47198921  0.41602497  0.38527432  1
  Si  Si133  1  0.52741707  0.08260083  0.61325134  1
  Si  Si134  1  0.30738065  0.16956177  0.38690454  1
  Si  Si135  1  0.69027986  0.66578347  0.61676065  1
  Si  Si136  1  0.18901939  0.92116719  0.11589889  1
  Si  Si137  1  0.68981030  0.34137116  0.61084450  1
  Si  Si138  1  0.97771481  0.83566893  0.38561620  1
  Si  Si139  1  0.80721293  0.41939096  0.88809098  1
  Si  Si140  1  0.19241443  0.92867588  0.60799775  1
  Si  Si141  1  0.18874584  0.57690598  0.11143693  1
  Si  Si142  1  0.01757259  0.33758285  0.61168836  1
  Si  Si143  1  0.69354566  0.83393290  0.11621092  1
  Si  Si144  1  0.47486308  0.07817052  0.88390255  1
  Si  Si145  1  0.18892007  0.41138335  0.11425869  1
  Si  Si146  1  0.02504248  0.66005412  0.61111747  1
  Si  Si147  1  0.47599136  0.58392312  0.38623206  1
  Si  Si148  1  0.69287607  0.16532624  0.11610756  1
  Si  Si149  1  0.63831681  0.67086972  0.39195222  1
  Si  Si150  1  0.53185068  0.91627236  0.61140830  1
  Si  Si151  1  0.63830296  0.67026447  0.88617993  1
  Si  Si152  1  0.86546683  0.58359794  0.11825069  1
  Si  Si153  1  0.35569036  0.32932986  0.11503268  1
  Si  Si154  1  0.63834959  0.83489877  0.88562887  1
  Si  Si155  1  0.14455816  0.91779530  0.38605815  1
  Si  Si156  1  0.80863287  0.40970818  0.39037492  1
  Si  Si157  1  0.14028841  0.41652401  0.38677099  1
  Si  Si158  1  0.86083114  0.91585331  0.11542277  1
  Si  Si159  1  0.97498033  0.34149316  0.88338452  1
  Si  Si160  1  0.80888147  0.08248140  0.38652022  1
  Si  Si161  1  0.18839595  0.57356596  0.60927063  1
  Si  Si162  1  0.63969337  0.16036757  0.89082477  1
  Si  Si163  1  0.52710161  0.58373696  0.61172165  1
  Si  Si164  1  0.63790715  0.33144778  0.38546965  1
  Si  Si165  1  0.19459384  0.09335199  0.61270959  1
  Si  Si166  1  0.64054708  0.16524459  0.38592155  1
  Si  Si167  1  0.02232584  0.16822912  0.11566128  1
  Si  Si168  1  0.36147860  0.33158323  0.61460923  1
  Si  Si169  1  0.85512677  0.58658620  0.61661043  1
  Si  Si170  1  0.52583468  0.08596679  0.11441115  1
  Si  Si171  1  0.98221874  0.66883543  0.38922966  1
  Si  Si172  1  0.30890247  0.83193411  0.38469837  1
  Si  Si173  1  0.80319551  0.58590176  0.88859272  1
  Si  Si174  1  0.18704161  0.08607185  0.11585450  1
  Si  Si175  1  0.47419319  0.41681551  0.88882028  1
  Si  Si176  1  0.47250000  0.08505595  0.38541900  1
  Si  Si177  1  0.97859232  0.16479555  0.38699839  1
  Si  Si178  1  0.36389988  0.16612024  0.61742508  1
  Si  Si179  1  0.97614096  0.33058225  0.38826355  1
  Si  Si180  1  0.02969068  0.66449362  0.11574630  1
  Si  Si181  1  0.86026703  0.08006574  0.11568689  1
  Si  Si182  1  0.52616540  0.40594737  0.11222996  1
  Si  Si183  1  0.29967649  0.66108020  0.88500532  1
  Si  Si184  1  0.69487385  0.33045265  0.11547203  1
  Si  Si185  1  0.02709922  0.83139461  0.11580536  1
  Si  Si186  1  0.14350687  0.09067032  0.88497540  1
  Si  Si187  1  0.30802482  0.33517720  0.38639605  1
  Si  Si188  1  0.85252365  0.90971314  0.60843584  1
  Si  Si189  1  0.14577362  0.58232825  0.38616640  1
  Si  Si190  1  0.14009619  0.57425223  0.88327948  1
  Si  Si191  1  0.80909039  0.91691431  0.38713731  1
  O  O192  1  0.26904914  0.11755115  0.08665932  1
  O  O193  1  0.28124570  0.11752093  0.58446390  1
  O  O194  1  0.26380762  0.61005034  0.07864941  1
  O  O195  1  0.26052758  0.60597489  0.57233152  1
  O  O196  1  0.60075778  0.12791309  0.08413865  1
  O  O197  1  0.59539292  0.11843104  0.57357597  1
  O  O198  1  0.62986295  0.61629845  0.07621040  1
  O  O199  1  0.61579608  0.60871930  0.58608238  1
  O  O200  1  0.93590288  0.12200158  0.08588736  1
  O  O201  1  0.95168468  0.09814468  0.56845610  1
  O  O202  1  0.94576854  0.61601418  0.08808246  1
  O  O203  1  0.93562600  0.61546316  0.58540909  1
  O  O204  1  0.10153765  0.36612029  0.08335438  1
  O  O205  1  0.10333125  0.36469376  0.58323771  1
  O  O206  1  0.10648137  0.87027435  0.08841163  1
  O  O207  1  0.11610852  0.87694637  0.57168008  1
  O  O208  1  0.43677804  0.36048653  0.08542557  1
  O  O209  1  0.43803673  0.37139552  0.58222792  1
  O  O210  1  0.43749138  0.88173504  0.08575438  1
  O  O211  1  0.45702072  0.86641374  0.57307556  1
  O  O212  1  0.77054071  0.37524798  0.08748393  1
  O  O213  1  0.77181345  0.37729814  0.58247241  1
  O  O214  1  0.77138644  0.87429117  0.08792710  1
  O  O215  1  0.77690812  0.84746916  0.58597949  1
  O  O216  1  0.26735353  0.37283491  0.08390468  1
  O  O217  1  0.26989327  0.37118328  0.58348564  1
  O  O218  1  0.27408086  0.89714744  0.08829161  1
  O  O219  1  0.27726911  0.91200184  0.57781997  1
  O  O220  1  0.60294694  0.36244472  0.08145219  1
  O  O221  1  0.60606898  0.39314099  0.58455501  1
  O  O222  1  0.60564385  0.87825040  0.08798618  1
  O  O223  1  0.61871470  0.88716317  0.58536787  1
  O  O224  1  0.93624371  0.37994317  0.08648902  1
  O  O225  1  0.94094786  0.39795499  0.58677827  1
  O  O226  1  0.93898385  0.87494656  0.08855252  1
  O  O227  1  0.92905556  0.88175688  0.57205888  1
  O  O228  1  0.10267735  0.13291507  0.08467039  1
  O  O229  1  0.12581309  0.15138189  0.57885833  1
  O  O230  1  0.10356148  0.62691089  0.08274315  1
  O  O231  1  0.09660498  0.61266527  0.58096066  1
  O  O232  1  0.43441914  0.12446370  0.08569022  1
  O  O233  1  0.43895090  0.12726131  0.58445657  1
  O  O234  1  0.44535788  0.63803790  0.06500525  1
  O  O235  1  0.45202324  0.63425953  0.57518536  1
  O  O236  1  0.76834463  0.11909157  0.08968796  1
  O  O237  1  0.77500166  0.13967720  0.56415845  1
  O  O238  1  0.78970152  0.63999617  0.09070716  1
  O  O239  1  0.77507545  0.63961099  0.58794725  1
  O  O240  1  0.06570157  0.11924011  0.41936743  1
  O  O241  1  0.06660784  0.13039304  0.91549090  1
  O  O242  1  0.07310019  0.62788510  0.41608299  1
  O  O243  1  0.05700800  0.58592671  0.91612217  1
  O  O244  1  0.39754208  0.12754642  0.41538252  1
  O  O245  1  0.38907504  0.10138296  0.91346095  1
  O  O246  1  0.39645522  0.62278807  0.41535773  1
  O  O247  1  0.37094196  0.60288751  0.91555018  1
  O  O248  1  0.72989974  0.12304046  0.41406753  1
  O  O249  1  0.71284724  0.10424021  0.92405960  1
  O  O250  1  0.72561881  0.63501296  0.42885842  1
  O  O251  1  0.71597926  0.61314717  0.91385842  1
  O  O252  1  0.22950873  0.37415382  0.41632291  1
  O  O253  1  0.20709478  0.35335509  0.91813073  1
  O  O254  1  0.23049018  0.87125548  0.41340143  1
  O  O255  1  0.21494293  0.87636459  0.92497842  1
  O  O256  1  0.56237859  0.37390018  0.41586660  1
  O  O257  1  0.54191952  0.35508789  0.92007397  1
  O  O258  1  0.56512438  0.88376026  0.41396014  1
  O  O259  1  0.54992513  0.85671918  0.91192272  1
  O  O260  1  0.89628414  0.36359741  0.41968548  1
  O  O261  1  0.89428374  0.37183117  0.91466636  1
  O  O262  1  0.89746897  0.87226098  0.41368511  1
  O  O263  1  0.88187233  0.84082721  0.92873507  1
  O  O264  1  0.06371768  0.37647227  0.41828457  1
  O  O265  1  0.05122178  0.39867992  0.90939812  1
  O  O266  1  0.06317766  0.88282907  0.41344158  1
  O  O267  1  0.05209480  0.90699118  0.91858511  1
  O  O268  1  0.39582302  0.37770451  0.41979195  1
  O  O269  1  0.38714899  0.40373254  0.91816774  1
  O  O270  1  0.39740170  0.87559596  0.41270905  1
  O  O271  1  0.39602623  0.89321646  0.92045609  1
  O  O272  1  0.72948549  0.36808233  0.41746778  1
  O  O273  1  0.73424901  0.38785143  0.92452871  1
  O  O274  1  0.73139694  0.87610004  0.41517647  1
  O  O275  1  0.70791150  0.89062915  0.92127148  1
  O  O276  1  0.23182501  0.12736498  0.41697309  1
  O  O277  1  0.22946483  0.13451346  0.91759189  1
  O  O278  1  0.23493898  0.62381756  0.41445832  1
  O  O279  1  0.21163351  0.63479083  0.91030695  1
  O  O280  1  0.56416819  0.12194799  0.41448278  1
  O  O281  1  0.55054115  0.13327928  0.91554521  1
  O  O282  1  0.56118001  0.62931483  0.42113640  1
  O  O283  1  0.55766938  0.65164274  0.91943773  1
  O  O284  1  0.89668863  0.12676813  0.41340425  1
  O  O285  1  0.90470001  0.15111610  0.92665903  1
  O  O286  1  0.91186174  0.63270599  0.42546141  1
  O  O287  1  0.87875171  0.63681727  0.92374929  1
  O  O288  1  0.16746996  0.00333518  0.08795686  1
  O  O289  1  0.16641180  0.01262853  0.58355631  1
  O  O290  1  0.17083079  0.49326612  0.08326450  1
  O  O291  1  0.17460199  0.48975850  0.58134829  1
  O  O292  1  0.52355677  0.00264872  0.08627450  1
  O  O293  1  0.51360719  -0.00085970  0.58293229  1
  O  O294  1  0.51588074  0.48389109  0.07707351  1
  O  O295  1  0.50480990  0.50113690  0.58331404  1
  O  O296  1  0.85249036  -0.00251958  0.08533211  1
  O  O297  1  0.81575287  -0.01495450  0.57600678  1
  O  O298  1  0.84798560  0.50134288  0.08876273  1
  O  O299  1  0.83358848  0.50560530  0.58628402  1
  O  O300  1  0.00792100  0.25023984  0.08626590  1
  O  O301  1  -0.01381519  0.26309201  0.57615465  1
  O  O302  1  0.01594189  0.74833982  0.08907280  1
  O  O303  1  0.01645574  0.73700134  0.57415874  1
  O  O304  1  0.34166864  0.24545771  0.08477254  1
  O  O305  1  0.35381812  0.24879464  0.58470933  1
  O  O306  1  0.33460242  0.76783979  0.07490011  1
  O  O307  1  0.32329623  0.75395473  0.56200196  1
  O  O308  1  0.69725248  0.24712417  0.08695463  1
  O  O309  1  0.66898955  0.26622586  0.57318250  1
  O  O310  1  0.68742442  0.75239163  0.08676799  1
  O  O311  1  0.66328130  0.74666739  0.58732315  1
  O  O312  1  0.15757289  0.00006729  0.41510837  1
  O  O313  1  0.15844926  0.00969214  0.91598652  1
  O  O314  1  0.14966789  0.50005506  0.41716348  1
  O  O315  1  0.17738004  0.49390295  0.90838797  1
  O  O316  1  0.47387912  0.00200695  0.41418151  1
  O  O317  1  0.50434194  -0.00264051  0.91410712  1
  O  O318  1  0.48304994  0.49990756  0.41537556  1
  O  O319  1  0.51626306  0.49355708  0.91615387  1
  O  O320  1  0.81876991  -0.00081845  0.41693000  1
  O  O321  1  0.85033594  -0.00161684  0.93327838  1
  O  O322  1  0.81939891  0.48769195  0.42667018  1
  O  O323  1  0.82588370  0.50273009  0.91502896  1
  O  O324  1  0.31469664  0.25149070  0.41718514  1
  O  O325  1  0.34322627  0.23724880  0.92345886  1
  O  O326  1  0.31928550  0.74984425  0.41369738  1
  O  O327  1  0.32188546  0.73988733  0.91810005  1
  O  O328  1  0.64229330  0.24754848  0.41488009  1
  O  O329  1  0.66401240  0.23752907  0.92742133  1
  O  O330  1  0.63744815  0.75643941  0.41766203  1
  O  O331  1  0.66801234  0.75254123  0.91116155  1
  O  O332  1  0.99052720  0.24743658  0.41714504  1
  O  O333  1  1.00267253  0.26159199  0.91378358  1
  O  O334  1  0.99471168  0.75407433  0.41437434  1
  O  O335  1  1.02773652  0.74496224  0.93091604  1
  O  O336  1  0.20780707  0.08410584  0.19639271  1
  O  O337  1  0.21117529  0.08816695  0.69352939  1
  O  O338  1  0.19800555  0.57892206  0.19145307  1
  O  O339  1  0.20729110  0.57876561  0.68998734  1
  O  O340  1  0.54232474  0.08365251  0.19510094  1
  O  O341  1  0.54726000  0.08041241  0.69280871  1
  O  O342  1  0.55582973  0.59300687  0.19786299  1
  O  O343  1  0.54433220  0.58407278  0.69230049  1
  O  O344  1  0.88210240  0.07519979  0.19500522  1
  O  O345  1  0.87827740  0.08520012  0.69847911  1
  O  O346  1  0.88297639  0.58311452  0.19867779  1
  O  O347  1  0.87319561  0.58344463  0.69655770  1
  O  O348  1  0.04210734  0.33512837  0.19566341  1
  O  O349  1  0.03837377  0.33590131  0.69243851  1
  O  O350  1  0.04501060  0.83330935  0.19678014  1
  O  O351  1  0.04591140  0.83377221  0.69928234  1
  O  O352  1  0.37081956  0.32694791  0.19444390  1
  O  O353  1  0.38115839  0.33693891  0.69330424  1
  O  O354  1  0.37633396  0.83989429  0.19336872  1
  O  O355  1  0.37890699  0.83405981  0.69723973  1
  O  O356  1  0.71188006  0.33233709  0.19566178  1
  O  O357  1  0.71095226  0.33949750  0.69126816  1
  O  O358  1  0.71150936  0.83489819  0.19712604  1
  O  O359  1  0.70788651  0.82980377  0.69563283  1
  O  O360  1  0.20668495  0.41255617  0.19377506  1
  O  O361  1  0.20779867  0.41371246  0.69248791  1
  O  O362  1  0.20806580  0.91905696  0.19678741  1
  O  O363  1  0.20623828  0.92228295  0.68925410  1
  O  O364  1  0.55125047  0.40620938  0.19119428  1
  O  O365  1  0.54052772  0.41902888  0.69394912  1
  O  O366  1  0.54445553  0.91924413  0.19585326  1
  O  O367  1  0.54481485  0.91538154  0.69220160  1
  O  O368  1  0.87714611  0.41874779  0.19804841  1
  O  O369  1  0.87302172  0.41996491  0.69518061  1
  O  O370  1  0.87791684  0.91539147  0.19636692  1
  O  O371  1  0.87575859  0.91428647  0.68938683  1
  O  O372  1  0.04499446  0.16230297  0.19482436  1
  O  O373  1  0.04263956  0.16839048  0.70043121  1
  O  O374  1  0.04563564  0.66607515  0.19669983  1
  O  O375  1  0.04398828  0.66304870  0.69155571  1
  O  O376  1  0.37554309  0.16301320  0.19492178  1
  O  O377  1  0.37777085  0.16646632  0.69590121  1
  O  O378  1  0.38565937  0.67761727  0.19621626  1
  O  O379  1  0.37319235  0.66839038  0.69701299  1
  O  O380  1  0.70131518  0.16543162  0.19518717  1
  O  O381  1  0.71039574  0.16994336  0.70046938  1
  O  O382  1  0.71573976  0.67059789  0.19552607  1
  O  O383  1  0.70898413  0.66597623  0.69704338  1
  O  O384  1  0.12590478  0.08284757  0.30743584  1
  O  O385  1  0.12445601  0.08727095  0.80492242  1
  O  O386  1  0.12564226  0.58233913  0.30585463  1
  O  O387  1  0.12229139  0.57874582  0.80181933  1
  O  O388  1  0.45503456  0.08313505  0.30495452  1
  O  O389  1  0.45542554  0.07815249  0.80441971  1
  O  O390  1  0.46393613  0.58982710  0.30842778  1
  O  O391  1  0.45431230  0.58256002  0.79609231  1
  O  O392  1  0.78649847  0.07621268  0.30711954  1
  O  O393  1  0.79015328  0.08283114  0.80179200  1
  O  O394  1  0.79145607  0.58452079  0.30203139  1
  O  O395  1  0.78801468  0.58508047  0.80720935  1
  O  O396  1  0.29231028  0.33122712  0.30728750  1
  O  O397  1  0.28699059  0.33274541  0.79852406  1
  O  O398  1  0.29059350  0.83508723  0.30403123  1
  O  O399  1  0.28432610  0.83514622  0.79559754  1
  O  O400  1  0.62351351  0.33178534  0.30613141  1
  O  O401  1  0.62318300  0.33354232  0.79825452  1
  O  O402  1  0.62391167  0.83686685  0.30617578  1
  O  O403  1  0.62159247  0.83483658  0.80441636  1
  O  O404  1  0.95577590  0.33557051  0.30898100  1
  O  O405  1  0.95373291  0.33733706  0.80295756  1
  O  O406  1  0.95893452  0.83469183  0.30496285  1
  O  O407  1  0.95468599  0.83231408  0.80006528  1
  O  O408  1  0.12001172  0.41888733  0.30761327  1
  O  O409  1  0.12193912  0.41426178  0.80203105  1
  O  O410  1  0.12525731  0.91693729  0.30532453  1
  O  O411  1  0.12490256  0.92185999  0.80740587  1
  O  O412  1  0.44939814  0.41115432  0.30702758  1
  O  O413  1  0.45680765  0.41597624  0.80648247  1
  O  O414  1  0.45602819  0.91956872  0.30418077  1
  O  O415  1  0.45699878  0.91779316  0.80441178  1
  O  O416  1  0.79275102  0.41391997  0.30963001  1
  O  O417  1  0.78886740  0.41834856  0.80688514  1
  O  O418  1  0.79117994  0.91623003  0.30625503  1
  O  O419  1  0.78949835  0.91676315  0.79821288  1
  O  O420  1  0.28896529  0.16533652  0.30680681  1
  O  O421  1  0.28896123  0.16279267  0.80723896  1
  O  O422  1  0.28680237  0.67201375  0.30490737  1
  O  O423  1  0.28477572  0.66395122  0.80341927  1
  O  O424  1  0.62158215  0.16418478  0.30575273  1
  O  O425  1  0.62629922  0.16494049  0.81049720  1
  O  O426  1  0.62686568  0.67101024  0.31121801  1
  O  O427  1  0.62132774  0.66740905  0.80492223  1
  O  O428  1  0.96708951  0.16316846  0.30861579  1
  O  O429  1  0.95641786  0.17245343  0.80830895  1
  O  O430  1  0.96150814  0.66740345  0.30801149  1
  O  O431  1  0.95637383  0.66631468  0.79919175  1
  F  F432  1  0.04645967  -0.00065334  0.20368988  1
  F  F433  1  0.04546431  0.00114081  0.70300287  1
  F  F434  1  0.04320150  0.49858336  0.20408292  1
  F  F435  1  0.04227276  0.49945785  0.70002820  1
  F  F436  1  0.37717176  0.00203013  0.20211129  1
  F  F437  1  0.37899588  0.00089744  0.69979482  1
  F  F438  1  0.36581988  0.48210269  0.18629697  1
  F  F439  1  0.37631106  0.49609856  0.69851918  1
  F  F440  1  0.71181642  -0.00136638  0.20228760  1
  F  F441  1  0.70879211  0.00052902  0.69897941  1
  F  F442  1  0.71595493  0.49660060  0.20332221  1
  F  F443  1  0.71158089  0.50161305  0.70382783  1
  F  F444  1  0.21530613  0.24152860  0.19951243  1
  F  F445  1  0.20140883  0.25001121  0.69608063  1
  F  F446  1  0.21095118  0.75183687  0.20118425  1
  F  F447  1  0.20796892  0.74733063  0.69725944  1
  F  F448  1  0.54572799  0.24341667  0.20060370  1
  F  F449  1  0.54560749  0.25311252  0.69743207  1
  F  F450  1  0.55054330  0.75600021  0.20414086  1
  F  F451  1  0.54532039  0.74966498  0.70230309  1
  F  F452  1  0.87961795  0.26166297  0.19657140  1
  F  F453  1  0.87646758  0.25317147  0.70261287  1
  F  F454  1  0.88186728  0.75031713  0.20488511  1
  F  F455  1  0.87470893  0.74812791  0.69898193  1
  F  F456  1  0.28870490  0.00062412  0.29889122  1
  F  F457  1  0.28733953  0.00102974  0.79398654  1
  F  F458  1  0.28314983  0.48981791  0.30092005  1
  F  F459  1  0.28616821  0.49883998  0.79235600  1
  F  F460  1  0.62019839  0.00049395  0.29846471  1
  F  F461  1  0.62034068  -0.00093395  0.79598625  1
  F  F462  1  0.63623158  0.49780877  0.30482420  1
  F  F463  1  0.62059968  0.50052399  0.79645893  1
  F  F464  1  0.95691957  -0.00246101  0.30029992  1
  F  F465  1  0.95575192  0.00018828  0.79639095  1
  F  F466  1  0.95701043  0.49970653  0.30210356  1
  F  F467  1  0.95319930  0.49963044  0.79648015  1
  F  F468  1  0.12570206  0.24808285  0.30376773  1
  F  F469  1  0.11933271  0.25297869  0.79839133  1
  F  F470  1  0.12339784  0.75024670  0.29850641  1
  F  F471  1  0.12289780  0.74717349  0.79538659  1
  F  F472  1  0.44911499  0.23983688  0.30266601  1
  F  F473  1  0.45839086  0.25130047  0.80181456  1
  F  F474  1  0.45574247  0.75863224  0.30080000  1
  F  F475  1  0.45482258  0.75067693  0.79831929  1
  F  F476  1  0.78080798  0.25712665  0.30325615  1
  F  F477  1  0.78795104  0.25444368  0.79890850  1
  F  F478  1  0.79101940  0.75224752  0.30024546  1
  F  F479  1  0.78659634  0.74972449  0.79778318  1
