# generated using pymatgen
data_K24Na3Li5Mg64Fe17Si79(O5F)48
_symmetry_space_group_name_H-M   'P 1'
_cell_length_a   16.08998472
_cell_length_b   18.58566357
_cell_length_c   20.54738237
_cell_angle_alpha   89.98935439
_cell_angle_beta   100.02946892
_cell_angle_gamma   90.00692737
_symmetry_Int_Tables_number   1
_chemical_formula_structural   K24Na3Li5Mg64Fe17Si79(O5F)48
_chemical_formula_sum   'K24 Na3 Li5 Mg64 Fe17 Si79 O240 F48'
_cell_volume   6050.65248574
_cell_formula_units_Z   1
loop_
 _symmetry_equiv_pos_site_id
 _symmetry_equiv_pos_as_xyz
  1  'x, y, z'
loop_
 _atom_site_type_symbol
 _atom_site_label
 _atom_site_symmetry_multiplicity
 _atom_site_fract_x
 _atom_site_fract_y
 _atom_site_fract_z
 _atom_site_occupancy
  K  K0  1  0.00356219  -0.00482563  0.00055880  1
  K  K1  1  0.01207383  -0.00500339  0.50410588  1
  K  K2  1  -0.00436864  0.50609176  0.00717360  1
  K  K3  1  0.00339865  0.49814204  0.49517759  1
  K  K4  1  0.33410482  0.00356516  -0.00277450  1
  K  K5  1  0.32809107  -0.01019959  0.50774285  1
  K  K6  1  0.32298594  0.50523552  0.00009335  1
  K  K7  1  0.33061617  0.51234937  0.49410968  1
  K  K8  1  0.66319517  -0.00994532  -0.00011724  1
  K  K9  1  0.66046568  0.00330710  0.50322810  1
  K  K10  1  0.67207938  0.49978964  0.00223883  1
  K  K11  1  0.65846930  0.51101066  0.50140597  1
  K  K12  1  0.17100174  0.24090150  0.00021076  1
  K  K13  1  0.16160657  0.24366610  0.49901950  1
  K  K14  1  0.17087795  0.74672431  0.00050684  1
  K  K15  1  0.17205196  0.75672559  0.50605890  1
  K  K16  1  0.49178106  0.24726447  0.00224428  1
  K  K17  1  0.50323847  0.25042947  0.49622588  1
  K  K18  1  0.50090556  0.75217170  -0.00886257  1
  K  K19  1  0.50835964  0.75290032  0.50589259  1
  K  K20  1  0.83394865  0.25569805  0.00266935  1
  K  K21  1  0.83040039  0.24698560  0.50153793  1
  K  K22  1  0.82304516  0.75148727  -0.00266821  1
  K  K23  1  0.83374079  0.75119739  0.49930188  1
  Na  Na24  1  0.16622137  0.50001848  0.24668561  1
  Na  Na25  1  0.66746467  0.42009797  0.24541388  1
  Na  Na26  1  0.16423110  0.16610246  0.73961617  1
  Li  Li27  1  0.17436294  0.00168015  0.74388416  1
  Li  Li28  1  0.34181679  0.75346586  0.75683731  1
  Li  Li29  1  0.66819758  0.58605323  0.75957544  1
  Li  Li30  1  0.49833084  0.83110665  0.75005273  1
  Li  Li31  1  0.83487775  0.33343305  0.75056148  1
  Mg  Mg32  1  0.83470648  -0.00161717  0.74954743  1
  Mg  Mg33  1  0.67186432  0.24992689  0.75051426  1
  Mg  Mg34  1  0.33295870  0.74887636  0.24922138  1
  Mg  Mg35  1  0.50346096  0.50069857  0.75423080  1
  Mg  Mg36  1  -0.00005806  0.24917059  0.24875865  1
  Mg  Mg37  1  0.83136994  0.00099526  0.25240758  1
  Mg  Mg38  1  0.16490601  0.50293824  0.75244152  1
  Mg  Mg39  1  0.66181015  0.74703552  0.75503987  1
  Mg  Mg40  1  0.66636311  0.25116523  0.24729633  1
  Mg  Mg41  1  -0.00233000  0.25028703  0.74544964  1
  Mg  Mg42  1  0.33174474  0.25081194  0.74674683  1
  Mg  Mg43  1  0.50118876  0.50305905  0.25101765  1
  Mg  Mg44  1  0.49982275  0.00052375  0.24944712  1
  Mg  Mg45  1  0.16430226  -0.00099517  0.24864911  1
  Mg  Mg46  1  0.66683043  0.75236574  0.25713778  1
  Mg  Mg47  1  0.82916035  0.49861242  0.75211506  1
  Mg  Mg48  1  0.83400938  0.49822419  0.24814965  1
  Mg  Mg49  1  -0.00035041  0.75092245  0.75164385  1
  Mg  Mg50  1  0.50055859  -0.00355658  0.75177599  1
  Mg  Mg51  1  -0.00012638  0.74893860  0.25025451  1
  Mg  Mg52  1  0.33415648  0.24931885  0.24518567  1
  Mg  Mg53  1  -0.00142770  0.91398578  0.25100845  1
  Mg  Mg54  1  0.66818814  0.58595788  0.25466373  1
  Mg  Mg55  1  0.16642677  0.16290805  0.24862200  1
  Mg  Mg56  1  -0.00005407  0.08346585  0.25102452  1
  Mg  Mg57  1  0.50358779  0.66762370  0.25356055  1
  Mg  Mg58  1  0.50043897  0.16615083  0.74782479  1
  Mg  Mg59  1  0.33291161  0.41727086  0.75054455  1
  Mg  Mg60  1  0.00374249  0.08237567  0.74334937  1
  Mg  Mg61  1  0.66713550  0.08260982  0.74795835  1
  Mg  Mg62  1  0.83659284  0.16706911  0.74738235  1
  Mg  Mg63  1  -0.00420876  0.41545144  0.74874664  1
  Mg  Mg64  1  0.82894962  0.66415202  0.75523570  1
  Mg  Mg65  1  0.66331743  0.91262047  0.75198687  1
  Mg  Mg66  1  0.16471570  0.66556850  0.24673070  1
  Mg  Mg67  1  0.50258671  0.33396346  0.74993941  1
  Mg  Mg68  1  0.33265246  0.41751220  0.24512818  1
  Mg  Mg69  1  0.67175476  0.41645906  0.75223993  1
  Mg  Mg70  1  0.83062546  0.16579304  0.25128514  1
  Mg  Mg71  1  0.83095346  0.33410659  0.24502730  1
  Mg  Mg72  1  0.33105821  0.08207876  0.74638811  1
  Mg  Mg73  1  0.50354565  0.83454787  0.25608618  1
  Mg  Mg74  1  -0.00028187  0.41605042  0.24644849  1
  Mg  Mg75  1  0.50041363  0.66755900  0.75600671  1
  Mg  Mg76  1  0.00447461  0.91742856  0.74814244  1
  Mg  Mg77  1  0.83377287  0.83557626  0.25513472  1
  Mg  Mg78  1  0.16311774  0.33456148  0.74596079  1
  Mg  Mg79  1  0.33278011  0.91601003  0.24927455  1
  Mg  Mg80  1  -0.00286300  0.58486181  0.75406751  1
  Mg  Mg81  1  0.67013579  0.91654716  0.25795670  1
  Mg  Mg82  1  0.66805618  0.08520788  0.25019777  1
  Mg  Mg83  1  0.00057562  0.58309601  0.24679992  1
  Mg  Mg84  1  0.33216099  0.58457888  0.25150087  1
  Mg  Mg85  1  0.16345899  0.83329224  0.24769794  1
  Mg  Mg86  1  0.83365045  0.66505834  0.25452049  1
  Mg  Mg87  1  0.16916176  0.66966782  0.75247939  1
  Mg  Mg88  1  0.49920700  0.16625697  0.24693122  1
  Mg  Mg89  1  0.33436993  0.58703157  0.75472489  1
  Mg  Mg90  1  0.33261992  0.08504792  0.24700798  1
  Mg  Mg91  1  0.33502630  0.91326175  0.74993928  1
  Mg  Mg92  1  0.17173367  0.83536289  0.75034883  1
  Mg  Mg93  1  0.50098314  0.33599995  0.24576099  1
  Mg  Mg94  1  0.83166109  0.83289351  0.75269366  1
  Mg  Mg95  1  0.16666867  0.33284694  0.24583985  1
  Fe  Fe96  1  0.36096803  0.16697169  0.10655800  1
  Fe  Fe97  1  0.64205059  0.83889034  0.39861375  1
  Fe  Fe98  1  0.64667018  0.66438076  0.39559698  1
  Fe  Fe99  1  0.13905338  0.08032876  0.38964322  1
  Fe  Fe100  1  0.80924871  0.09052340  0.39339202  1
  Fe  Fe101  1  0.02016053  0.16751376  0.60322306  1
  Fe  Fe102  1  0.81686253  0.92282227  0.39686302  1
  Fe  Fe103  1  0.01976947  0.83537948  0.10881178  1
  Fe  Fe104  1  0.68835156  0.16741079  0.10841230  1
  Fe  Fe105  1  0.30778400  0.66835888  0.89239884  1
  Fe  Fe106  1  0.52604685  0.91945166  0.61070909  1
  Fe  Fe107  1  0.14541163  0.58425008  0.38916562  1
  Fe  Fe108  1  0.63760629  0.83360297  0.89277381  1
  Fe  Fe109  1  0.85598672  0.41379263  0.10630357  1
  Fe  Fe110  1  0.19035596  0.58396148  0.10721330  1
  Fe  Fe111  1  0.80756822  0.57981606  0.89306842  1
  Fe  Fe112  1  0.19521175  0.91564326  0.60993037  1
  Si  Si113  1  0.85481713  0.07661614  0.61125440  1
  Si  Si114  1  0.30740453  0.16829929  0.88101134  1
  Si  Si115  1  0.01693418  0.66866941  0.10880365  1
  Si  Si116  1  0.35745473  0.33907920  0.61405457  1
  Si  Si117  1  0.69463019  0.16778973  0.61377812  1
  Si  Si118  1  0.02189352  0.66564286  0.61717055  1
  Si  Si119  1  0.19153156  0.07983392  0.10951327  1
  Si  Si120  1  0.02824878  0.32637410  0.10902514  1
  Si  Si121  1  0.31185450  0.32971129  0.38158583  1
  Si  Si122  1  0.63565555  0.66182296  0.89449001  1
  Si  Si123  1  0.36246615  0.82662685  0.61213908  1
  Si  Si124  1  0.85383278  0.92255273  0.11377798  1
  Si  Si125  1  0.85822377  0.08652524  0.11337822  1
  Si  Si126  1  0.20051672  0.08603548  0.60594927  1
  Si  Si127  1  0.97729737  0.32836739  0.88263364  1
  Si  Si128  1  0.47421062  0.08856991  0.88423834  1
  Si  Si129  1  0.52774980  0.41567824  0.61531101  1
  Si  Si130  1  0.85498035  0.58488895  0.11512697  1
  Si  Si131  1  0.81266379  0.08365434  0.88384417  1
  Si  Si132  1  0.19542566  0.91386586  0.11187303  1
  Si  Si133  1  0.47407453  0.41714459  0.38311501  1
  Si  Si134  1  0.36009471  0.33898426  0.10724167  1
  Si  Si135  1  0.19073189  0.41035805  0.10954782  1
  Si  Si136  1  0.97646856  0.82610958  0.38923609  1
  Si  Si137  1  0.47125685  0.58325731  0.38830591  1
  Si  Si138  1  0.85539383  0.58503374  0.61669436  1
  Si  Si139  1  0.30663001  0.16703802  0.38483167  1
  Si  Si140  1  0.64440976  0.32920886  0.88536906  1
  Si  Si141  1  0.13447411  0.58298904  0.88856191  1
  Si  Si142  1  0.69373494  0.33367137  0.61602510  1
  Si  Si143  1  0.31075207  0.67279433  0.38771385  1
  Si  Si144  1  0.64457665  0.16407882  0.88384324  1
  Si  Si145  1  0.14177892  0.08072042  0.88038794  1
  Si  Si146  1  0.52669534  0.58078927  0.61959503  1
  Si  Si147  1  0.30596123  0.33391630  0.88383661  1
  Si  Si148  1  0.52503512  0.91258686  0.11789480  1
  Si  Si149  1  0.63316282  0.16944503  0.38774982  1
  Si  Si150  1  0.81506798  0.41087346  0.38442322  1
  Si  Si151  1  0.36370697  0.66758670  0.11426004  1
  Si  Si152  1  0.46982123  0.08444688  0.38399071  1
  Si  Si153  1  0.01996703  0.34005426  0.60873851  1
  Si  Si154  1  0.14071715  0.91785814  0.88524506  1
  Si  Si155  1  0.13886379  0.41610332  0.88408785  1
  Si  Si156  1  0.97843291  0.83548247  0.88578715  1
  Si  Si157  1  0.81107518  0.57573809  0.38977790  1
  Si  Si158  1  0.46814290  0.92420350  0.88951217  1
  Si  Si159  1  0.97209100  0.67045757  0.88874804  1
  Si  Si160  1  0.47749292  0.41048620  0.88622743  1
  Si  Si161  1  0.36204865  0.17380115  0.61197215  1
  Si  Si162  1  0.18996711  0.42079942  0.61434479  1
  Si  Si163  1  0.46685233  0.91992737  0.38723154  1
  Si  Si164  1  0.52238796  0.42565583  0.11268519  1
  Si  Si165  1  0.02380881  0.83144743  0.61394121  1
  Si  Si166  1  0.36187549  0.83253513  0.11672641  1
  Si  Si167  1  0.52836600  0.07567951  0.11017948  1
  Si  Si168  1  0.14246406  0.90951853  0.38624254  1
  Si  Si169  1  0.68210197  0.33229234  0.10697294  1
  Si  Si170  1  0.81284817  0.41036812  0.88786713  1
  Si  Si171  1  0.81153177  0.91759098  0.88852275  1
  Si  Si172  1  0.85585792  0.42199218  0.61539047  1
  Si  Si173  1  0.36169054  0.66020672  0.61778937  1
  Si  Si174  1  0.02533850  0.16062505  0.11283326  1
  Si  Si175  1  0.30755750  0.83420338  0.38269199  1
  Si  Si176  1  0.47176831  0.57541629  0.89125453  1
  Si  Si177  1  0.14697922  0.41130830  0.38417221  1
  Si  Si178  1  0.69529721  0.83111971  0.61577042  1
  Si  Si179  1  0.69014105  0.66726800  0.62047543  1
  Si  Si180  1  0.97289669  0.17213410  0.38637802  1
  Si  Si181  1  0.52482142  0.09081425  0.61116341  1
  Si  Si182  1  0.64111703  0.33464617  0.38351244  1
  Si  Si183  1  0.97449194  0.66055714  0.38806114  1
  Si  Si184  1  0.69261020  0.83509194  0.11863843  1
  Si  Si185  1  0.85814791  0.91156889  0.61710151  1
  Si  Si186  1  0.19013686  0.58543679  0.61642959  1
  Si  Si187  1  0.97866878  0.16434857  0.88341842  1
  Si  Si188  1  0.69563420  0.67140009  0.11882265  1
  Si  Si189  1  0.98165033  0.33358467  0.38364525  1
  Si  Si190  1  0.30725965  0.83855662  0.89016632  1
  Si  Si191  1  0.53010540  0.58996250  0.11586786  1
  O  O192  1  0.26312993  0.11330271  0.07207149  1
  O  O193  1  0.28388140  0.12398515  0.57821935  1
  O  O194  1  0.28988139  0.61613014  0.07705142  1
  O  O195  1  0.27056470  0.61907858  0.58753537  1
  O  O196  1  0.61282644  0.09169685  0.07966300  1
  O  O197  1  0.60544947  0.12865888  0.58301901  1
  O  O198  1  0.61356393  0.62089544  0.08850362  1
  O  O199  1  0.60457567  0.62016454  0.59053734  1
  O  O200  1  0.94651673  0.10655542  0.08500561  1
  O  O201  1  0.92772167  0.10510080  0.57323619  1
  O  O202  1  0.93875943  0.61074882  0.08599954  1
  O  O203  1  0.93678758  0.61799617  0.58703438  1
  O  O204  1  0.11658121  0.34942839  0.08309771  1
  O  O205  1  0.10284567  0.37837834  0.58311684  1
  O  O206  1  0.11990394  0.86250076  0.07704667  1
  O  O207  1  0.09660888  0.86098037  0.57684837  1
  O  O208  1  0.43759836  0.38067174  0.07856354  1
  O  O209  1  0.43698991  0.37589007  0.58463290  1
  O  O210  1  0.44586219  0.85921144  0.08799189  1
  O  O211  1  0.43919165  0.85649944  0.57648126  1
  O  O212  1  0.76017965  0.35836722  0.07147469  1
  O  O213  1  0.77018208  0.37432372  0.58615582  1
  O  O214  1  0.76949520  0.87169352  0.08710958  1
  O  O215  1  0.78372054  0.85366762  0.59004578  1
  O  O216  1  0.27501889  0.38624219  0.07840406  1
  O  O217  1  0.27121828  0.38546257  0.58593468  1
  O  O218  1  0.28406270  0.88743958  0.08744514  1
  O  O219  1  0.27682515  0.86532446  0.57292415  1
  O  O220  1  0.60483926  0.39343137  0.08600128  1
  O  O221  1  0.60255632  0.37311064  0.58449420  1
  O  O222  1  0.60743012  0.88206453  0.08924831  1
  O  O223  1  0.62299443  0.88451135  0.57995000  1
  O  O224  1  0.95096538  0.37570916  0.07322524  1
  O  O225  1  0.93673752  0.39275355  0.58331410  1
  O  O226  1  0.93023870  0.89920577  0.07651098  1
  O  O227  1  0.93947739  0.88141698  0.58748350  1
  O  O228  1  0.10446922  0.12611362  0.08238292  1
  O  O229  1  0.12163643  0.13902723  0.57746476  1
  O  O230  1  0.09670106  0.64311918  0.07536351  1
  O  O231  1  0.10269913  0.63037155  0.58800331  1
  O  O232  1  0.45168437  0.12645702  0.07363766  1
  O  O233  1  0.44794393  0.14924278  0.58507400  1
  O  O234  1  0.45221288  0.64487229  0.08773173  1
  O  O235  1  0.43572618  0.61708643  0.58513202  1
  O  O236  1  0.79004851  0.14455906  0.07846215  1
  O  O237  1  0.76884031  0.12582167  0.58421594  1
  O  O238  1  0.77783242  0.64331132  0.08928025  1
  O  O239  1  0.76954836  0.63154438  0.58909352  1
  O  O240  1  0.04233976  0.11351143  0.41965783  1
  O  O241  1  0.06536279  0.11958043  0.91391551  1
  O  O242  1  0.04846112  0.60791304  0.42435042  1
  O  O243  1  0.05017510  0.61401893  0.91469876  1
  O  O244  1  0.38701952  0.11358624  0.41260246  1
  O  O245  1  0.39895894  0.13198627  0.91399940  1
  O  O246  1  0.38845677  0.61647167  0.41532564  1
  O  O247  1  0.39289973  0.60000578  0.92481020  1
  O  O248  1  0.70987776  0.12157892  0.42511961  1
  O  O249  1  0.73129790  0.11857921  0.91229478  1
  O  O250  1  0.73330339  0.59645144  0.42589892  1
  O  O251  1  0.71266182  0.60911358  0.92705358  1
  O  O252  1  0.22818700  0.35569556  0.41128998  1
  O  O253  1  0.22988647  0.37570016  0.91279285  1
  O  O254  1  0.22071288  0.85204195  0.41051306  1
  O  O255  1  0.22436887  0.87226564  0.91901836  1
  O  O256  1  0.56468307  0.37716237  0.41367954  1
  O  O257  1  0.56225219  0.36202501  0.91397920  1
  O  O258  1  0.53653565  0.86513096  0.42325392  1
  O  O259  1  0.54991387  0.88094604  0.92727282  1
  O  O260  1  0.89844809  0.36098936  0.41489440  1
  O  O261  1  0.89504851  0.35649097  0.91249104  1
  O  O262  1  0.90109901  0.85194385  0.42575048  1
  O  O263  1  0.89891818  0.87079737  0.91528349  1
  O  O264  1  0.06278954  0.38475020  0.41531887  1
  O  O265  1  0.06341403  0.37451151  0.91388411  1
  O  O266  1  0.06238233  0.87426016  0.41492241  1
  O  O267  1  0.06010887  0.88553689  0.91664352  1
  O  O268  1  0.39616616  0.37786502  0.41244389  1
  O  O269  1  0.39704809  0.37263310  0.91406002  1
  O  O270  1  0.37568206  0.89788355  0.40951706  1
  O  O271  1  0.38451371  0.89542563  0.91870331  1
  O  O272  1  0.73156615  0.37652253  0.41186294  1
  O  O273  1  0.73076135  0.37257857  0.91528166  1
  O  O274  1  0.71925481  0.90892305  0.43140017  1
  O  O275  1  0.73875835  0.88709087  0.92556917  1
  O  O276  1  0.22802960  0.14579538  0.41960600  1
  O  O277  1  0.23015502  0.12646907  0.90873363  1
  O  O278  1  0.23332827  0.65010976  0.42396749  1
  O  O279  1  0.21358418  0.62890151  0.92492379  1
  O  O280  1  0.54640093  0.14016084  0.41364729  1
  O  O281  1  0.56450262  0.12974618  0.91319188  1
  O  O282  1  0.55260749  0.62424661  0.42776430  1
  O  O283  1  0.55236450  0.62586779  0.92113009  1
  O  O284  1  0.88517217  0.16765780  0.41429341  1
  O  O285  1  0.89805776  0.13068226  0.91386814  1
  O  O286  1  0.88949068  0.63181454  0.41630194  1
  O  O287  1  0.89401417  0.64792649  0.92361127  1
  O  O288  1  0.17487987  -0.00370903  0.08307851  1
  O  O289  1  0.18645548  0.00786412  0.57036038  1
  O  O290  1  0.16153843  0.48798683  0.07829659  1
  O  O291  1  0.17764278  0.50332295  0.58511454  1
  O  O292  1  0.49954048  -0.00814698  0.08680974  1
  O  O293  1  0.50318350  0.01494935  0.57506716  1
  O  O294  1  0.50987274  0.50910893  0.08406778  1
  O  O295  1  0.52330749  0.49820688  0.58682585  1
  O  O296  1  0.82710204  0.00508458  0.08739905  1
  O  O297  1  0.83048421  -0.00767217  0.58879209  1
  O  O298  1  0.82671120  0.50883788  0.08019962  1
  O  O299  1  0.83720994  0.50386606  0.58506472  1
  O  O300  1  0.00897519  0.24204792  0.08190890  1
  O  O301  1  0.00054385  0.26447410  0.57141949  1
  O  O302  1  -0.01818075  0.74527550  0.07662464  1
  O  O303  1  0.00256571  0.74693615  0.58791603  1
  O  O304  1  0.34781404  0.26110116  0.07141686  1
  O  O305  1  0.34399706  0.25744655  0.58402280  1
  O  O306  1  0.34073069  0.75123504  0.08822397  1
  O  O307  1  0.35260081  0.74035483  0.58663738  1
  O  O308  1  0.64436939  0.25648967  0.07375938  1
  O  O309  1  0.68854929  0.25127903  0.58506754  1
  O  O310  1  0.67589128  0.75318876  0.08887276  1
  O  O311  1  0.67472584  0.74786541  0.58868784  1
  O  O312  1  0.16777134  -0.01368621  0.42051544  1
  O  O313  1  0.15505026  0.00059904  0.91550263  1
  O  O314  1  0.17622172  0.48829748  0.41706758  1
  O  O315  1  0.14597085  0.49778231  0.91408454  1
  O  O316  1  0.48943726  0.00324495  0.41369097  1
  O  O317  1  0.47987462  0.00902515  0.91777381  1
  O  O318  1  0.47872451  0.49814642  0.41445825  1
  O  O319  1  0.49460558  0.49082947  0.91721846  1
  O  O320  1  0.86076094  0.00912194  0.43203326  1
  O  O321  1  0.83131298  0.00238583  0.91388509  1
  O  O322  1  0.83772675  0.49198545  0.41547397  1
  O  O323  1  0.83496756  0.48536106  0.92621055  1
  O  O324  1  0.33806350  0.24900642  0.41052576  1
  O  O325  1  0.30935405  0.25098026  0.91209833  1
  O  O326  1  0.34266456  0.75546549  0.41188808  1
  O  O327  1  0.32962954  0.76209088  0.92749305  1
  O  O328  1  0.64546058  0.25368802  0.41699723  1
  O  O329  1  0.65782284  0.24623600  0.91334892  1
  O  O330  1  0.67595015  0.75063137  0.43682854  1
  O  O331  1  0.64954079  0.74063857  0.93001232  1
  O  O332  1  1.01118170  0.25332981  0.41049278  1
  O  O333  1  0.99515514  0.24632858  0.91299659  1
  O  O334  1  0.99888178  0.74277679  0.41508143  1
  O  O335  1  1.00045665  0.75354342  0.91370891  1
  O  O336  1  0.21133661  0.08209767  0.19030900  1
  O  O337  1  0.22182280  0.08128975  0.68524308  1
  O  O338  1  0.21874620  0.59238836  0.19674197  1
  O  O339  1  0.20702632  0.58229713  0.69647027  1
  O  O340  1  0.54188079  0.08188068  0.19188937  1
  O  O341  1  0.54479905  0.08785543  0.69227463  1
  O  O342  1  0.54445270  0.58582226  0.19601343  1
  O  O343  1  0.54056479  0.57933772  0.69884370  1
  O  O344  1  0.87789175  0.08551806  0.19428798  1
  O  O345  1  0.87345463  0.08117973  0.69233371  1
  O  O346  1  0.87469601  0.58519704  0.19620762  1
  O  O347  1  0.87706686  0.58364827  0.69667376  1
  O  O348  1  0.04338595  0.32920459  0.19006949  1
  O  O349  1  0.04047155  0.33812656  0.68966444  1
  O  O350  1  0.04223229  0.83369549  0.20065252  1
  O  O351  1  0.04152690  0.83154249  0.69480590  1
  O  O352  1  0.37758456  0.33477955  0.18844298  1
  O  O353  1  0.37819227  0.33745332  0.69447087  1
  O  O354  1  0.37866546  0.83378916  0.19723593  1
  O  O355  1  0.37640861  0.83415403  0.69178669  1
  O  O356  1  0.70979022  0.32684647  0.18709988  1
  O  O357  1  0.70654264  0.33243373  0.69532364  1
  O  O358  1  0.71102066  0.83361107  0.19855746  1
  O  O359  1  0.71211182  0.83244337  0.69658811  1
  O  O360  1  0.21465315  0.40676914  0.18960986  1
  O  O361  1  0.20870574  0.42027157  0.69480862  1
  O  O362  1  0.21019624  0.91567627  0.19298209  1
  O  O363  1  0.21491463  0.91452235  0.70027313  1
  O  O364  1  0.53174995  0.42189702  0.19198966  1
  O  O365  1  0.54384675  0.41402652  0.69537206  1
  O  O366  1  0.54205006  0.91578926  0.19807515  1
  O  O367  1  0.54722292  0.92193421  0.70094526  1
  O  O368  1  0.87734186  0.41464993  0.19776827  1
  O  O369  1  0.87689227  0.42080876  0.69479541  1
  O  O370  1  0.87584015  0.91763184  0.19447644  1
  O  O371  1  0.87684935  0.91390712  0.69782812  1
  O  O372  1  0.04309558  0.16483282  0.19302253  1
  O  O373  1  0.02936745  0.16909974  0.69305789  1
  O  O374  1  0.03869466  0.66952785  0.19040572  1
  O  O375  1  0.04064636  0.66471029  0.69758039  1
  O  O376  1  0.37799816  0.16637800  0.19829215  1
  O  O377  1  0.37921266  0.17185873  0.69251120  1
  O  O378  1  0.38069735  0.66749002  0.19540373  1
  O  O379  1  0.38181455  0.65652703  0.69676759  1
  O  O380  1  0.70837695  0.16765790  0.20018468  1
  O  O381  1  0.71083719  0.16666745  0.69420198  1
  O  O382  1  0.71191411  0.67052449  0.19902788  1
  O  O383  1  0.71092106  0.66847171  0.69967946  1
  O  O384  1  0.12242349  0.08173906  0.29735935  1
  O  O385  1  0.11851442  0.07769887  0.80232270  1
  O  O386  1  0.11660375  0.59157304  0.29972902  1
  O  O387  1  0.12037281  0.58353722  0.80731965  1
  O  O388  1  0.45528519  0.08337473  0.30345181  1
  O  O389  1  0.45841793  0.08764782  0.80389700  1
  O  O390  1  0.45688205  0.58530228  0.30734701  1
  O  O391  1  0.45543706  0.57698768  0.81031424  1
  O  O392  1  0.78807986  0.08345860  0.30083811  1
  O  O393  1  0.79257049  0.08375100  0.80346140  1
  O  O394  1  0.79171005  0.58026563  0.30888815  1
  O  O395  1  0.79159700  0.57998727  0.80238858  1
  O  O396  1  0.29339088  0.33203088  0.30110876  1
  O  O397  1  0.28959933  0.33535706  0.80355252  1
  O  O398  1  0.28932152  0.83373691  0.30193041  1
  O  O399  1  0.28916248  0.83584217  0.81036286  1
  O  O400  1  0.61907419  0.32934474  0.30432292  1
  O  O401  1  0.62457482  0.33061012  0.80494442  1
  O  O402  1  0.62252467  0.83521400  0.30498248  1
  O  O403  1  0.62572695  0.83184654  0.80300478  1
  O  O404  1  0.95993579  0.33314577  0.30334055  1
  O  O405  1  0.96133650  0.33194271  0.80307099  1
  O  O406  1  0.95628020  0.83100845  0.30808218  1
  O  O407  1  0.95761035  0.83483955  0.80536483  1
  O  O408  1  0.12199648  0.40627889  0.30438699  1
  O  O409  1  0.12218428  0.41710740  0.80352497  1
  O  O410  1  0.12430981  0.91507539  0.30519324  1
  O  O411  1  0.12006113  0.91241570  0.80621523  1
  O  O412  1  0.45736885  0.41596109  0.30298208  1
  O  O413  1  0.45716623  0.41254695  0.80569732  1
  O  O414  1  0.45391560  0.91904195  0.30593456  1
  O  O415  1  0.45350713  0.92354534  0.80987287  1
  O  O416  1  0.79905632  0.41423300  0.30531057  1
  O  O417  1  0.79061961  0.41517684  0.80787436  1
  O  O418  1  0.79187282  0.91799305  0.30328754  1
  O  O419  1  0.79170559  0.91714214  0.80753815  1
  O  O420  1  0.28868551  0.16605591  0.30379128  1
  O  O421  1  0.29851289  0.16980421  0.80218084  1
  O  O422  1  0.29202614  0.67020094  0.30691220  1
  O  O423  1  0.28598579  0.66452493  0.80205621  1
  O  O424  1  0.61828151  0.16828785  0.30684543  1
  O  O425  1  0.62495655  0.16578264  0.80333848  1
  O  O426  1  0.62312151  0.66819619  0.30315646  1
  O  O427  1  0.62030009  0.66566548  0.81386280  1
  O  O428  1  0.95783224  0.16795669  0.30452437  1
  O  O429  1  0.95684455  0.16452422  0.80367933  1
  O  O430  1  0.95573300  0.66362806  0.30686702  1
  O  O431  1  0.95515927  0.66812581  0.80750468  1
  F  F432  1  0.04337594  -0.00273816  0.20013912  1
  F  F433  1  0.03576512  -0.00257450  0.69476391  1
  F  F434  1  0.03145022  0.49822175  0.19483521  1
  F  F435  1  0.04410851  0.50181718  0.70330505  1
  F  F436  1  0.37811324  -0.00059933  0.20070205  1
  F  F437  1  0.38368266  0.00215410  0.70101518  1
  F  F438  1  0.38076169  0.50262325  0.20116309  1
  F  F439  1  0.37915872  0.49789917  0.70473096  1
  F  F440  1  0.70809010  -0.00206678  0.20239898  1
  F  F441  1  0.71319180  -0.00074423  0.70397127  1
  F  F442  1  0.71588355  0.51328940  0.19979790  1
  F  F443  1  0.71283067  0.49058117  0.69763961  1
  F  F444  1  0.21240507  0.24656835  0.19941166  1
  F  F445  1  0.21816348  0.26512455  0.69409465  1
  F  F446  1  0.21284911  0.75205047  0.20066206  1
  F  F447  1  0.19931254  0.74957402  0.69873088  1
  F  F448  1  0.54307186  0.25056137  0.19961004  1
  F  F449  1  0.54749578  0.25087871  0.70165456  1
  F  F450  1  0.54430999  0.75218754  0.20322630  1
  F  F451  1  0.54820173  0.73844797  0.70048088  1
  F  F452  1  0.87961054  0.24877832  0.20190794  1
  F  F453  1  0.87542360  0.24969091  0.69991400  1
  F  F454  1  0.87649746  0.75015144  0.20642455  1
  F  F455  1  0.87780724  0.74834678  0.70566161  1
  F  F456  1  0.28704189  0.00070108  0.29426940  1
  F  F457  1  0.29611333  0.00384778  0.79939762  1
  F  F458  1  0.30258736  0.49688324  0.30078533  1
  F  F459  1  0.28646238  0.49784650  0.79945232  1
  F  F460  1  0.61821634  0.00311703  0.29813257  1
  F  F461  1  0.62387480  0.00571756  0.80101276  1
  F  F462  1  0.61635725  0.50810257  0.30265143  1
  F  F463  1  0.61937597  0.48961138  0.80240903  1
  F  F464  1  0.95555184  -0.00058396  0.29634479  1
  F  F465  1  0.95477842  0.00047832  0.79668295  1
  F  F466  1  0.95636136  0.49984124  0.29766363  1
  F  F467  1  0.95526588  0.49851602  0.79911840  1
  F  F468  1  0.12287632  0.24832394  0.29372478  1
  F  F469  1  0.11759848  0.26039820  0.79686063  1
  F  F470  1  0.12259578  0.74929120  0.29656601  1
  F  F471  1  0.11887894  0.75010902  0.79992835  1
  F  F472  1  0.45438634  0.25352217  0.29540248  1
  F  F473  1  0.45562693  0.25169390  0.79631034  1
  F  F474  1  0.45360276  0.75039339  0.29910674  1
  F  F475  1  0.45661406  0.74579248  0.80298753  1
  F  F476  1  0.78711980  0.25446573  0.29701402  1
  F  F477  1  0.78726516  0.24280474  0.80052788  1
  F  F478  1  0.78970321  0.74963843  0.30219130  1
  F  F479  1  0.78860641  0.75068477  0.80186105  1
