# generated using pymatgen
data_K24Na3Li5Mg64Fe17Si79(O5F)48
_symmetry_space_group_name_H-M   'P 1'
_cell_length_a   16.09339358
_cell_length_b   18.59040499
_cell_length_c   20.55346475
_cell_angle_alpha   89.99790327
_cell_angle_beta   100.01528768
_cell_angle_gamma   89.98746440
_symmetry_Int_Tables_number   1
_chemical_formula_structural   K24Na3Li5Mg64Fe17Si79(O5F)48
_chemical_formula_sum   'K24 Na3 Li5 Mg64 Fe17 Si79 O240 F48'
_cell_volume   6055.53508585
_cell_formula_units_Z   1
loop_
 _symmetry_equiv_pos_site_id
 _symmetry_equiv_pos_as_xyz
  1  'x, y, z'
loop_
 _atom_site_type_symbol
 _atom_site_label
 _atom_site_symmetry_multiplicity
 _atom_site_fract_x
 _atom_site_fract_y
 _atom_site_fract_z
 _atom_site_occupancy
  K  K0  1  0.01311235  0.01047156  0.00221990  1
  K  K1  1  0.01337578  -0.00938581  0.49797111  1
  K  K2  1  0.00789370  0.49741505  -0.00196469  1
  K  K3  1  0.00305112  0.50653642  0.50047299  1
  K  K4  1  0.32252037  -0.00424109  0.01124688  1
  K  K5  1  0.32287518  -0.00064542  0.48639853  1
  K  K6  1  0.33075267  0.49712892  0.00187282  1
  K  K7  1  0.32345471  0.50230994  0.49234828  1
  K  K8  1  0.67267850  -0.00688980  0.00036752  1
  K  K9  1  0.66273683  0.00371364  0.49441832  1
  K  K10  1  0.66374293  0.49583904  0.00215822  1
  K  K11  1  0.67319019  0.48755743  0.49982349  1
  K  K12  1  0.15637700  0.25327476  0.01098276  1
  K  K13  1  0.16871993  0.25375043  0.49240098  1
  K  K14  1  0.15910752  0.74596251  0.00138171  1
  K  K15  1  0.16330387  0.75691215  0.49632731  1
  K  K16  1  0.49719732  0.25321066  0.00628545  1
  K  K17  1  0.49493565  0.24256697  0.49089155  1
  K  K18  1  0.50463371  0.74681356  0.00009311  1
  K  K19  1  0.49891063  0.74530766  0.49990865  1
  K  K20  1  0.84267672  0.24183147  0.00145380  1
  K  K21  1  0.83164554  0.25071759  0.50267447  1
  K  K22  1  0.82942016  0.75292130  -0.00325635  1
  K  K23  1  0.83850663  0.75330459  0.50089725  1
  Na  Na24  1  0.16440471  0.50037815  0.75763035  1
  Na  Na25  1  0.00342982  0.92483071  0.74776454  1
  Na  Na26  1  0.32813302  0.08132763  0.25082285  1
  Li  Li27  1  0.32805433  0.24384855  0.24579558  1
  Li  Li28  1  0.17220197  0.00049960  0.25893785  1
  Li  Li29  1  0.66613430  0.58115865  0.24955496  1
  Li  Li30  1  0.00097373  0.08168377  0.74873402  1
  Li  Li31  1  0.16922183  0.66547119  0.25590036  1
  Mg  Mg32  1  0.16777031  0.50352979  0.25188733  1
  Mg  Mg33  1  0.66886250  0.25022798  0.74537107  1
  Mg  Mg34  1  0.66501155  0.74769731  0.25307139  1
  Mg  Mg35  1  0.83207824  0.50039163  0.75154240  1
  Mg  Mg36  1  0.83076283  0.50072566  0.24707177  1
  Mg  Mg37  1  0.83820312  0.00116252  0.75175033  1
  Mg  Mg38  1  0.83328101  -0.00050388  0.24900484  1
  Mg  Mg39  1  0.50101455  -0.00091833  0.75126870  1
  Mg  Mg40  1  0.49851031  0.50048877  0.74777616  1
  Mg  Mg41  1  0.16623752  0.00112318  0.74429954  1
  Mg  Mg42  1  -0.00207384  0.25002191  0.74963699  1
  Mg  Mg43  1  0.00116948  0.74785501  0.25420099  1
  Mg  Mg44  1  0.00344335  0.25032374  0.24681823  1
  Mg  Mg45  1  0.50453583  0.49838843  0.24702521  1
  Mg  Mg46  1  0.49622321  -0.00080202  0.25343582  1
  Mg  Mg47  1  0.66673852  0.24993167  0.24715496  1
  Mg  Mg48  1  0.33395594  0.75218762  0.74863623  1
  Mg  Mg49  1  0.66580917  0.75161131  0.75549725  1
  Mg  Mg50  1  0.33208227  0.25128117  0.74939321  1
  Mg  Mg51  1  0.00119754  0.75277736  0.75258461  1
  Mg  Mg52  1  0.33173262  0.74630709  0.25133763  1
  Mg  Mg53  1  0.33297403  0.91623862  0.74762685  1
  Mg  Mg54  1  0.16299829  0.33461838  0.75141793  1
  Mg  Mg55  1  0.83335543  0.66715464  0.75547977  1
  Mg  Mg56  1  0.00229780  0.41713007  0.24958266  1
  Mg  Mg57  1  0.33397562  0.58321044  0.25154979  1
  Mg  Mg58  1  0.33203571  0.08558119  0.74717748  1
  Mg  Mg59  1  0.49852537  0.33249806  0.24576930  1
  Mg  Mg60  1  0.50046801  0.33516211  0.74651129  1
  Mg  Mg61  1  0.16572619  0.16555046  0.24975307  1
  Mg  Mg62  1  0.33444304  0.41330281  0.24780261  1
  Mg  Mg63  1  0.49482318  0.16701806  0.25231308  1
  Mg  Mg64  1  0.83321838  0.33492386  0.74934580  1
  Mg  Mg65  1  0.50080524  0.83229812  0.25326274  1
  Mg  Mg66  1  0.16723046  0.83717909  0.74624245  1
  Mg  Mg67  1  0.66826383  0.91555705  0.75385063  1
  Mg  Mg68  1  -0.00346117  0.41679175  0.75193679  1
  Mg  Mg69  1  0.33126288  0.41716466  0.75029758  1
  Mg  Mg70  1  0.16888442  0.33281790  0.25060938  1
  Mg  Mg71  1  0.66498214  0.91514945  0.25330548  1
  Mg  Mg72  1  0.00232965  0.58498579  0.25273461  1
  Mg  Mg73  1  0.66787903  0.58463537  0.75363548  1
  Mg  Mg74  1  0.83225824  0.83345249  0.25384473  1
  Mg  Mg75  1  0.32975284  0.91484741  0.25200065  1
  Mg  Mg76  1  0.83526996  0.16507610  0.24587443  1
  Mg  Mg77  1  0.16201878  0.16511011  0.74731723  1
  Mg  Mg78  1  0.66869076  0.41499623  0.74828651  1
  Mg  Mg79  1  0.83795705  0.16426437  0.74816806  1
  Mg  Mg80  1  0.50046547  0.16671979  0.74860322  1
  Mg  Mg81  1  0.50004695  0.83456906  0.75125061  1
  Mg  Mg82  1  0.66604449  0.41745483  0.24549612  1
  Mg  Mg83  1  0.16525777  0.66757966  0.75200230  1
  Mg  Mg84  1  0.49902032  0.66628846  0.75174557  1
  Mg  Mg85  1  0.50415645  0.66286701  0.25004579  1
  Mg  Mg86  1  0.00201379  0.91555068  0.24883179  1
  Mg  Mg87  1  0.83475644  0.33403843  0.24482215  1
  Mg  Mg88  1  0.83643072  0.83650577  0.75347411  1
  Mg  Mg89  1  0.66806233  0.08390501  0.74888105  1
  Mg  Mg90  1  0.66426691  0.08434427  0.25061149  1
  Mg  Mg91  1  0.16714365  0.83068863  0.25068744  1
  Mg  Mg92  1  0.00609766  0.08133283  0.24621494  1
  Mg  Mg93  1  0.83019336  0.66497789  0.25233126  1
  Mg  Mg94  1  0.32984793  0.58450809  0.75130788  1
  Mg  Mg95  1  -0.00127999  0.58533245  0.75353758  1
  Fe  Fe96  1  0.02313588  0.16634287  0.10650368  1
  Fe  Fe97  1  0.97476832  0.32794860  0.89030675  1
  Fe  Fe98  1  0.14266926  0.91344124  0.38645007  1
  Fe  Fe99  1  0.52814280  0.41376464  0.10590482  1
  Fe  Fe100  1  0.64456488  0.82740260  0.39213347  1
  Fe  Fe101  1  0.19228400  0.92396413  0.60567522  1
  Fe  Fe102  1  0.36178122  0.83198997  0.60826135  1
  Fe  Fe103  1  0.85984529  0.42221652  0.60837710  1
  Fe  Fe104  1  0.14085913  0.58916819  0.89390260  1
  Fe  Fe105  1  0.19069810  0.07653444  0.10887413  1
  Fe  Fe106  1  0.64308819  0.83194560  0.89373936  1
  Fe  Fe107  1  0.14226752  0.58944456  0.39199871  1
  Fe  Fe108  1  0.47694595  0.07996155  0.39343649  1
  Fe  Fe109  1  0.80826438  0.57900585  0.89234332  1
  Fe  Fe110  1  0.02354617  0.34217330  0.10975701  1
  Fe  Fe111  1  0.69114069  0.32822303  0.60580424  1
  Fe  Fe112  1  0.30411764  0.17056611  0.39183797  1
  Si  Si113  1  0.80497913  0.40988553  0.89021565  1
  Si  Si114  1  0.96560161  0.66782588  0.38982520  1
  Si  Si115  1  0.64321040  0.16991212  0.38609853  1
  Si  Si116  1  0.97028970  0.67471050  0.89293996  1
  Si  Si117  1  0.31944700  0.66545819  0.38885719  1
  Si  Si118  1  0.52372067  0.92053264  0.11627476  1
  Si  Si119  1  0.35886837  0.33143254  0.11060159  1
  Si  Si120  1  0.68887339  0.67546473  0.61777270  1
  Si  Si121  1  0.02662464  0.82920122  0.61208884  1
  Si  Si122  1  0.80656180  0.57666435  0.38353075  1
  Si  Si123  1  0.02192002  0.82553845  0.11421539  1
  Si  Si124  1  0.47825176  0.41707441  0.38306131  1
  Si  Si125  1  0.48127286  0.58088479  0.38538777  1
  Si  Si126  1  0.85656799  0.07520347  0.11114617  1
  Si  Si127  1  0.85325138  0.59187474  0.61428986  1
  Si  Si128  1  0.19058645  0.90463031  0.11150390  1
  Si  Si129  1  0.30985830  0.67260289  0.88816139  1
  Si  Si130  1  0.35274493  0.66176968  0.61308051  1
  Si  Si131  1  0.13435983  0.08630121  0.38996249  1
  Si  Si132  1  0.02004908  0.66189865  0.11612862  1
  Si  Si133  1  0.85677191  0.42404895  0.11203906  1
  Si  Si134  1  0.19394650  0.58696936  0.11732139  1
  Si  Si135  1  0.46942184  0.41561763  0.88294105  1
  Si  Si136  1  0.98180546  0.16039491  0.88346395  1
  Si  Si137  1  0.69976256  0.32847233  0.10901213  1
  Si  Si138  1  0.81036383  0.08659749  0.88436455  1
  Si  Si139  1  0.96726457  0.83401638  0.38789301  1
  Si  Si140  1  0.47321417  0.92153915  0.88958091  1
  Si  Si141  1  0.64697593  0.65996710  0.38756504  1
  Si  Si142  1  0.14916990  0.91581455  0.88457064  1
  Si  Si143  1  0.85746867  0.91005484  0.11559576  1
  Si  Si144  1  0.19822711  0.42178704  0.11294822  1
  Si  Si145  1  0.63531337  0.33478477  0.88380145  1
  Si  Si146  1  0.18902117  0.09476334  0.61006648  1
  Si  Si147  1  0.14156934  0.41834203  0.38864343  1
  Si  Si148  1  0.64324833  0.16935037  0.88371423  1
  Si  Si149  1  0.14218612  0.41481929  0.89051074  1
  Si  Si150  1  0.68976453  0.15714610  0.61013840  1
  Si  Si151  1  0.64411671  0.33417625  0.38150339  1
  Si  Si152  1  0.81332336  0.92092391  0.89014534  1
  Si  Si153  1  0.68889215  0.83508443  0.11649214  1
  Si  Si154  1  0.31167430  0.82825837  0.38631674  1
  Si  Si155  1  0.19053361  0.57920396  0.61747962  1
  Si  Si156  1  0.31159218  0.83556652  0.88599202  1
  Si  Si157  1  0.47653269  0.08681579  0.88510631  1
  Si  Si158  1  0.36067032  0.33730781  0.61365397  1
  Si  Si159  1  0.36044014  0.66730718  0.11482150  1
  Si  Si160  1  0.02736382  0.33597243  0.61171458  1
  Si  Si161  1  0.81072457  0.41359112  0.38208200  1
  Si  Si162  1  0.52445308  0.58431525  0.11111876  1
  Si  Si163  1  0.85177661  0.58678948  0.11532200  1
  Si  Si164  1  0.36102816  0.17092455  0.61381590  1
  Si  Si165  1  0.86025281  0.91467807  0.61505734  1
  Si  Si166  1  0.14811796  0.07905030  0.88260029  1
  Si  Si167  1  0.31090030  0.33983842  0.38684027  1
  Si  Si168  1  0.63630534  0.65937771  0.89155688  1
  Si  Si169  1  0.97053978  0.16688582  0.38314023  1
  Si  Si170  1  0.68931066  0.67171436  0.11657875  1
  Si  Si171  1  0.46755197  0.58153920  0.88430989  1
  Si  Si172  1  0.30939962  0.16675467  0.88496865  1
  Si  Si173  1  0.52481943  0.42126500  0.61081964  1
  Si  Si174  1  0.52603206  0.08649418  0.11389526  1
  Si  Si175  1  0.86068548  0.08011136  0.61336018  1
  Si  Si176  1  0.02460699  0.66559967  0.61512458  1
  Si  Si177  1  0.69457338  0.16185118  0.11263899  1
  Si  Si178  1  0.36141831  0.83134396  0.11574246  1
  Si  Si179  1  0.52999416  0.91586849  0.61515075  1
  Si  Si180  1  0.52247601  0.07911687  0.61556122  1
  Si  Si181  1  0.30541547  0.33132459  0.88555358  1
  Si  Si182  1  0.52546809  0.58754368  0.61594676  1
  Si  Si183  1  0.02164419  0.17236476  0.61437002  1
  Si  Si184  1  0.19363914  0.41191013  0.61645511  1
  Si  Si185  1  0.36146168  0.16709512  0.11249744  1
  Si  Si186  1  0.47550923  0.90928737  0.39005925  1
  Si  Si187  1  0.97544916  0.33111255  0.38331391  1
  Si  Si188  1  0.80593826  0.92357654  0.38753926  1
  Si  Si189  1  0.69507355  0.83956006  0.61731430  1
  Si  Si190  1  0.97923338  0.83944491  0.88644615  1
  Si  Si191  1  0.80764280  0.08770655  0.38307084  1
  O  O192  1  0.28917523  0.11181141  0.07972943  1
  O  O193  1  0.27113162  0.13320130  0.58382850  1
  O  O194  1  0.26664958  0.63295098  0.08632684  1
  O  O195  1  0.27317324  0.60582526  0.58617295  1
  O  O196  1  0.60557618  0.12080604  0.08264026  1
  O  O197  1  0.60688209  0.10371378  0.58690245  1
  O  O198  1  0.60204908  0.62942108  0.08518170  1
  O  O199  1  0.60414932  0.62710760  0.58783757  1
  O  O200  1  0.92650018  0.10775599  0.07337949  1
  O  O201  1  0.93779928  0.12224658  0.58491602  1
  O  O202  1  0.93435126  0.61510695  0.08471258  1
  O  O203  1  0.93597037  0.62409888  0.58515859  1
  O  O204  1  0.11551171  0.38091486  0.07636880  1
  O  O205  1  0.11649139  0.35788981  0.58541011  1
  O  O206  1  0.10276532  0.85663170  0.08417407  1
  O  O207  1  0.09642590  0.86595873  0.57557151  1
  O  O208  1  0.43289443  0.35923840  0.07157119  1
  O  O209  1  0.43415952  0.38005047  0.58392023  1
  O  O210  1  0.43660055  0.87610918  0.08618785  1
  O  O211  1  0.46578851  0.85525806  0.58169957  1
  O  O212  1  0.78135726  0.36582009  0.08361423  1
  O  O213  1  0.77668972  0.36121144  0.56467737  1
  O  O214  1  0.76945397  0.86639371  0.08562768  1
  O  O215  1  0.77521583  0.86742841  0.58409366  1
  O  O216  1  0.27802152  0.38515864  0.08428196  1
  O  O217  1  0.27400660  0.38134576  0.58392333  1
  O  O218  1  0.26962837  0.86400603  0.08160768  1
  O  O219  1  0.28423858  0.89784994  0.56880993  1
  O  O220  1  0.61605230  0.36789693  0.07084527  1
  O  O221  1  0.59498066  0.38646739  0.57409904  1
  O  O222  1  0.60411525  0.88341093  0.08737187  1
  O  O223  1  0.62098400  0.89830988  0.59083155  1
  O  O224  1  0.93753985  0.41009911  0.07836114  1
  O  O225  1  0.95897614  0.39328499  0.57667199  1
  O  O226  1  0.93452545  0.87143025  0.08504313  1
  O  O227  1  0.93603323  0.87249946  0.58686670  1
  O  O228  1  0.10352958  0.12994202  0.06104969  1
  O  O229  1  0.10615950  0.14716892  0.58497108  1
  O  O230  1  0.10177776  0.62569063  0.08942172  1
  O  O231  1  0.10316888  0.62402861  0.58754974  1
  O  O232  1  0.44696303  0.13778197  0.08197025  1
  O  O233  1  0.44135866  0.13178022  0.58831168  1
  O  O234  1  0.43390806  0.62632380  0.08239115  1
  O  O235  1  0.43763324  0.62975216  0.58642468  1
  O  O236  1  0.76533264  0.11567335  0.08234934  1
  O  O237  1  0.76991116  0.11901436  0.58159946  1
  O  O238  1  0.77073739  0.63949826  0.08657026  1
  O  O239  1  0.77226127  0.64779644  0.58902266  1
  O  O240  1  0.04531375  0.11308413  0.41632725  1
  O  O241  1  0.06192253  0.10456113  0.90790265  1
  O  O242  1  0.05117591  0.63067610  0.42710662  1
  O  O243  1  0.04833352  0.62546184  0.92938830  1
  O  O244  1  0.39133270  0.11295954  0.43499977  1
  O  O245  1  0.39873782  0.12497876  0.91439632  1
  O  O246  1  0.40247277  0.61298286  0.41738158  1
  O  O247  1  0.38815234  0.61543363  0.91422123  1
  O  O248  1  0.72788624  0.11989345  0.41327505  1
  O  O249  1  0.73164117  0.12712427  0.91334518  1
  O  O250  1  0.72155712  0.59929818  0.41226493  1
  O  O251  1  0.70633482  0.60043167  0.92166149  1
  O  O252  1  0.23058424  0.37574857  0.41732774  1
  O  O253  1  0.22581153  0.36057223  0.91639486  1
  O  O254  1  0.23029963  0.84798577  0.41849235  1
  O  O255  1  0.22905369  0.86300715  0.91709255  1
  O  O256  1  0.56285457  0.36740694  0.41094775  1
  O  O257  1  0.55234319  0.36627639  0.91216699  1
  O  O258  1  0.54325317  0.84703841  0.42041883  1
  O  O259  1  0.55260593  0.87585270  0.92736769  1
  O  O260  1  0.89393312  0.36476818  0.41253340  1
  O  O261  1  0.87062993  0.34629851  0.91734258  1
  O  O262  1  0.88877734  0.87438708  0.41592795  1
  O  O263  1  0.90568642  0.88302147  0.91757584  1
  O  O264  1  0.06217252  0.37427541  0.41396597  1
  O  O265  1  0.06429367  0.38964505  0.92573980  1
  O  O266  1  0.05257004  0.87217911  0.42272952  1
  O  O267  1  0.06678525  0.88484361  0.91319183  1
  O  O268  1  0.39605478  0.39132331  0.41405203  1
  O  O269  1  0.39012342  0.38041064  0.91253545  1
  O  O270  1  0.38620586  0.88637370  0.41417520  1
  O  O271  1  0.38722623  0.89266446  0.91537423  1
  O  O272  1  0.72769681  0.38375544  0.41051974  1
  O  O273  1  0.71357179  0.38656660  0.91447626  1
  O  O274  1  0.72803917  0.89804398  0.42186583  1
  O  O275  1  0.74375606  0.88272958  0.92699201  1
  O  O276  1  0.20523497  0.14312349  0.42411003  1
  O  O277  1  0.23159279  0.12895018  0.91436940  1
  O  O278  1  0.24423880  0.63804877  0.42571076  1
  O  O279  1  0.23305505  0.65233108  0.92522459  1
  O  O280  1  0.57133158  0.14170863  0.42468271  1
  O  O281  1  0.56480463  0.13098404  0.91311370  1
  O  O282  1  0.56383781  0.62920003  0.41668345  1
  O  O283  1  0.54783681  0.63113939  0.91558618  1
  O  O284  1  0.88589901  0.14131157  0.41223041  1
  O  O285  1  0.89855820  0.12770690  0.91293501  1
  O  O286  1  0.88502291  0.62863840  0.41676017  1
  O  O287  1  0.88542928  0.65305141  0.92161405  1
  O  O288  1  0.17757977  -0.01951227  0.07350639  1
  O  O289  1  0.16786248  0.01884632  0.57459635  1
  O  O290  1  0.19336949  0.50630878  0.08476377  1
  O  O291  1  0.17296172  0.49533305  0.59105748  1
  O  O292  1  0.51263630  0.00266090  0.08512456  1
  O  O293  1  0.50017195  -0.00237549  0.58831668  1
  O  O294  1  0.51809201  0.50846798  0.07223404  1
  O  O295  1  0.51288907  0.50599353  0.58599047  1
  O  O296  1  0.83999695  -0.00913911  0.08534806  1
  O  O297  1  0.85483169  -0.00301746  0.58353899  1
  O  O298  1  0.82197375  0.50613198  0.08863459  1
  O  O299  1  0.82814228  0.51675233  0.57720035  1
  O  O300  1  -0.00901251  0.25570968  0.07086127  1
  O  O301  1  0.00049414  0.25384861  0.58339374  1
  O  O302  1  0.00594357  0.74343207  0.08346701  1
  O  O303  1  0.01311619  0.74593832  0.58169077  1
  O  O304  1  0.33756384  0.24896460  0.08163636  1
  O  O305  1  0.35614586  0.25420308  0.58575009  1
  O  O306  1  0.36220372  0.74940753  0.08529637  1
  O  O307  1  0.32878955  0.73771603  0.57797362  1
  O  O308  1  0.69498034  0.24354955  0.08260128  1
  O  O309  1  0.66699602  0.23286815  0.57390586  1
  O  O310  1  0.67244879  0.75387978  0.08603095  1
  O  O311  1  0.66885356  0.75788549  0.58889939  1
  O  O312  1  0.15541169  0.00674857  0.42184285  1
  O  O313  1  0.16954741  -0.00220511  0.91432938  1
  O  O314  1  0.14873673  0.49451510  0.42735209  1
  O  O315  1  0.17489949  0.49400931  0.91784332  1
  O  O316  1  0.50750351  -0.01459063  0.42383509  1
  O  O317  1  0.48787079  0.00586956  0.91611003  1
  O  O318  1  0.50123149  0.49837814  0.41337226  1
  O  O319  1  0.48288356  0.49805230  0.91176086  1
  O  O320  1  0.83041671  0.00695170  0.41266014  1
  O  O321  1  0.81791758  0.00554189  0.91610181  1
  O  O322  1  0.83049303  0.49475265  0.41204958  1
  O  O323  1  0.83599701  0.48588822  0.92526005  1
  O  O324  1  0.33162638  0.26506166  0.42568011  1
  O  O325  1  0.32523986  0.24903673  0.91392702  1
  O  O326  1  0.34792655  0.74782539  0.41340594  1
  O  O327  1  0.34190855  0.75493621  0.91415516  1
  O  O328  1  0.66697929  0.25364525  0.41161163  1
  O  O329  1  0.65069745  0.25187435  0.91285804  1
  O  O330  1  0.67880076  0.73443995  0.42477437  1
  O  O331  1  0.65671383  0.73754526  0.92643749  1
  O  O332  1  0.98960872  0.24904980  0.41265661  1
  O  O333  1  1.00853344  0.23511063  0.92075213  1
  O  O334  1  0.96244086  0.75121113  0.41593630  1
  O  O335  1  0.99258615  0.75922738  0.91979786  1
  O  O336  1  0.19229865  0.07988188  0.19644309  1
  O  O337  1  0.21277873  0.09013816  0.69102981  1
  O  O338  1  0.21487855  0.58273104  0.19652568  1
  O  O339  1  0.21283747  0.58877512  0.69635616  1
  O  O340  1  0.54613231  0.08411837  0.19374998  1
  O  O341  1  0.54259658  0.08298465  0.69648488  1
  O  O342  1  0.53956983  0.58247409  0.19125966  1
  O  O343  1  0.54327987  0.58544757  0.69661023  1
  O  O344  1  0.87280284  0.08052519  0.19193794  1
  O  O345  1  0.87222107  0.08157845  0.69273044  1
  O  O346  1  0.87377070  0.58623902  0.19564045  1
  O  O347  1  0.87425800  0.58930382  0.69505328  1
  O  O348  1  0.04550850  0.33690103  0.20184252  1
  O  O349  1  0.04427827  0.33478911  0.69249977  1
  O  O350  1  0.03751590  0.82738184  0.19395775  1
  O  O351  1  0.04753021  0.82652030  0.69185429  1
  O  O352  1  0.38054228  0.33675007  0.19063437  1
  O  O353  1  0.37757361  0.33484082  0.69436857  1
  O  O354  1  0.37933752  0.82963818  0.19571737  1
  O  O355  1  0.38103580  0.83404451  0.70165150  1
  O  O356  1  0.71196789  0.33088119  0.18996017  1
  O  O357  1  0.70994225  0.33278390  0.69886478  1
  O  O358  1  0.70990079  0.83462902  0.19643565  1
  O  O359  1  0.71318553  0.83570060  0.69767650  1
  O  O360  1  0.21205770  0.42028177  0.19389012  1
  O  O361  1  0.21483453  0.40867610  0.69585500  1
  O  O362  1  0.21353916  0.90336219  0.19073828  1
  O  O363  1  0.21445747  0.91859284  0.69803999  1
  O  O364  1  0.54628570  0.41494908  0.19723071  1
  O  O365  1  0.54195229  0.41769463  0.69213930  1
  O  O366  1  0.54337607  0.91799228  0.19612493  1
  O  O367  1  0.54509218  0.91842708  0.69646614  1
  O  O368  1  0.87574388  0.41892667  0.19320207  1
  O  O369  1  0.87314136  0.41940277  0.70041638  1
  O  O370  1  0.87334193  0.91172128  0.19582268  1
  O  O371  1  0.86750547  0.91747509  0.69409701  1
  O  O372  1  0.04123709  0.16710721  0.19898861  1
  O  O373  1  0.04239744  0.17248033  0.69388617  1
  O  O374  1  0.03213944  0.66617098  0.19513671  1
  O  O375  1  0.04074473  0.66854330  0.69519162  1
  O  O376  1  0.38468147  0.17158529  0.19116062  1
  O  O377  1  0.37806879  0.16965784  0.69472679  1
  O  O378  1  0.37907502  0.66466189  0.19499507  1
  O  O379  1  0.37499909  0.66449687  0.69442447  1
  O  O380  1  0.71060001  0.16410959  0.19310199  1
  O  O381  1  0.70893804  0.16250077  0.69130772  1
  O  O382  1  0.71023528  0.67126142  0.19609862  1
  O  O383  1  0.70575127  0.67169994  0.69805412  1
  O  O384  1  0.11645571  0.08652069  0.30970288  1
  O  O385  1  0.13573877  0.08196953  0.80333142  1
  O  O386  1  0.12069674  0.58292865  0.30183958  1
  O  O387  1  0.11562489  0.59561339  0.80407565  1
  O  O388  1  0.46681245  0.08243624  0.30300177  1
  O  O389  1  0.45814944  0.08655560  0.80461099  1
  O  O390  1  0.46135255  0.58151913  0.30495833  1
  O  O391  1  0.45418774  0.58240882  0.80371203  1
  O  O392  1  0.78936779  0.08502146  0.30242590  1
  O  O393  1  0.78809597  0.08538640  0.80413729  1
  O  O394  1  0.79278004  0.58028597  0.30396004  1
  O  O395  1  0.78697632  0.58354829  0.80003423  1
  O  O396  1  0.28946220  0.34111339  0.30687355  1
  O  O397  1  0.29041014  0.33215960  0.80500311  1
  O  O398  1  0.29256422  0.82759818  0.30534378  1
  O  O399  1  0.29260072  0.83424386  0.80599849  1
  O  O400  1  0.62771134  0.33326572  0.30147454  1
  O  O401  1  0.61859735  0.33261491  0.80333594  1
  O  O402  1  0.62296780  0.83159756  0.30008359  1
  O  O403  1  0.62137581  0.83464949  0.80193294  1
  O  O404  1  0.95428228  0.33358662  0.30323309  1
  O  O405  1  0.95388491  0.33099928  0.79836764  1
  O  O406  1  0.95259809  0.83342763  0.30683542  1
  O  O407  1  0.95523850  0.83224114  0.80731864  1
  O  O408  1  0.12435247  0.42065023  0.30797513  1
  O  O409  1  0.11871162  0.40716977  0.81015735  1
  O  O410  1  0.11845788  0.91239593  0.29596753  1
  O  O411  1  0.13631701  0.91762869  0.80559420  1
  O  O412  1  0.45866215  0.41665882  0.30309306  1
  O  O413  1  0.45549792  0.41542397  0.80246402  1
  O  O414  1  0.45909514  0.91201590  0.30829459  1
  O  O415  1  0.45916130  0.92021825  0.80872819  1
  O  O416  1  0.79172155  0.41394958  0.30173212  1
  O  O417  1  0.78544496  0.41602874  0.80875315  1
  O  O418  1  0.78847047  0.91914313  0.30630150  1
  O  O419  1  0.79143750  0.91816581  0.80932070  1
  O  O420  1  0.28171600  0.17537251  0.30369266  1
  O  O421  1  0.29290819  0.16744947  0.80444016  1
  O  O422  1  0.30037841  0.66302538  0.30871407  1
  O  O423  1  0.29156658  0.66958781  0.80715226  1
  O  O424  1  0.62676547  0.16816030  0.30506771  1
  O  O425  1  0.62363894  0.16778394  0.80312865  1
  O  O426  1  0.62352160  0.66644527  0.30751387  1
  O  O427  1  0.62072774  0.66482137  0.80971782  1
  O  O428  1  0.95245428  0.16698458  0.30293556  1
  O  O429  1  0.95662454  0.16740501  0.80379529  1
  O  O430  1  0.95265374  0.66563111  0.30888296  1
  O  O431  1  0.95545867  0.67166169  0.81104837  1
  F  F432  1  0.02528918  -0.00341979  0.19274516  1
  F  F433  1  0.05306160  0.01108639  0.69313810  1
  F  F434  1  0.04454475  0.50124435  0.20168012  1
  F  F435  1  0.03099657  0.50099176  0.70174399  1
  F  F436  1  0.38330907  -0.01442339  0.19846914  1
  F  F437  1  0.38239419  0.00332001  0.70244820  1
  F  F438  1  0.38042624  0.50074096  0.20235947  1
  F  F439  1  0.37796200  0.49977191  0.69986320  1
  F  F440  1  0.71063885  -0.00102331  0.20196240  1
  F  F441  1  0.71238653  -0.00080088  0.70559631  1
  F  F442  1  0.71370716  0.49618759  0.19778864  1
  F  F443  1  0.70717969  0.50090856  0.70132425  1
  F  F444  1  0.20350552  0.25281016  0.19900172  1
  F  F445  1  0.21312696  0.25010186  0.70248092  1
  F  F446  1  0.21350514  0.74697330  0.20295877  1
  F  F447  1  0.21306757  0.74982710  0.70306580  1
  F  F448  1  0.54909584  0.24860119  0.19909647  1
  F  F449  1  0.54414143  0.24948926  0.69996540  1
  F  F450  1  0.54495813  0.74766348  0.20024653  1
  F  F451  1  0.54538298  0.74760293  0.70402697  1
  F  F452  1  0.87763160  0.24972679  0.19876559  1
  F  F453  1  0.87550239  0.24726602  0.69840426  1
  F  F454  1  0.87628376  0.74967827  0.20566062  1
  F  F455  1  0.87783464  0.75121978  0.70541334  1
  F  F456  1  0.28679467  -0.01400499  0.30514522  1
  F  F457  1  0.29296649  0.00430966  0.79621848  1
  F  F458  1  0.29125323  0.49929303  0.29854737  1
  F  F459  1  0.30317616  0.49942081  0.80267008  1
  F  F460  1  0.62314582  0.00048060  0.29803861  1
  F  F461  1  0.62202719  0.00269184  0.80053950  1
  F  F462  1  0.62310099  0.49671870  0.29810611  1
  F  F463  1  0.61707393  0.49798314  0.79639822  1
  F  F464  1  0.95132667  -0.00077436  0.29659902  1
  F  F465  1  0.94870033  0.00796953  0.80444526  1
  F  F466  1  0.95239695  0.49974961  0.29664735  1
  F  F467  1  0.95193891  0.50364113  0.80190363  1
  F  F468  1  0.11973419  0.25373194  0.30193831  1
  F  F469  1  0.12286638  0.24829044  0.79706832  1
  F  F470  1  0.11813692  0.75083730  0.30037675  1
  F  F471  1  0.12328254  0.75470624  0.79825583  1
  F  F472  1  0.46762528  0.25377789  0.30068962  1
  F  F473  1  0.45539114  0.25120500  0.79666262  1
  F  F474  1  0.45635346  0.74572969  0.29624047  1
  F  F475  1  0.45562673  0.74793597  0.80006960  1
  F  F476  1  0.78887124  0.24983475  0.29357500  1
  F  F477  1  0.78629160  0.24452300  0.79592380  1
  F  F478  1  0.78702809  0.74992752  0.30058426  1
  F  F479  1  0.78706500  0.75316549  0.80092106  1
