# generated using pymatgen
data_K24Na3Li5Mg64Fe17Si79(O5F)48
_symmetry_space_group_name_H-M   'P 1'
_cell_length_a   16.06754776
_cell_length_b   18.56973398
_cell_length_c   20.53527027
_cell_angle_alpha   90.00439590
_cell_angle_beta   100.00964266
_cell_angle_gamma   89.99370956
_symmetry_Int_Tables_number   1
_chemical_formula_structural   K24Na3Li5Mg64Fe17Si79(O5F)48
_chemical_formula_sum   'K24 Na3 Li5 Mg64 Fe17 Si79 O240 F48'
_cell_volume   6033.84662055
_cell_formula_units_Z   1
loop_
 _symmetry_equiv_pos_site_id
 _symmetry_equiv_pos_as_xyz
  1  'x, y, z'
loop_
 _atom_site_type_symbol
 _atom_site_label
 _atom_site_symmetry_multiplicity
 _atom_site_fract_x
 _atom_site_fract_y
 _atom_site_fract_z
 _atom_site_occupancy
  K  K0  1  -0.00526493  -0.00241606  -0.00202419  1
  K  K1  1  0.00166543  0.00004148  0.50037432  1
  K  K2  1  0.00134597  0.50149041  0.00067161  1
  K  K3  1  -0.00050404  0.50443992  0.49761183  1
  K  K4  1  0.33207318  -0.00287576  -0.00411826  1
  K  K5  1  0.33221592  -0.00190345  0.50750288  1
  K  K6  1  0.32768108  0.50773412  0.00235840  1
  K  K7  1  0.33354014  0.51219922  0.48656738  1
  K  K8  1  0.66609952  -0.00620503  0.00196148  1
  K  K9  1  0.66516058  -0.00325199  0.49758864  1
  K  K10  1  0.66924001  0.50364055  0.00401769  1
  K  K11  1  0.66540035  0.50853301  0.49656592  1
  K  K12  1  0.16396664  0.25036897  -0.00953074  1
  K  K13  1  0.16316147  0.25345783  0.50214060  1
  K  K14  1  0.17696385  0.74620422  0.00181029  1
  K  K15  1  0.17050133  0.75154589  0.50026032  1
  K  K16  1  0.49542198  0.25095177  -0.00130450  1
  K  K17  1  0.50282543  0.24238926  0.50421790  1
  K  K18  1  0.48190835  0.75975696  0.00437958  1
  K  K19  1  0.48984790  0.74932981  0.48744465  1
  K  K20  1  0.83973096  0.24700405  -0.00490976  1
  K  K21  1  0.83208236  0.24750936  0.50243113  1
  K  K22  1  0.84206329  0.75046709  0.00142044  1
  K  K23  1  0.83692394  0.74883260  0.49656269  1
  Na  Na24  1  0.66481865  0.75208643  0.25008183  1
  Na  Na25  1  0.00423507  0.58195791  0.24761893  1
  Na  Na26  1  0.33496756  0.07983876  0.75262174  1
  Li  Li27  1  0.83235011  -0.00146438  0.25484235  1
  Li  Li28  1  0.32577994  0.74506498  0.24276285  1
  Li  Li29  1  0.83710359  0.33043585  0.74981387  1
  Li  Li30  1  0.16850916  0.83590167  0.75170097  1
  Li  Li31  1  0.16850757  0.66849554  0.24817659  1
  Mg  Mg32  1  0.49812221  -0.00217221  0.75022146  1
  Mg  Mg33  1  0.83237483  0.50006275  0.25123432  1
  Mg  Mg34  1  0.16556406  0.49784503  0.75033628  1
  Mg  Mg35  1  0.33345195  0.24884207  0.75330191  1
  Mg  Mg36  1  -0.00305523  0.25001402  0.25258336  1
  Mg  Mg37  1  0.50081513  0.49891778  0.75084898  1
  Mg  Mg38  1  0.00364667  0.74858970  0.24716944  1
  Mg  Mg39  1  0.83431621  0.49712750  0.75147766  1
  Mg  Mg40  1  0.00503507  0.75191854  0.74941347  1
  Mg  Mg41  1  -0.00235773  0.24978067  0.75032588  1
  Mg  Mg42  1  0.49996085  -0.00039313  0.25132624  1
  Mg  Mg43  1  0.16507837  0.50438352  0.24923168  1
  Mg  Mg44  1  0.49827958  0.50126742  0.25091271  1
  Mg  Mg45  1  0.16860363  -0.00341214  0.75051706  1
  Mg  Mg46  1  0.32936104  0.75091605  0.74812721  1
  Mg  Mg47  1  0.16556453  -0.00098809  0.24842569  1
  Mg  Mg48  1  0.66719914  0.25037727  0.25206704  1
  Mg  Mg49  1  0.67255646  0.25031387  0.74861690  1
  Mg  Mg50  1  0.83382464  -0.00059906  0.75076529  1
  Mg  Mg51  1  0.33192535  0.25269298  0.25110510  1
  Mg  Mg52  1  0.66698723  0.74994420  0.75254102  1
  Mg  Mg53  1  0.83544510  0.66749532  0.24812893  1
  Mg  Mg54  1  0.33200202  0.58295590  0.74791249  1
  Mg  Mg55  1  0.50069628  0.33340719  0.75084403  1
  Mg  Mg56  1  0.49661330  0.66929387  0.25102904  1
  Mg  Mg57  1  0.33467306  0.91465258  0.25099239  1
  Mg  Mg58  1  0.83372925  0.33511215  0.25193454  1
  Mg  Mg59  1  0.67172774  0.08214080  0.25144439  1
  Mg  Mg60  1  -0.00351474  0.08176765  0.25118728  1
  Mg  Mg61  1  0.83390079  0.83440237  0.24917846  1
  Mg  Mg62  1  0.00109260  0.08365075  0.74980202  1
  Mg  Mg63  1  0.50234763  0.16539024  0.75110911  1
  Mg  Mg64  1  0.83467311  0.16272489  0.25231600  1
  Mg  Mg65  1  0.33182442  0.91323635  0.74806242  1
  Mg  Mg66  1  0.00088323  0.58480983  0.74839456  1
  Mg  Mg67  1  0.16636343  0.33259086  0.75276768  1
  Mg  Mg68  1  0.17076577  0.82979252  0.24864301  1
  Mg  Mg69  1  0.16665559  0.16532628  0.75129396  1
  Mg  Mg70  1  0.67012584  0.41435654  0.74979623  1
  Mg  Mg71  1  0.16410389  0.33661266  0.25148686  1
  Mg  Mg72  1  0.00329134  0.91327182  0.75261272  1
  Mg  Mg73  1  0.66980763  0.91744992  0.25188001  1
  Mg  Mg74  1  0.50239455  0.33547058  0.25200327  1
  Mg  Mg75  1  0.33462936  0.41786964  0.25087391  1
  Mg  Mg76  1  -0.00191991  0.41631826  0.25116742  1
  Mg  Mg77  1  0.32967710  0.58777237  0.24853507  1
  Mg  Mg78  1  0.33394276  0.08512581  0.25052160  1
  Mg  Mg79  1  0.66770129  0.41533823  0.25212604  1
  Mg  Mg80  1  0.33273192  0.41374334  0.75132078  1
  Mg  Mg81  1  0.66687645  0.58505822  0.24789085  1
  Mg  Mg82  1  0.83345599  0.16713760  0.74979104  1
  Mg  Mg83  1  0.50274707  0.16696990  0.25246205  1
  Mg  Mg84  1  0.49870308  0.66619680  0.74887301  1
  Mg  Mg85  1  0.49553548  0.83399358  0.75114118  1
  Mg  Mg86  1  0.16590460  0.66737150  0.74792959  1
  Mg  Mg87  1  0.66803367  0.58322515  0.75083697  1
  Mg  Mg88  1  0.16454823  0.16659385  0.24903558  1
  Mg  Mg89  1  0.83624989  0.83290177  0.75320537  1
  Mg  Mg90  1  0.66535968  0.91455991  0.75249688  1
  Mg  Mg91  1  0.49693988  0.83336848  0.25191363  1
  Mg  Mg92  1  0.83659754  0.66552182  0.75135387  1
  Mg  Mg93  1  -0.00317115  0.41336232  0.75194920  1
  Mg  Mg94  1  -0.00190874  0.91607895  0.24721512  1
  Mg  Mg95  1  0.66707996  0.08431845  0.74905985  1
  Fe  Fe96  1  0.47537288  0.92284916  0.39188914  1
  Fe  Fe97  1  0.47452940  0.91887505  0.89328026  1
  Fe  Fe98  1  0.30192418  0.83248133  0.88926162  1
  Fe  Fe99  1  0.30750585  0.67221052  0.38637799  1
  Fe  Fe100  1  0.97254450  0.33169807  0.39115834  1
  Fe  Fe101  1  0.47053341  0.41249418  0.39157133  1
  Fe  Fe102  1  0.02796942  0.66935381  0.60756415  1
  Fe  Fe103  1  0.96873023  0.33094211  0.89043664  1
  Fe  Fe104  1  0.35721072  0.66710832  0.10771822  1
  Fe  Fe105  1  0.02394055  0.16669175  0.61141350  1
  Fe  Fe106  1  0.69271491  0.16678128  0.60892405  1
  Fe  Fe107  1  0.97213351  0.83332285  0.89215371  1
  Fe  Fe108  1  0.80496798  0.42108434  0.39266965  1
  Fe  Fe109  1  0.35519880  0.82996470  0.60689077  1
  Fe  Fe110  1  0.80995583  0.07717348  0.39039233  1
  Fe  Fe111  1  0.63998809  0.33029133  0.39214245  1
  Fe  Fe112  1  0.30861003  0.33413926  0.89258010  1
  Si  Si113  1  0.35868445  0.16730436  0.11428362  1
  Si  Si114  1  0.02541593  0.66857159  0.11191888  1
  Si  Si115  1  0.36133472  0.33237619  0.61467579  1
  Si  Si116  1  0.31196600  0.66140769  0.88521095  1
  Si  Si117  1  0.19314400  0.08879612  0.61311168  1
  Si  Si118  1  0.18654069  0.57930481  0.10896166  1
  Si  Si119  1  0.85897728  0.08210199  0.11364265  1
  Si  Si120  1  0.80695616  0.08202016  0.88713052  1
  Si  Si121  1  0.13606676  0.91851597  0.88960819  1
  Si  Si122  1  0.52556652  0.41899359  0.61509661  1
  Si  Si123  1  0.35886443  0.33387765  0.11374388  1
  Si  Si124  1  0.85568755  0.91511528  0.61677562  1
  Si  Si125  1  0.52849790  0.91269859  0.61419387  1
  Si  Si126  1  0.02215011  0.16699330  0.11362525  1
  Si  Si127  1  0.80913416  0.58135699  0.88676844  1
  Si  Si128  1  0.14366472  0.58525056  0.38581592  1
  Si  Si129  1  0.02038252  0.33725461  0.61355915  1
  Si  Si130  1  0.97662670  0.83038129  0.38178992  1
  Si  Si131  1  0.69360587  0.16703336  0.11314084  1
  Si  Si132  1  0.52503655  0.07866507  0.61333939  1
  Si  Si133  1  0.69450386  0.33191630  0.11161672  1
  Si  Si134  1  0.63732776  0.82881145  0.88828371  1
  Si  Si135  1  0.80102132  0.41776403  0.88849289  1
  Si  Si136  1  0.29628336  0.33477815  0.38757348  1
  Si  Si137  1  0.69059181  0.33733294  0.61324899  1
  Si  Si138  1  0.52696365  0.08556697  0.11494613  1
  Si  Si139  1  0.48533827  0.08660660  0.88927834  1
  Si  Si140  1  0.31277091  0.16598689  0.89006914  1
  Si  Si141  1  0.30409938  0.84191787  0.38772451  1
  Si  Si142  1  0.19146333  0.41186092  0.61464524  1
  Si  Si143  1  0.69398639  0.83245527  0.61766602  1
  Si  Si144  1  0.85686073  0.42061675  0.61651419  1
  Si  Si145  1  0.63873945  0.33624926  0.88530894  1
  Si  Si146  1  0.69492955  0.66635404  0.11193567  1
  Si  Si147  1  0.86020237  0.91541512  0.11261796  1
  Si  Si148  1  0.52877790  0.58118664  0.10949399  1
  Si  Si149  1  0.14425594  0.58111533  0.88418083  1
  Si  Si150  1  0.13542971  0.42171374  0.38655388  1
  Si  Si151  1  0.64135566  0.83431080  0.38812216  1
  Si  Si152  1  0.14744867  0.08061566  0.88745525  1
  Si  Si153  1  0.69058061  0.66763848  0.61647864  1
  Si  Si154  1  0.13678775  0.91522936  0.38186996  1
  Si  Si155  1  0.02376705  0.33246214  0.11415692  1
  Si  Si156  1  0.85513226  0.58411960  0.61298546  1
  Si  Si157  1  0.19651046  0.57642864  0.61231658  1
  Si  Si158  1  0.30323805  0.16833814  0.38474928  1
  Si  Si159  1  0.19009228  0.08652355  0.11303035  1
  Si  Si160  1  0.85731509  0.58487200  0.11147847  1
  Si  Si161  1  0.52805097  0.41452886  0.11250174  1
  Si  Si162  1  0.19027409  0.41380368  0.11360990  1
  Si  Si163  1  0.35796001  0.66042686  0.61304102  1
  Si  Si164  1  0.64393330  0.16363538  0.38607978  1
  Si  Si165  1  0.97787317  0.66237716  0.88854737  1
  Si  Si166  1  0.79904536  0.91606132  0.88943086  1
  Si  Si167  1  0.02351420  0.84056536  0.61159217  1
  Si  Si168  1  0.86009759  0.07756731  0.61330213  1
  Si  Si169  1  0.98080149  0.16458762  0.38874842  1
  Si  Si170  1  0.36436090  0.16788096  0.61700033  1
  Si  Si171  1  0.19154938  0.92035253  0.11300529  1
  Si  Si172  1  0.97761515  0.66929913  0.38117997  1
  Si  Si173  1  0.14128869  0.07892827  0.38309229  1
  Si  Si174  1  0.64294840  0.66630130  0.38313866  1
  Si  Si175  1  0.85840170  0.41860379  0.11136151  1
  Si  Si176  1  0.02716471  0.83365408  0.11121033  1
  Si  Si177  1  0.64506480  0.17251815  0.88662478  1
  Si  Si178  1  0.13641261  0.41766956  0.88963664  1
  Si  Si179  1  0.48098907  0.58342494  0.38994016  1
  Si  Si180  1  0.81389632  0.59043563  0.38610157  1
  Si  Si181  1  0.47499848  0.09295484  0.38688492  1
  Si  Si182  1  0.97785012  0.15943586  0.88999522  1
  Si  Si183  1  0.81224042  0.90833258  0.38755751  1
  Si  Si184  1  0.47662808  0.41936807  0.88801205  1
  Si  Si185  1  0.52606960  0.58386283  0.61558153  1
  Si  Si186  1  0.18973926  0.92391742  0.61040354  1
  Si  Si187  1  0.69427280  0.83520272  0.11314828  1
  Si  Si188  1  0.35913156  0.84080048  0.11237189  1
  Si  Si189  1  0.52890715  0.91958913  0.11460300  1
  Si  Si190  1  0.64424853  0.66587933  0.88582901  1
  Si  Si191  1  0.47945914  0.58249449  0.88436702  1
  O  O192  1  0.26869983  0.12602102  0.08417984  1
  O  O193  1  0.28105662  0.11941393  0.58953407  1
  O  O194  1  0.25644168  0.61578616  0.07144156  1
  O  O195  1  0.28719468  0.59720819  0.58955373  1
  O  O196  1  0.60104231  0.12948917  0.08393614  1
  O  O197  1  0.59970762  0.10680088  0.57668530  1
  O  O198  1  0.60929645  0.62049100  0.08128719  1
  O  O199  1  0.60766607  0.61773094  0.58761589  1
  O  O200  1  0.93548731  0.12241789  0.08145393  1
  O  O201  1  0.94676973  0.09155949  0.58496279  1
  O  O202  1  0.93402268  0.62692109  0.08268657  1
  O  O203  1  0.92943586  0.61394997  0.57690631  1
  O  O204  1  0.10445869  0.36598899  0.08452606  1
  O  O205  1  0.10568069  0.36664198  0.58519854  1
  O  O206  1  0.10405933  0.87610578  0.08248331  1
  O  O207  1  0.09845331  0.88385580  0.58226453  1
  O  O208  1  0.43677752  0.37330389  0.08411639  1
  O  O209  1  0.44024405  0.37147924  0.58626537  1
  O  O210  1  0.43778669  0.88325721  0.08408707  1
  O  O211  1  0.45636954  0.85876984  0.57837737  1
  O  O212  1  0.76870952  0.37615085  0.08055377  1
  O  O213  1  0.77508972  0.36987880  0.58757138  1
  O  O214  1  0.77091102  0.87397968  0.07990343  1
  O  O215  1  0.77833903  0.85806123  0.58898168  1
  O  O216  1  0.26968605  0.37549994  0.08393492  1
  O  O217  1  0.27180122  0.37406008  0.58651647  1
  O  O218  1  0.27230508  0.88918056  0.08344489  1
  O  O219  1  0.26148105  0.88811129  0.57363498  1
  O  O220  1  0.60190332  0.36909589  0.08170777  1
  O  O221  1  0.60885455  0.39202624  0.58667605  1
  O  O222  1  0.60479497  0.87784752  0.08343258  1
  O  O223  1  0.61800807  0.88837174  0.58913156  1
  O  O224  1  0.93699297  0.37770052  0.08325084  1
  O  O225  1  0.94246455  0.39522933  0.58862171  1
  O  O226  1  0.93769070  0.87676697  0.08117408  1
  O  O227  1  0.93720186  0.88979151  0.58511663  1
  O  O228  1  0.10255854  0.13141878  0.08404528  1
  O  O229  1  0.12014210  0.14175437  0.57545155  1
  O  O230  1  0.09517759  0.62098287  0.08008833  1
  O  O231  1  0.12077731  0.62688581  0.57601218  1
  O  O232  1  0.43575770  0.12602294  0.08518963  1
  O  O233  1  0.44070807  0.12897603  0.58606733  1
  O  O234  1  0.44392751  0.61879396  0.07112278  1
  O  O235  1  0.44455751  0.63291600  0.58613638  1
  O  O236  1  0.76817322  0.12258766  0.08306620  1
  O  O237  1  0.78801467  0.13288042  0.57812856  1
  O  O238  1  0.77041467  0.62853085  0.07690808  1
  O  O239  1  0.76963734  0.63411883  0.58625639  1
  O  O240  1  0.05843363  0.10464536  0.41206023  1
  O  O241  1  0.06448304  0.11138975  0.91710384  1
  O  O242  1  0.05249945  0.61109844  0.40883701  1
  O  O243  1  0.06132657  0.61037706  0.91373409  1
  O  O244  1  0.39018278  0.12502982  0.41400885  1
  O  O245  1  0.39786041  0.11517568  0.91401123  1
  O  O246  1  0.40503204  0.61791522  0.42260215  1
  O  O247  1  0.39367180  0.60597498  0.91156514  1
  O  O248  1  0.70440127  0.09716451  0.41564693  1
  O  O249  1  0.73152396  0.12619237  0.91656679  1
  O  O250  1  0.73109687  0.62349074  0.41441006  1
  O  O251  1  0.72704004  0.61557794  0.91498065  1
  O  O252  1  0.20890612  0.36042761  0.41253322  1
  O  O253  1  0.21171370  0.36426892  0.92394709  1
  O  O254  1  0.21321317  0.86225889  0.41359768  1
  O  O255  1  0.20464354  0.85948658  0.92331301  1
  O  O256  1  0.54093211  0.33868813  0.42570422  1
  O  O257  1  0.55515202  0.36281703  0.91496546  1
  O  O258  1  0.56892030  0.86390495  0.42769358  1
  O  O259  1  0.55888986  0.84785824  0.92357900  1
  O  O260  1  0.88009229  0.35048338  0.42983602  1
  O  O261  1  0.87318015  0.36439726  0.92494810  1
  O  O262  1  0.89200198  0.85127596  0.41202684  1
  O  O263  1  0.87641439  0.86768793  0.92595149  1
  O  O264  1  0.05503054  0.40245572  0.42027693  1
  O  O265  1  0.05277503  0.39995573  0.92128802  1
  O  O266  1  0.05203898  0.88857924  0.41044197  1
  O  O267  1  0.05032670  0.90543533  0.92095522  1
  O  O268  1  0.36945002  0.38719415  0.42321799  1
  O  O269  1  0.39883055  0.39893038  0.92421577  1
  O  O270  1  0.37280893  0.90265952  0.41998335  1
  O  O271  1  0.38549626  0.89273263  0.93316162  1
  O  O272  1  0.70691745  0.40658960  0.42632682  1
  O  O273  1  0.71254312  0.39390622  0.91504868  1
  O  O274  1  0.73197796  0.87493322  0.41851282  1
  O  O275  1  0.71389114  0.88604832  0.91546399  1
  O  O276  1  0.22435074  0.12889169  0.41239743  1
  O  O277  1  0.23138624  0.12912462  0.91867231  1
  O  O278  1  0.21672211  0.63638159  0.42586926  1
  O  O279  1  0.22890747  0.62828085  0.91317272  1
  O  O280  1  0.54935485  0.15326064  0.40842844  1
  O  O281  1  0.56347566  0.14516564  0.91836298  1
  O  O282  1  0.56674881  0.63362780  0.41795008  1
  O  O283  1  0.56078562  0.63514174  0.91383650  1
  O  O284  1  0.90071677  0.14069297  0.42180897  1
  O  O285  1  0.89852204  0.11832596  0.91876274  1
  O  O286  1  0.89223407  0.64807501  0.41144586  1
  O  O287  1  0.89579102  0.62528513  0.91673453  1
  O  O288  1  0.17731568  0.00425784  0.08396069  1
  O  O289  1  0.17805393  0.00741586  0.58084838  1
  O  O290  1  0.17336316  0.49388175  0.08058433  1
  O  O291  1  0.17874279  0.49310316  0.58427167  1
  O  O292  1  0.52524938  0.00336483  0.08529701  1
  O  O293  1  0.50356462  -0.00471493  0.58800744  1
  O  O294  1  0.52825458  0.49583633  0.08124587  1
  O  O295  1  0.50758715  0.50175443  0.58744875  1
  O  O296  1  0.85198602  -0.00071395  0.08341734  1
  O  O297  1  0.82542233  -0.00502828  0.58936423  1
  O  O298  1  0.85079024  0.50125075  0.08013961  1
  O  O299  1  0.83051172  0.50162060  0.58687362  1
  O  O300  1  0.00926307  0.24960114  0.08449444  1
  O  O301  1  -0.00689278  0.26064254  0.57976646  1
  O  O302  1  0.01806281  0.75164481  0.07929061  1
  O  O303  1  0.00828150  0.76340013  0.57389002  1
  O  O304  1  0.35228303  0.25020949  0.08473554  1
  O  O305  1  0.35248107  0.25014830  0.58416406  1
  O  O306  1  0.34739518  0.76355434  0.07589993  1
  O  O307  1  0.32850859  0.73479186  0.57680536  1
  O  O308  1  0.69137648  0.24903871  0.08092001  1
  O  O309  1  0.66672266  0.26102638  0.57763726  1
  O  O310  1  0.68559479  0.75110649  0.08518223  1
  O  O311  1  0.67141984  0.75021384  0.58894041  1
  O  O312  1  0.16200014  -0.00306260  0.41078656  1
  O  O313  1  0.16917383  0.00041529  0.91810471  1
  O  O314  1  0.16658281  0.50199954  0.41512151  1
  O  O315  1  0.16593722  0.50067424  0.91443652  1
  O  O316  1  0.50157201  0.01783967  0.42334930  1
  O  O317  1  0.51367448  0.01166183  0.92630921  1
  O  O318  1  0.50441552  0.50475320  0.42354655  1
  O  O319  1  0.50959669  0.50168193  0.91213661  1
  O  O320  1  0.84069559  -0.01606993  0.42356608  1
  O  O321  1  0.80843896  0.00021607  0.91772042  1
  O  O322  1  0.84187328  0.51532920  0.42224379  1
  O  O323  1  0.82035396  0.50056266  0.91861278  1
  O  O324  1  0.31073318  0.25021032  0.41439776  1
  O  O325  1  0.33396406  0.24165648  0.92948025  1
  O  O326  1  0.33281222  0.76495884  0.42096483  1
  O  O327  1  0.33448008  0.73730552  0.92044422  1
  O  O328  1  0.68519626  0.23816444  0.41656981  1
  O  O329  1  0.66475069  0.25537189  0.91516763  1
  O  O330  1  0.65978187  0.74908766  0.41026358  1
  O  O331  1  0.67005041  0.74653038  0.91399206  1
  O  O332  1  1.02059880  0.24082143  0.41670866  1
  O  O333  1  0.99158190  0.23657309  0.92694694  1
  O  O334  1  1.00702650  0.75029133  0.41128676  1
  O  O335  1  0.99548411  0.73872350  0.92558923  1
  O  O336  1  0.20876210  0.08661911  0.19332313  1
  O  O337  1  0.20066148  0.08531770  0.69276805  1
  O  O338  1  0.20885538  0.57675017  0.18834118  1
  O  O339  1  0.20971059  0.57813971  0.69356623  1
  O  O340  1  0.54273692  0.08591157  0.19499118  1
  O  O341  1  0.54463229  0.08255100  0.69454914  1
  O  O342  1  0.54396320  0.58166095  0.19004351  1
  O  O343  1  0.54536724  0.58288027  0.69632003  1
  O  O344  1  0.88026249  0.08669254  0.19244556  1
  O  O345  1  0.87536431  0.08064779  0.69526096  1
  O  O346  1  0.86715532  0.58210368  0.19023050  1
  O  O347  1  0.87442699  0.58457770  0.69439796  1
  O  O348  1  0.04292833  0.33084481  0.19403359  1
  O  O349  1  0.04424127  0.33549016  0.69446519  1
  O  O350  1  0.04347693  0.83578053  0.19107648  1
  O  O351  1  0.03949281  0.83487600  0.69170919  1
  O  O352  1  0.37473146  0.33232588  0.19376355  1
  O  O353  1  0.37998382  0.33393985  0.69516167  1
  O  O354  1  0.37697401  0.84073746  0.19206862  1
  O  O355  1  0.37904320  0.82865261  0.69793905  1
  O  O356  1  0.71165930  0.33130673  0.19116945  1
  O  O357  1  0.70529760  0.33493560  0.69385330  1
  O  O358  1  0.71523760  0.84124940  0.19192867  1
  O  O359  1  0.71149697  0.83122824  0.69855248  1
  O  O360  1  0.21046759  0.41325366  0.19384925  1
  O  O361  1  0.20977415  0.41468822  0.69523198  1
  O  O362  1  0.20851783  0.92072070  0.19316936  1
  O  O363  1  0.21049780  0.92216929  0.69033801  1
  O  O364  1  0.54455177  0.41543273  0.19212946  1
  O  O365  1  0.54273463  0.41737340  0.69601668  1
  O  O366  1  0.54629523  0.91907942  0.19434618  1
  O  O367  1  0.54734053  0.91267389  0.69527727  1
  O  O368  1  0.87472669  0.41739632  0.19072531  1
  O  O369  1  0.87635105  0.42122543  0.69640417  1
  O  O370  1  0.87911515  0.91372271  0.19185167  1
  O  O371  1  0.87371821  0.91514002  0.69739924  1
  O  O372  1  0.04163643  0.16569814  0.19382041  1
  O  O373  1  0.04445129  0.16726915  0.70344228  1
  O  O374  1  0.04455828  0.67437561  0.18985363  1
  O  O375  1  0.04324873  0.66604405  0.69927171  1
  O  O376  1  0.37475315  0.16762788  0.19449101  1
  O  O377  1  0.38444351  0.17482841  0.69630742  1
  O  O378  1  0.38072590  0.66207506  0.19733770  1
  O  O379  1  0.37872472  0.66248104  0.69425722  1
  O  O380  1  0.70969794  0.16785307  0.19276684  1
  O  O381  1  0.71155459  0.16534302  0.70107012  1
  O  O382  1  0.71534094  0.66113339  0.19090171  1
  O  O383  1  0.70973336  0.66625455  0.69720423  1
  O  O384  1  0.12405742  0.08268540  0.30221688  1
  O  O385  1  0.12709714  0.08228546  0.80736078  1
  O  O386  1  0.13367537  0.58226389  0.30688558  1
  O  O387  1  0.12494876  0.58142812  0.80378344  1
  O  O388  1  0.45435281  0.08712623  0.30535122  1
  O  O389  1  0.47286500  0.08450393  0.80932514  1
  O  O390  1  0.46029327  0.58198529  0.30840551  1
  O  O391  1  0.46038367  0.58247347  0.80375076  1
  O  O392  1  0.78994227  0.08320089  0.29929869  1
  O  O393  1  0.79010397  0.08132817  0.80710916  1
  O  O394  1  0.79189554  0.58609010  0.30499744  1
  O  O395  1  0.79041492  0.58288618  0.80614835  1
  O  O396  1  0.28603641  0.33335333  0.30602235  1
  O  O397  1  0.29013851  0.33389963  0.80074583  1
  O  O398  1  0.28537311  0.84353631  0.30713034  1
  O  O399  1  0.28829942  0.83077861  0.79892761  1
  O  O400  1  0.62214923  0.33209711  0.29810812  1
  O  O401  1  0.62267476  0.33480294  0.80496736  1
  O  O402  1  0.61876940  0.84398074  0.30862175  1
  O  O403  1  0.62234174  0.82999285  0.80704780  1
  O  O404  1  0.95405653  0.33249136  0.29791712  1
  O  O405  1  0.95655830  0.33133059  0.80029405  1
  O  O406  1  0.95853991  0.83362574  0.30143808  1
  O  O407  1  0.95505018  0.83084594  0.80042523  1
  O  O408  1  0.12146782  0.41822137  0.30514754  1
  O  O409  1  0.12258816  0.41635449  0.80782466  1
  O  O410  1  0.12046853  0.91773154  0.30128818  1
  O  O411  1  0.11979894  0.91985268  0.80898339  1
  O  O412  1  0.45417653  0.41581762  0.29836562  1
  O  O413  1  0.45814402  0.41685127  0.80679423  1
  O  O414  1  0.45434574  0.92055358  0.29987300  1
  O  O415  1  0.45769196  0.91679278  0.80140411  1
  O  O416  1  0.78755678  0.41684342  0.29892929  1
  O  O417  1  0.78569162  0.42157125  0.80852119  1
  O  O418  1  0.79032732  0.91166222  0.30711920  1
  O  O419  1  0.78766144  0.91543667  0.80846490  1
  O  O420  1  0.28708073  0.16806318  0.30373061  1
  O  O421  1  0.28821332  0.17362499  0.81053856  1
  O  O422  1  0.28665587  0.66746972  0.29785074  1
  O  O423  1  0.29213227  0.66176257  0.80423379  1
  O  O424  1  0.62458288  0.16525910  0.30372063  1
  O  O425  1  0.62595262  0.16912598  0.80661672  1
  O  O426  1  0.61990012  0.65897358  0.30390711  1
  O  O427  1  0.62491753  0.66443178  0.80529563  1
  O  O428  1  0.95965270  0.16433917  0.30638587  1
  O  O429  1  0.95585361  0.16217042  0.80959350  1
  O  O430  1  0.95482162  0.67356911  0.30203348  1
  O  O431  1  0.95601073  0.66414840  0.80779691  1
  F  F432  1  0.04504788  0.00200091  0.19774318  1
  F  F433  1  0.04458160  -0.00154123  0.70501231  1
  F  F434  1  0.04883826  0.48707248  0.19500958  1
  F  F435  1  0.04453533  0.49823281  0.70347826  1
  F  F436  1  0.37711011  0.00605645  0.19935399  1
  F  F437  1  0.38380959  -0.00758812  0.69659580  1
  F  F438  1  0.37767239  0.49996491  0.19933172  1
  F  F439  1  0.38039225  0.49736220  0.70297542  1
  F  F440  1  0.70436332  -0.00007654  0.19761916  1
  F  F441  1  0.71218840  -0.00257135  0.70430184  1
  F  F442  1  0.71014099  0.50005437  0.19909329  1
  F  F443  1  0.71145753  0.50123734  0.70253909  1
  F  F444  1  0.21066392  0.25062896  0.20074801  1
  F  F445  1  0.21241193  0.24960263  0.70222850  1
  F  F446  1  0.20952837  0.75918007  0.19214736  1
  F  F447  1  0.21424999  0.73861500  0.69553184  1
  F  F448  1  0.54266454  0.24791489  0.19912201  1
  F  F449  1  0.54710259  0.25089678  0.70364685  1
  F  F450  1  0.53270766  0.75233855  0.19708475  1
  F  F451  1  0.54818455  0.74738098  0.70311155  1
  F  F452  1  0.87754706  0.24638920  0.19925339  1
  F  F453  1  0.87933659  0.24369507  0.70051681  1
  F  F454  1  0.87934645  0.75159194  0.19590904  1
  F  F455  1  0.87553992  0.74742805  0.70205521  1
  F  F456  1  0.28549428  0.00450735  0.29538611  1
  F  F457  1  0.28450162  -0.01002897  0.80129350  1
  F  F458  1  0.28755812  0.49919442  0.29510124  1
  F  F459  1  0.28903505  0.49904132  0.79710842  1
  F  F460  1  0.62026098  0.00198507  0.29709556  1
  F  F461  1  0.62349469  -0.00020113  0.79787114  1
  F  F462  1  0.62081863  0.50090849  0.29410902  1
  F  F463  1  0.62209762  0.49988668  0.79828966  1
  F  F464  1  0.96022699  -0.00192520  0.29680289  1
  F  F465  1  0.95295431  0.00001682  0.79882836  1
  F  F466  1  0.94933566  0.49282576  0.29831811  1
  F  F467  1  0.95439299  0.50289426  0.79873830  1
  F  F468  1  0.12143635  0.24903456  0.29575856  1
  F  F469  1  0.12221710  0.25120349  0.80082375  1
  F  F470  1  0.11878458  0.75719308  0.29825810  1
  F  F471  1  0.12245679  0.74590293  0.79925597  1
  F  F472  1  0.45162674  0.24971541  0.29552161  1
  F  F473  1  0.45823071  0.25153371  0.80087986  1
  F  F474  1  0.46375149  0.75194748  0.30340678  1
  F  F475  1  0.45667822  0.74481041  0.79882137  1
  F  F476  1  0.78892176  0.24871476  0.29487077  1
  F  F477  1  0.78827799  0.24727480  0.80232036  1
  F  F478  1  0.79954644  0.75057797  0.29739123  1
  F  F479  1  0.78822544  0.74739255  0.80044910  1
