# generated using pymatgen
data_K24Na3Li5Mg64Fe17Si79(O5F)48
_symmetry_space_group_name_H-M   'P 1'
_cell_length_a   16.08828451
_cell_length_b   18.58567664
_cell_length_c   20.54882116
_cell_angle_alpha   90.01008650
_cell_angle_beta   100.00670229
_cell_angle_gamma   89.97723748
_symmetry_Int_Tables_number   1
_chemical_formula_structural   K24Na3Li5Mg64Fe17Si79(O5F)48
_chemical_formula_sum   'K24 Na3 Li5 Mg64 Fe17 Si79 O240 F48'
_cell_volume   6050.86534240
_cell_formula_units_Z   1
loop_
 _symmetry_equiv_pos_site_id
 _symmetry_equiv_pos_as_xyz
  1  'x, y, z'
loop_
 _atom_site_type_symbol
 _atom_site_label
 _atom_site_symmetry_multiplicity
 _atom_site_fract_x
 _atom_site_fract_y
 _atom_site_fract_z
 _atom_site_occupancy
  K  K0  1  0.00202041  0.00765387  0.00473295  1
  K  K1  1  0.01091443  0.00948951  0.49676412  1
  K  K2  1  0.01352438  0.48974582  0.00210873  1
  K  K3  1  0.00849535  0.50004326  0.48772668  1
  K  K4  1  0.33569173  0.00125491  0.00145948  1
  K  K5  1  0.33770385  0.00617454  0.50662999  1
  K  K6  1  0.32998664  0.49644491  0.00208294  1
  K  K7  1  0.31905209  0.48309297  0.48670617  1
  K  K8  1  0.66736709  -0.00219764  0.00122123  1
  K  K9  1  0.66041585  0.00790023  0.49477975  1
  K  K10  1  0.67278001  0.49914120  0.00161580  1
  K  K11  1  0.66218620  0.49416389  0.49662658  1
  K  K12  1  0.17930152  0.24644085  0.01156052  1
  K  K13  1  0.18601321  0.24226523  0.49531284  1
  K  K14  1  0.17394648  0.74977220  0.00303255  1
  K  K15  1  0.15973925  0.74917423  0.49297248  1
  K  K16  1  0.49351588  0.25008838  -0.00187704  1
  K  K17  1  0.48821056  0.24696710  0.49564859  1
  K  K18  1  0.50447995  0.75952392  0.00216714  1
  K  K19  1  0.49875422  0.75171746  0.50151383  1
  K  K20  1  0.82526211  0.24908163  0.00045777  1
  K  K21  1  0.83432833  0.24613059  0.49527885  1
  K  K22  1  0.82969872  0.74522309  0.00639872  1
  K  K23  1  0.83456235  0.75181672  0.49070119  1
  Na  Na24  1  0.16729002  0.49992200  0.25433201  1
  Na  Na25  1  0.16979014  0.16939723  0.24409089  1
  Na  Na26  1  -0.00272773  0.58035100  0.74937199  1
  Li  Li27  1  0.66764444  0.75453008  0.24760447  1
  Li  Li28  1  0.32371580  0.24970385  0.24813986  1
  Li  Li29  1  0.50374406  0.83672159  0.75713353  1
  Li  Li30  1  0.66565352  0.91195513  0.24821031  1
  Li  Li31  1  0.49904512  0.33264978  0.75053264  1
  Mg  Mg32  1  0.66706914  0.24992311  0.24877007  1
  Mg  Mg33  1  0.33606923  0.25006847  0.74806220  1
  Mg  Mg34  1  0.50099358  0.50020522  0.75107732  1
  Mg  Mg35  1  0.66329983  0.75068972  0.75258568  1
  Mg  Mg36  1  0.83479316  0.50051367  0.25092911  1
  Mg  Mg37  1  0.83103805  0.00221502  0.75178416  1
  Mg  Mg38  1  0.49753702  -0.00138736  0.75055378  1
  Mg  Mg39  1  0.16448990  0.50068593  0.74825770  1
  Mg  Mg40  1  -0.00041092  0.24882400  0.74764473  1
  Mg  Mg41  1  0.16775273  0.00079909  0.74542214  1
  Mg  Mg42  1  0.49998840  0.49915688  0.25022979  1
  Mg  Mg43  1  0.33582178  0.75164801  0.75209891  1
  Mg  Mg44  1  0.16834200  0.00093379  0.24762409  1
  Mg  Mg45  1  0.00225447  0.25034390  0.24745381  1
  Mg  Mg46  1  -0.00155716  0.74978386  0.25565961  1
  Mg  Mg47  1  0.50397324  -0.00100174  0.25212440  1
  Mg  Mg48  1  -0.00170160  0.74948761  0.74905351  1
  Mg  Mg49  1  0.83298682  0.49887566  0.75394120  1
  Mg  Mg50  1  0.82847017  -0.00324907  0.24751776  1
  Mg  Mg51  1  0.66196353  0.25240275  0.75297271  1
  Mg  Mg52  1  0.33511403  0.74960153  0.25069874  1
  Mg  Mg53  1  0.17024242  0.16518126  0.74560742  1
  Mg  Mg54  1  0.49630388  0.16700245  0.25256462  1
  Mg  Mg55  1  -0.00101866  0.91648370  0.74780124  1
  Mg  Mg56  1  0.16459380  0.66638756  0.74969867  1
  Mg  Mg57  1  -0.00044239  0.08326641  0.24496372  1
  Mg  Mg58  1  0.50314212  0.66942375  0.75297618  1
  Mg  Mg59  1  0.33112162  0.41329670  0.24991420  1
  Mg  Mg60  1  0.16741809  0.33297450  0.24784366  1
  Mg  Mg61  1  0.83261260  0.33422593  0.75138946  1
  Mg  Mg62  1  0.16833042  0.33418515  0.74895349  1
  Mg  Mg63  1  0.50327962  0.66802390  0.24988300  1
  Mg  Mg64  1  0.83352802  0.66562552  0.75175529  1
  Mg  Mg65  1  0.49784182  0.33279102  0.25034039  1
  Mg  Mg66  1  -0.00081325  0.41516745  0.74921834  1
  Mg  Mg67  1  0.33433545  0.58505063  0.75134531  1
  Mg  Mg68  1  0.33574952  0.08620725  0.24915267  1
  Mg  Mg69  1  0.83175557  0.16622277  0.75133335  1
  Mg  Mg70  1  0.66651650  0.41674464  0.75251869  1
  Mg  Mg71  1  0.82772921  0.83337484  0.25299399  1
  Mg  Mg72  1  0.00054363  0.08466371  0.74717244  1
  Mg  Mg73  1  0.16587341  0.66528475  0.25303453  1
  Mg  Mg74  1  0.66479972  0.08152051  0.25046552  1
  Mg  Mg75  1  0.00177688  0.41526991  0.24767026  1
  Mg  Mg76  1  0.66527997  0.08581021  0.75264427  1
  Mg  Mg77  1  0.49702217  0.16795772  0.75070690  1
  Mg  Mg78  1  0.83286161  0.33359788  0.24805097  1
  Mg  Mg79  1  0.33392333  0.08661475  0.74749580  1
  Mg  Mg80  1  0.00003222  0.58490553  0.25688133  1
  Mg  Mg81  1  0.33587315  0.41618018  0.74962651  1
  Mg  Mg82  1  0.33236942  0.58259007  0.24945549  1
  Mg  Mg83  1  0.33775059  0.91520125  0.74961281  1
  Mg  Mg84  1  0.66893515  0.58542310  0.75380664  1
  Mg  Mg85  1  0.83081308  0.66915784  0.25339799  1
  Mg  Mg86  1  0.50762422  0.83337357  0.24966842  1
  Mg  Mg87  1  0.33606725  0.91609317  0.25130912  1
  Mg  Mg88  1  -0.00149150  0.91569510  0.25098713  1
  Mg  Mg89  1  0.16706589  0.83391012  0.74847004  1
  Mg  Mg90  1  0.66717433  0.58568328  0.25120768  1
  Mg  Mg91  1  0.83178510  0.83493787  0.75065850  1
  Mg  Mg92  1  0.16717566  0.83417412  0.25085590  1
  Mg  Mg93  1  0.66721293  0.41533139  0.24768726  1
  Mg  Mg94  1  0.83192804  0.16462816  0.24729622  1
  Mg  Mg95  1  0.66461698  0.91594233  0.75353651  1
  Fe  Fe96  1  0.18983440  0.07986619  0.60372186  1
  Fe  Fe97  1  0.69511075  0.33224884  0.10904512  1
  Fe  Fe98  1  0.31159462  0.32714587  0.39120348  1
  Fe  Fe99  1  0.36299918  0.17064977  0.60472969  1
  Fe  Fe100  1  0.68815814  0.83246575  0.11198415  1
  Fe  Fe101  1  0.47416844  0.08237184  0.89084607  1
  Fe  Fe102  1  0.64894641  0.66338385  0.89274570  1
  Fe  Fe103  1  0.47839774  0.07702107  0.39120511  1
  Fe  Fe104  1  0.97207986  0.67177320  0.39477751  1
  Fe  Fe105  1  0.13783635  0.41020380  0.39311428  1
  Fe  Fe106  1  0.47981118  0.91148718  0.89131145  1
  Fe  Fe107  1  0.30133046  0.16797501  0.89011823  1
  Fe  Fe108  1  0.19703229  0.41689436  0.10586477  1
  Fe  Fe109  1  0.80609491  0.08760479  0.89098443  1
  Fe  Fe110  1  0.02609481  0.33229304  0.10563702  1
  Fe  Fe111  1  0.81634815  0.41357666  0.89116595  1
  Fe  Fe112  1  0.19309226  0.08094003  0.10670672  1
  Si  Si113  1  0.52069097  0.92159639  0.11474005  1
  Si  Si114  1  0.35845033  0.83046831  0.61456732  1
  Si  Si115  1  0.02273415  0.66767318  0.11800646  1
  Si  Si116  1  0.02030467  0.66630934  0.61459828  1
  Si  Si117  1  0.68817782  0.66300498  0.11551489  1
  Si  Si118  1  0.36501360  0.16901073  0.11306209  1
  Si  Si119  1  0.52352431  0.58059081  0.11613602  1
  Si  Si120  1  0.85512152  0.41655798  0.61283809  1
  Si  Si121  1  0.02510676  0.83111859  0.11797931  1
  Si  Si122  1  0.36866724  0.33554972  0.11278631  1
  Si  Si123  1  0.30972184  0.83328256  0.38640521  1
  Si  Si124  1  0.81234108  0.91766559  0.88766134  1
  Si  Si125  1  0.35878542  0.66509404  0.61455209  1
  Si  Si126  1  0.86391266  0.42188528  0.11340822  1
  Si  Si127  1  0.30251347  0.83148208  0.88728443  1
  Si  Si128  1  0.85713159  0.91866632  0.61341354  1
  Si  Si129  1  0.30834610  0.33915283  0.88633544  1
  Si  Si130  1  0.48231718  0.90728993  0.38940668  1
  Si  Si131  1  0.69392840  0.16687670  0.61466859  1
  Si  Si132  1  0.97202109  0.16157385  0.38301621  1
  Si  Si133  1  0.85912274  0.08506654  0.61302362  1
  Si  Si134  1  0.47296210  0.58573188  0.88829250  1
  Si  Si135  1  0.13939179  0.58409073  0.88407760  1
  Si  Si136  1  0.18825706  0.90736569  0.60930601  1
  Si  Si137  1  0.80500140  0.08362154  0.38487459  1
  Si  Si138  1  0.47708953  0.42069636  0.38746266  1
  Si  Si139  1  0.13767178  0.91630316  0.88207958  1
  Si  Si140  1  0.64013895  0.33680081  0.38504137  1
  Si  Si141  1  0.52680502  0.58544216  0.61475185  1
  Si  Si142  1  0.02230040  0.17036593  0.60874617  1
  Si  Si143  1  0.14325322  0.58827344  0.39367178  1
  Si  Si144  1  0.64527757  0.82623915  0.38466456  1
  Si  Si145  1  0.31080300  0.15788364  0.38716249  1
  Si  Si146  1  0.19195077  0.59193980  0.11290632  1
  Si  Si147  1  0.36182729  0.66885276  0.11517792  1
  Si  Si148  1  0.13970604  0.41880545  0.88342013  1
  Si  Si149  1  0.65261944  0.83063981  0.88909866  1
  Si  Si150  1  0.13877734  0.08270189  0.38135433  1
  Si  Si151  1  0.13308285  0.08098242  0.88296721  1
  Si  Si152  1  0.97446282  0.84307087  0.39092122  1
  Si  Si153  1  0.36078227  0.83328159  0.11617825  1
  Si  Si154  1  0.52619256  0.91458770  0.61621873  1
  Si  Si155  1  0.69211035  0.83412035  0.61461789  1
  Si  Si156  1  0.80458131  0.91979589  0.38616236  1
  Si  Si157  1  0.47281597  0.42060466  0.88382098  1
  Si  Si158  1  0.14442525  0.91924263  0.38552652  1
  Si  Si159  1  0.85249359  0.58149736  0.61451575  1
  Si  Si160  1  0.86072865  0.91221994  0.11409821  1
  Si  Si161  1  0.64163922  0.66338201  0.38585457  1
  Si  Si162  1  0.97557618  0.67218147  0.88511917  1
  Si  Si163  1  0.18923869  0.42064389  0.61426967  1
  Si  Si164  1  0.80505184  0.57978380  0.39017347  1
  Si  Si165  1  0.97588545  0.16620451  0.88271156  1
  Si  Si166  1  0.47633914  0.58692704  0.38541915  1
  Si  Si167  1  0.52579403  0.08452034  0.11656463  1
  Si  Si168  1  0.30395388  0.66458119  0.88571183  1
  Si  Si169  1  0.52828735  0.42204844  0.61508663  1
  Si  Si170  1  0.98217027  0.32557151  0.88428124  1
  Si  Si171  1  0.19037585  0.90939293  0.11267248  1
  Si  Si172  1  0.80574020  0.41493689  0.38545963  1
  Si  Si173  1  0.52907503  0.41850124  0.11358743  1
  Si  Si174  1  0.68996618  0.16093903  0.11269884  1
  Si  Si175  1  0.97402439  0.83405862  0.88423670  1
  Si  Si176  1  0.53263913  0.08024333  0.61242199  1
  Si  Si177  1  0.02240804  0.33674631  0.61278255  1
  Si  Si178  1  0.69261303  0.66878254  0.61435186  1
  Si  Si179  1  0.31007314  0.66726590  0.38690001  1
  Si  Si180  1  0.82000111  0.58156721  0.89121364  1
  Si  Si181  1  0.35820910  0.34294211  0.61252758  1
  Si  Si182  1  0.64391852  0.17164057  0.38780555  1
  Si  Si183  1  0.01378701  0.16495212  0.10786344  1
  Si  Si184  1  0.68911338  0.33207494  0.61357977  1
  Si  Si185  1  0.85629922  0.58573874  0.11833812  1
  Si  Si186  1  0.63570175  0.17421084  0.88886887  1
  Si  Si187  1  0.63935284  0.33959700  0.88605021  1
  Si  Si188  1  0.01997248  0.82957225  0.61272338  1
  Si  Si189  1  0.85566138  0.07752423  0.11388864  1
  Si  Si190  1  0.96630984  0.32766489  0.38754152  1
  Si  Si191  1  0.18871925  0.58693304  0.61384231  1
  O  O192  1  0.28698196  0.12102788  0.07528724  1
  O  O193  1  0.27166583  0.11757572  0.56227912  1
  O  O194  1  0.27113109  0.63222672  0.08293562  1
  O  O195  1  0.26729465  0.62598340  0.58497346  1
  O  O196  1  0.61153496  0.10488558  0.08735581  1
  O  O197  1  0.61717757  0.11251019  0.58510669  1
  O  O198  1  0.60890310  0.60564580  0.08885606  1
  O  O199  1  0.59975761  0.63245111  0.58527994  1
  O  O200  1  0.93460354  0.10683596  0.08173510  1
  O  O201  1  0.93325415  0.12512754  0.58134332  1
  O  O202  1  0.93903706  0.61861118  0.08967122  1
  O  O203  1  0.93517830  0.61757477  0.58879769  1
  O  O204  1  0.11168676  0.35985161  0.06114065  1
  O  O205  1  0.10159512  0.37593964  0.58539753  1
  O  O206  1  0.10996748  0.85324403  0.08851887  1
  O  O207  1  0.10315111  0.85584508  0.58339077  1
  O  O208  1  0.45559318  0.36052914  0.08446657  1
  O  O209  1  0.43454274  0.39019798  0.58649835  1
  O  O210  1  0.43401866  0.87451221  0.08540015  1
  O  O211  1  0.43605561  0.87258425  0.58667930  1
  O  O212  1  0.79098046  0.36643960  0.07924958  1
  O  O213  1  0.76792533  0.37095101  0.58345871  1
  O  O214  1  0.78738098  0.85990368  0.07836189  1
  O  O215  1  0.76800718  0.87646975  0.58433503  1
  O  O216  1  0.29533168  0.38684232  0.07386799  1
  O  O217  1  0.26984236  0.38951759  0.58507673  1
  O  O218  1  0.26963299  0.86944363  0.08508193  1
  O  O219  1  0.26717450  0.86658614  0.58096102  1
  O  O220  1  0.61085093  0.40151155  0.08054804  1
  O  O221  1  0.60178780  0.37653873  0.58382637  1
  O  O222  1  0.59576966  0.89332583  0.07876871  1
  O  O223  1  0.60058012  0.87080518  0.58433309  1
  O  O224  1  0.94853367  0.40827130  0.08330032  1
  O  O225  1  0.93496999  0.38178848  0.58288743  1
  O  O226  1  0.94992936  0.88766496  0.08874584  1
  O  O227  1  0.93529401  0.87887892  0.58425560  1
  O  O228  1  0.09373050  0.13420690  0.07712276  1
  O  O229  1  0.09151101  0.13602027  0.57080252  1
  O  O230  1  0.10543513  0.64200147  0.08662877  1
  O  O231  1  0.10104072  0.63167868  0.58515042  1
  O  O232  1  0.45242733  0.14198966  0.08655372  1
  O  O233  1  0.45561462  0.12689447  0.57434083  1
  O  O234  1  0.44100468  0.63144770  0.08653858  1
  O  O235  1  0.43447126  0.62262208  0.58495714  1
  O  O236  1  0.77164200  0.12520865  0.08539819  1
  O  O237  1  0.77423812  0.13219190  0.58446277  1
  O  O238  1  0.77356995  0.63458360  0.08734601  1
  O  O239  1  0.76619142  0.62656666  0.58168590  1
  O  O240  1  0.05875814  0.11709080  0.41249178  1
  O  O241  1  0.04185055  0.09934236  0.90617675  1
  O  O242  1  0.07579614  0.62996452  0.43165092  1
  O  O243  1  0.05946212  0.62181708  0.91130888  1
  O  O244  1  0.37921371  0.09822840  0.42235363  1
  O  O245  1  0.37962475  0.10189274  0.92783980  1
  O  O246  1  0.39811667  0.62392154  0.41603244  1
  O  O247  1  0.38549691  0.61401026  0.91416456  1
  O  O248  1  0.73658355  0.13218961  0.41634389  1
  O  O249  1  0.71108075  0.12034823  0.92323033  1
  O  O250  1  0.71782725  0.60710000  0.41646001  1
  O  O251  1  0.73881093  0.60044943  0.92502707  1
  O  O252  1  0.23059679  0.36201461  0.43753513  1
  O  O253  1  0.22801052  0.37876885  0.91319285  1
  O  O254  1  0.23030642  0.87162437  0.41481838  1
  O  O255  1  0.21450962  0.86091294  0.91163100  1
  O  O256  1  0.56555407  0.37609531  0.41691736  1
  O  O257  1  0.55210166  0.36736738  0.91222504  1
  O  O258  1  0.56310130  0.85261243  0.41756822  1
  O  O259  1  0.56943685  0.84683790  0.92085592  1
  O  O260  1  0.88123448  0.35904535  0.41534017  1
  O  O261  1  0.90214128  0.34433841  0.91864440  1
  O  O262  1  0.89902572  0.88876401  0.41920714  1
  O  O263  1  0.89013932  0.85890027  0.91297456  1
  O  O264  1  0.04306830  0.37347890  0.42757997  1
  O  O265  1  0.06022677  0.38224677  0.91021347  1
  O  O266  1  0.06469449  0.88667496  0.41684879  1
  O  O267  1  0.05374330  0.88793833  0.91111100  1
  O  O268  1  0.40604451  0.38836678  0.42449709  1
  O  O269  1  0.38924943  0.39300605  0.91263294  1
  O  O270  1  0.39891520  0.87267234  0.41728867  1
  O  O271  1  0.38103356  0.87682715  0.92417060  1
  O  O272  1  0.72367887  0.38531696  0.41530141  1
  O  O273  1  0.71438786  0.39279321  0.92058390  1
  O  O274  1  0.73114237  0.87373743  0.41583372  1
  O  O275  1  0.72777141  0.89163176  0.91507848  1
  O  O276  1  0.21859363  0.13350723  0.40875989  1
  O  O277  1  0.20028204  0.13797337  0.91848602  1
  O  O278  1  0.23554818  0.63086133  0.41960124  1
  O  O279  1  0.22444990  0.62966160  0.91642667  1
  O  O280  1  0.57401329  0.13585051  0.42508001  1
  O  O281  1  0.54999350  0.15865757  0.91703630  1
  O  O282  1  0.55870821  0.63657970  0.41737204  1
  O  O283  1  0.54846703  0.63666578  0.92360109  1
  O  O284  1  0.89837655  0.11770995  0.41459994  1
  O  O285  1  0.89391802  0.15449823  0.91659007  1
  O  O286  1  0.88197160  0.62769300  0.42859624  1
  O  O287  1  0.89532297  0.64344877  0.91643579  1
  O  O288  1  0.17041823  -0.01579527  0.07409915  1
  O  O289  1  0.16831467  -0.01694782  0.57240959  1
  O  O290  1  0.17745194  0.51571075  0.07628445  1
  O  O291  1  0.17480698  0.50423431  0.58582332  1
  O  O292  1  0.49500349  0.00436791  0.08935767  1
  O  O293  1  0.52249166  -0.00425496  0.58419285  1
  O  O294  1  0.49565342  0.50028894  0.08777769  1
  O  O295  1  0.53021028  0.50440367  0.58311320  1
  O  O296  1  0.83951920  -0.00521643  0.08645688  1
  O  O297  1  0.84813621  0.00153697  0.58382480  1
  O  O298  1  0.83354291  0.50527165  0.08944487  1
  O  O299  1  0.84054958  0.49923725  0.58346246  1
  O  O300  1  -0.01750810  0.24165343  0.07475639  1
  O  O301  1  0.00464471  0.25500164  0.58319641  1
  O  O302  1  -0.00086258  0.74984077  0.08930495  1
  O  O303  1  -0.00116981  0.74762322  0.58341959  1
  O  O304  1  0.35177116  0.25236199  0.08585594  1
  O  O305  1  0.35227161  0.26737779  0.57438351  1
  O  O306  1  0.35617845  0.75111305  0.08580111  1
  O  O307  1  0.35670169  0.74726918  0.58400918  1
  O  O308  1  0.66828853  0.23790804  0.07735483  1
  O  O309  1  0.67997573  0.24928002  0.58339629  1
  O  O310  1  0.66001526  0.73818006  0.07951121  1
  O  O311  1  0.68927665  0.75148767  0.58460556  1
  O  O312  1  0.15799093  0.00123796  0.41473906  1
  O  O313  1  0.15788778  -0.00230057  0.90998233  1
  O  O314  1  0.15483314  0.50774473  0.42330439  1
  O  O315  1  0.14779704  0.50174088  0.91308671  1
  O  O316  1  0.50642041  -0.01697305  0.42543290  1
  O  O317  1  0.51694997  -0.00258258  0.93017254  1
  O  O318  1  0.49592750  0.50540873  0.41457706  1
  O  O319  1  0.49097655  0.50229791  0.91526530  1
  O  O320  1  0.80095549  0.00224037  0.41625631  1
  O  O321  1  0.84347994  -0.00583215  0.92021655  1
  O  O322  1  0.82294372  0.49591553  0.41732764  1
  O  O323  1  0.86049890  0.50499068  0.91791207  1
  O  O324  1  0.33580030  0.23406215  0.42442631  1
  O  O325  1  0.32639412  0.26312223  0.92267782  1
  O  O326  1  0.31966987  0.75052222  0.41606360  1
  O  O327  1  0.31294390  0.74675656  0.91494564  1
  O  O328  1  0.65872011  0.25566467  0.41550084  1
  O  O329  1  0.66342525  0.25766972  0.91315527  1
  O  O330  1  0.66684909  0.74423243  0.41617658  1
  O  O331  1  0.69254125  0.75415406  0.91822383  1
  O  O332  1  0.97385336  0.24267198  0.41445531  1
  O  O333  1  1.01993518  0.24456270  0.90556138  1
  O  O334  1  0.98201563  0.76695252  0.42917067  1
  O  O335  1  1.00111836  0.75369261  0.91480092  1
  O  O336  1  0.21907286  0.07188928  0.19641982  1
  O  O337  1  0.20851373  0.08137911  0.69582273  1
  O  O338  1  0.21397374  0.59449365  0.19301286  1
  O  O339  1  0.20869961  0.58619395  0.69416168  1
  O  O340  1  0.54565333  0.08482429  0.19695646  1
  O  O341  1  0.54779297  0.08171935  0.69288685  1
  O  O342  1  0.54196494  0.58313242  0.19664309  1
  O  O343  1  0.54262931  0.58445652  0.69469164  1
  O  O344  1  0.87364191  0.07970439  0.19463440  1
  O  O345  1  0.87760855  0.08320183  0.69299355  1
  O  O346  1  0.87420102  0.58638060  0.19877756  1
  O  O347  1  0.86371012  0.58196502  0.69369290  1
  O  O348  1  0.04107130  0.33203389  0.19751896  1
  O  O349  1  0.04116164  0.33419241  0.69313035  1
  O  O350  1  0.04326018  0.83171708  0.19871858  1
  O  O351  1  0.03926328  0.83252374  0.69320409  1
  O  O352  1  0.38506827  0.34105050  0.19260691  1
  O  O353  1  0.37171248  0.33836525  0.69246807  1
  O  O354  1  0.37688965  0.83214612  0.19664520  1
  O  O355  1  0.36895348  0.82996059  0.69355613  1
  O  O356  1  0.71190661  0.33254250  0.20117792  1
  O  O357  1  0.70830475  0.33279827  0.69333121  1
  O  O358  1  0.71333550  0.83319932  0.20065706  1
  O  O359  1  0.71128879  0.83427525  0.69463834  1
  O  O360  1  0.21573058  0.41544100  0.19532642  1
  O  O361  1  0.20842254  0.41914816  0.69468551  1
  O  O362  1  0.21003001  0.91169226  0.19375815  1
  O  O363  1  0.20667256  0.91139374  0.69027041  1
  O  O364  1  0.54601292  0.41852662  0.19486034  1
  O  O365  1  0.54860076  0.42403797  0.69438880  1
  O  O366  1  0.53818140  0.91705990  0.19495148  1
  O  O367  1  0.54723247  0.91664732  0.69531176  1
  O  O368  1  0.87568762  0.41847990  0.19529706  1
  O  O369  1  0.87544959  0.41544814  0.69269346  1
  O  O370  1  0.87753242  0.91352757  0.19523935  1
  O  O371  1  0.87542027  0.91707313  0.69370135  1
  O  O372  1  0.02807110  0.16479211  0.18854873  1
  O  O373  1  0.04103386  0.16725841  0.68976344  1
  O  O374  1  0.04399743  0.66865056  0.19823289  1
  O  O375  1  0.04515340  0.67281550  0.69355416  1
  O  O376  1  0.38059528  0.16454453  0.19290871  1
  O  O377  1  0.37779129  0.16882627  0.69606112  1
  O  O378  1  0.37786787  0.66745809  0.19563066  1
  O  O379  1  0.37561835  0.66560283  0.69478885  1
  O  O380  1  0.70933598  0.16481354  0.19403163  1
  O  O381  1  0.71055805  0.16925149  0.69451893  1
  O  O382  1  0.71020343  0.66281392  0.19594293  1
  O  O383  1  0.71163753  0.66739944  0.69427340  1
  O  O384  1  0.11493249  0.07447176  0.30267417  1
  O  O385  1  0.11960775  0.08118742  0.80165219  1
  O  O386  1  0.12044187  0.59506973  0.31344845  1
  O  O387  1  0.13081653  0.58396022  0.80479929  1
  O  O388  1  0.45868931  0.08013251  0.30009091  1
  O  O389  1  0.45485543  0.08176597  0.79756977  1
  O  O390  1  0.45833058  0.58702732  0.30528367  1
  O  O391  1  0.45594365  0.58555515  0.80680849  1
  O  O392  1  0.78888093  0.08305431  0.30491784  1
  O  O393  1  0.78764863  0.08435393  0.79846473  1
  O  O394  1  0.78956674  0.58260485  0.30955157  1
  O  O395  1  0.79513969  0.58495032  0.80907226  1
  O  O396  1  0.28910799  0.33450722  0.30162555  1
  O  O397  1  0.28888507  0.33711415  0.80498121  1
  O  O398  1  0.29127862  0.83236383  0.30604355  1
  O  O399  1  0.28684218  0.83164243  0.80605785  1
  O  O400  1  0.62301545  0.33565002  0.30514467  1
  O  O401  1  0.62530330  0.33757167  0.80554144  1
  O  O402  1  0.62254526  0.82919605  0.30635227  1
  O  O403  1  0.63335221  0.83307456  0.80789103  1
  O  O404  1  0.95019251  0.33060792  0.30713059  1
  O  O405  1  0.95889600  0.33048492  0.80271938  1
  O  O406  1  0.95745657  0.83733780  0.31023938  1
  O  O407  1  0.95634518  0.83431506  0.80326642  1
  O  O408  1  0.11517525  0.40896478  0.30397637  1
  O  O409  1  0.12321474  0.41792518  0.80275642  1
  O  O410  1  0.12463790  0.91526703  0.30526366  1
  O  O411  1  0.12057396  0.91515853  0.80114762  1
  O  O412  1  0.46119848  0.41894876  0.30687672  1
  O  O413  1  0.45414930  0.42335159  0.80393200  1
  O  O414  1  0.46019352  0.91047882  0.30877505  1
  O  O415  1  0.45392009  0.91675407  0.79991434  1
  O  O416  1  0.78961231  0.41769908  0.30546518  1
  O  O417  1  0.78872110  0.41548461  0.79880436  1
  O  O418  1  0.79385875  0.91881471  0.30722051  1
  O  O419  1  0.79382962  0.91705180  0.80591527  1
  O  O420  1  0.30146484  0.16135261  0.30818990  1
  O  O421  1  0.28646618  0.16947488  0.79791860  1
  O  O422  1  0.29205960  0.66776197  0.30654527  1
  O  O423  1  0.28759952  0.66605203  0.80501724  1
  O  O424  1  0.62643145  0.16810803  0.30729182  1
  O  O425  1  0.62332690  0.16897860  0.80690326  1
  O  O426  1  0.62110437  0.66199531  0.30653074  1
  O  O427  1  0.62371146  0.66582849  0.80039292  1
  O  O428  1  0.95337701  0.16266747  0.30302322  1
  O  O429  1  0.95590326  0.16581829  0.80085952  1
  O  O430  1  0.95355845  0.66872455  0.30345367  1
  O  O431  1  0.95329779  0.67503967  0.80553976  1
  F  F432  1  0.04383582  -0.00510548  0.20003979  1
  F  F433  1  0.04253690  -0.00160808  0.69765040  1
  F  F434  1  0.03155245  0.50647189  0.20320933  1
  F  F435  1  0.04814459  0.49125712  0.69593246  1
  F  F436  1  0.38128198  -0.00604190  0.20355404  1
  F  F437  1  0.37512853  -0.00271698  0.69593736  1
  F  F438  1  0.38179419  0.50368396  0.20161039  1
  F  F439  1  0.37810481  0.50403763  0.70108307  1
  F  F440  1  0.71240899  0.00399510  0.20051905  1
  F  F441  1  0.71217663  -0.00322129  0.70077491  1
  F  F442  1  0.71277279  0.50181289  0.20441355  1
  F  F443  1  0.71070009  0.50344886  0.70251844  1
  F  F444  1  0.21120663  0.25978736  0.19193226  1
  F  F445  1  0.20945293  0.25492717  0.69746724  1
  F  F446  1  0.21274461  0.75045228  0.20470009  1
  F  F447  1  0.21187895  0.74870585  0.70220079  1
  F  F448  1  0.54725099  0.24981234  0.20324209  1
  F  F449  1  0.54814939  0.24726144  0.70023454  1
  F  F450  1  0.53725507  0.74871455  0.19903538  1
  F  F451  1  0.54599345  0.74777016  0.69914128  1
  F  F452  1  0.87573231  0.24869255  0.20268981  1
  F  F453  1  0.87657995  0.25012121  0.69982140  1
  F  F454  1  0.87933451  0.75301144  0.20460431  1
  F  F455  1  0.87703444  0.75128422  0.69943345  1
  F  F456  1  0.28736567  -0.00897016  0.30126273  1
  F  F457  1  0.28499123  -0.00510271  0.79450012  1
  F  F458  1  0.30507317  0.50340459  0.30389971  1
  F  F459  1  0.28657358  0.50164140  0.79579968  1
  F  F460  1  0.62245847  0.00280087  0.30185510  1
  F  F461  1  0.62254945  0.00083392  0.79752942  1
  F  F462  1  0.62216446  0.49990447  0.29850502  1
  F  F463  1  0.62146204  0.50286791  0.79911721  1
  F  F464  1  0.95224244  -0.00063904  0.29631938  1
  F  F465  1  0.95490768  -0.00064951  0.79402668  1
  F  F466  1  0.95180251  0.50041894  0.30302463  1
  F  F467  1  0.95219100  0.48991754  0.79946926  1
  F  F468  1  0.11513520  0.25253188  0.30175503  1
  F  F469  1  0.12059094  0.25009505  0.79206545  1
  F  F470  1  0.12341380  0.75272325  0.30128529  1
  F  F471  1  0.12035068  0.75123056  0.79743728  1
  F  F472  1  0.46648856  0.25184608  0.30260522  1
  F  F473  1  0.45353626  0.25290200  0.79704763  1
  F  F474  1  0.45460355  0.74920770  0.29963905  1
  F  F475  1  0.45088494  0.74506535  0.80015326  1
  F  F476  1  0.78845154  0.24619485  0.29948709  1
  F  F477  1  0.78689914  0.25084693  0.79613709  1
  F  F478  1  0.79587058  0.74960989  0.30600245  1
  F  F479  1  0.78907772  0.75083999  0.79537849  1
