# generated using pymatgen
data_K24Na3Li5Mg64Fe17Si79(O5F)48
_symmetry_space_group_name_H-M   'P 1'
_cell_length_a   16.10885889
_cell_length_b   18.63087175
_cell_length_c   20.58832752
_cell_angle_alpha   89.97446819
_cell_angle_beta   100.07090119
_cell_angle_gamma   90.02819911
_symmetry_Int_Tables_number   1
_chemical_formula_structural   K24Na3Li5Mg64Fe17Si79(O5F)48
_chemical_formula_sum   'K24 Na3 Li5 Mg64 Fe17 Si79 O240 F48'
_cell_volume   6083.80512745
_cell_formula_units_Z   1
loop_
 _symmetry_equiv_pos_site_id
 _symmetry_equiv_pos_as_xyz
  1  'x, y, z'
loop_
 _atom_site_type_symbol
 _atom_site_label
 _atom_site_symmetry_multiplicity
 _atom_site_fract_x
 _atom_site_fract_y
 _atom_site_fract_z
 _atom_site_occupancy
  K  K0  1  -0.00313441  -0.01160066  -0.00889420  1
  K  K1  1  0.00098102  -0.00335658  0.50546610  1
  K  K2  1  0.01200525  0.51087686  0.00366997  1
  K  K3  1  -0.00427143  0.51557970  0.49672265  1
  K  K4  1  0.32437894  -0.01532369  -0.00119534  1
  K  K5  1  0.33559632  -0.01443820  0.49455812  1
  K  K6  1  0.33143657  0.51263153  0.00479427  1
  K  K7  1  0.32358544  0.50933642  0.49816117  1
  K  K8  1  0.66263131  -0.01050550  0.00051486  1
  K  K9  1  0.66869207  -0.00343964  0.49823769  1
  K  K10  1  0.66950029  0.51212833  0.00843737  1
  K  K11  1  0.66932890  0.50469514  0.48745843  1
  K  K12  1  0.16678647  0.23909074  0.00639301  1
  K  K13  1  0.16395251  0.24591974  0.50188241  1
  K  K14  1  0.15472655  0.76072836  0.00201828  1
  K  K15  1  0.17237637  0.75833414  0.50231485  1
  K  K16  1  0.49720062  0.23718252  0.00705971  1
  K  K17  1  0.50456280  0.23583284  0.49663158  1
  K  K18  1  0.48967888  0.76204201  0.00427445  1
  K  K19  1  0.49426750  0.76189530  0.49704661  1
  K  K20  1  0.84252148  0.23859165  0.00731872  1
  K  K21  1  0.83353209  0.23494596  0.49768745  1
  K  K22  1  0.83150687  0.75862282  0.00686832  1
  K  K23  1  0.83111845  0.74567542  0.49184228  1
  Na  Na24  1  0.84007104  -0.00071759  0.75457289  1
  Na  Na25  1  0.00012863  0.92238339  0.75087478  1
  Na  Na26  1  0.33301713  0.92108579  0.25007223  1
  Li  Li27  1  0.16257345  -0.00397911  0.74650622  1
  Li  Li28  1  0.50137445  0.50256768  0.25083782  1
  Li  Li29  1  0.16419680  0.67340390  0.74688606  1
  Li  Li30  1  0.33480555  0.07721689  0.25311165  1
  Li  Li31  1  0.49655747  0.83585636  0.25317120  1
  Mg  Mg32  1  0.83503135  0.50099245  0.74887543  1
  Mg  Mg33  1  0.16727801  0.50032885  0.24459685  1
  Mg  Mg34  1  0.66867939  0.25059388  0.75243418  1
  Mg  Mg35  1  0.33588744  0.24801183  0.24936372  1
  Mg  Mg36  1  0.00079720  0.24964297  0.74737416  1
  Mg  Mg37  1  0.33430178  0.75177857  0.24916287  1
  Mg  Mg38  1  0.83255818  -0.00092100  0.25109619  1
  Mg  Mg39  1  0.83245898  0.50215542  0.25058270  1
  Mg  Mg40  1  -0.00147658  0.75004951  0.24693021  1
  Mg  Mg41  1  0.16934120  -0.00064269  0.24993848  1
  Mg  Mg42  1  0.66521574  0.75076708  0.75205367  1
  Mg  Mg43  1  0.00064846  0.24776475  0.24604335  1
  Mg  Mg44  1  0.33153984  0.75178762  0.75119500  1
  Mg  Mg45  1  0.00138209  0.75411188  0.74864694  1
  Mg  Mg46  1  0.66484105  0.24875516  0.25408995  1
  Mg  Mg47  1  0.16749425  0.50232323  0.74445768  1
  Mg  Mg48  1  0.49855099  0.50006274  0.75025097  1
  Mg  Mg49  1  0.49687753  -0.00058161  0.25278505  1
  Mg  Mg50  1  0.33314315  0.24990445  0.75002992  1
  Mg  Mg51  1  0.66276198  0.75080580  0.25368667  1
  Mg  Mg52  1  0.50084403  -0.00137308  0.75148534  1
  Mg  Mg53  1  0.17071585  0.16327546  0.24917863  1
  Mg  Mg54  1  -0.00232527  0.58520557  0.24474268  1
  Mg  Mg55  1  0.50004524  0.16352922  0.25511070  1
  Mg  Mg56  1  0.16685995  0.83381273  0.74954329  1
  Mg  Mg57  1  0.33350468  0.08206598  0.75529185  1
  Mg  Mg58  1  0.49866755  0.66702479  0.25019684  1
  Mg  Mg59  1  0.66483333  0.41822472  0.25421853  1
  Mg  Mg60  1  0.00424719  0.08297743  0.75325488  1
  Mg  Mg61  1  0.66459535  0.91572385  0.25529585  1
  Mg  Mg62  1  0.49873691  0.83607604  0.75217326  1
  Mg  Mg63  1  0.83213036  0.33406685  0.24962316  1
  Mg  Mg64  1  0.83088368  0.83301940  0.75135726  1
  Mg  Mg65  1  0.50097470  0.16630297  0.75439104  1
  Mg  Mg66  1  0.83301806  0.16454832  0.25131490  1
  Mg  Mg67  1  0.00093232  0.91471539  0.24940871  1
  Mg  Mg68  1  0.00358064  0.58649152  0.74726863  1
  Mg  Mg69  1  0.16630541  0.33594873  0.74560895  1
  Mg  Mg70  1  0.16445433  0.83486988  0.24742625  1
  Mg  Mg71  1  0.83274522  0.66551507  0.74776483  1
  Mg  Mg72  1  0.66573966  0.58333119  0.74887461  1
  Mg  Mg73  1  0.66903438  0.91530345  0.74743617  1
  Mg  Mg74  1  0.00168784  0.41670431  0.74717224  1
  Mg  Mg75  1  0.66993147  0.08394250  0.75343760  1
  Mg  Mg76  1  0.16658625  0.16483496  0.75085549  1
  Mg  Mg77  1  0.33217775  0.91581001  0.75480341  1
  Mg  Mg78  1  0.50129898  0.33564975  0.25216597  1
  Mg  Mg79  1  0.16890671  0.33256773  0.24543380  1
  Mg  Mg80  1  0.16542413  0.66464789  0.24283106  1
  Mg  Mg81  1  -0.00085841  0.41507305  0.24501454  1
  Mg  Mg82  1  -0.00069581  0.08255950  0.24899932  1
  Mg  Mg83  1  0.32828364  0.58611383  0.74515248  1
  Mg  Mg84  1  0.66721414  0.41659873  0.75149161  1
  Mg  Mg85  1  0.83607975  0.16581910  0.75181398  1
  Mg  Mg86  1  0.66616863  0.58402475  0.25270912  1
  Mg  Mg87  1  0.83503114  0.33564272  0.75076931  1
  Mg  Mg88  1  0.66730031  0.08470919  0.25522345  1
  Mg  Mg89  1  0.33633512  0.41769220  0.24593308  1
  Mg  Mg90  1  0.49721457  0.66627120  0.74811354  1
  Mg  Mg91  1  0.49919471  0.33424632  0.75068226  1
  Mg  Mg92  1  0.83420604  0.66402407  0.24908149  1
  Mg  Mg93  1  0.83290343  0.83410619  0.25265590  1
  Mg  Mg94  1  0.33375154  0.58281412  0.24448862  1
  Mg  Mg95  1  0.33012991  0.41664160  0.74632433  1
  Fe  Fe96  1  0.13698169  0.91853494  0.88811811  1
  Fe  Fe97  1  0.14267301  0.92226440  0.38970295  1
  Fe  Fe98  1  0.81115432  0.91309763  0.39125845  1
  Fe  Fe99  1  0.98446906  0.66925977  0.38808989  1
  Fe  Fe100  1  0.85129683  0.08444468  0.11055839  1
  Fe  Fe101  1  0.19564985  0.58352912  0.10535566  1
  Fe  Fe102  1  0.85715421  0.90771463  0.60566990  1
  Fe  Fe103  1  0.69077859  0.82394828  0.60922021  1
  Fe  Fe104  1  0.85690746  0.08272214  0.61144684  1
  Fe  Fe105  1  0.64036399  0.16242450  0.39450717  1
  Fe  Fe106  1  0.80798059  0.58627115  0.39189666  1
  Fe  Fe107  1  0.85445076  0.57786098  0.10607387  1
  Fe  Fe108  1  0.19191252  0.41702730  0.60551196  1
  Fe  Fe109  1  0.02031307  0.83815307  0.10691253  1
  Fe  Fe110  1  0.80349817  0.91576631  0.89334426  1
  Fe  Fe111  1  0.47031368  0.91731102  0.89217174  1
  Fe  Fe112  1  0.36267688  0.83716379  0.61195328  1
  Si  Si113  1  0.02793538  0.16491777  0.61406080  1
  Si  Si114  1  0.84681695  0.91676579  0.11251460  1
  Si  Si115  1  0.03299895  0.83325828  0.61187133  1
  Si  Si116  1  0.52662671  0.91911514  0.11865527  1
  Si  Si117  1  0.30402180  0.82633990  0.38515828  1
  Si  Si118  1  0.97657150  0.33742685  0.88541929  1
  Si  Si119  1  0.81128686  0.41397186  0.38737887  1
  Si  Si120  1  0.64066185  0.33513660  0.38967794  1
  Si  Si121  1  0.80939059  0.09173533  0.89026058  1
  Si  Si122  1  0.47358205  0.41953048  0.38372750  1
  Si  Si123  1  0.18909929  0.58528541  0.60934781  1
  Si  Si124  1  0.96726603  0.82476903  0.88832558  1
  Si  Si125  1  0.80956457  0.41796461  0.88587314  1
  Si  Si126  1  0.19230266  0.41074256  0.10848736  1
  Si  Si127  1  0.36236969  0.33105405  0.11350201  1
  Si  Si128  1  0.30591202  0.66352671  0.38136352  1
  Si  Si129  1  0.68459090  0.65594265  0.61170118  1
  Si  Si130  1  0.30922920  0.17147849  0.88812179  1
  Si  Si131  1  0.19473864  0.91850445  0.11091391  1
  Si  Si132  1  0.30179499  0.82842555  0.89165584  1
  Si  Si133  1  0.80949410  0.58212490  0.88402338  1
  Si  Si134  1  0.63513327  0.83492197  0.38917818  1
  Si  Si135  1  0.14298475  0.58114785  0.88094633  1
  Si  Si136  1  0.36337550  0.32974876  0.61288185  1
  Si  Si137  1  0.97705142  0.66212963  0.88359181  1
  Si  Si138  1  0.36426839  0.16689114  0.11732420  1
  Si  Si139  1  0.64235435  0.66285180  0.88427086  1
  Si  Si140  1  0.52519200  0.41947464  0.11703445  1
  Si  Si141  1  0.19420689  0.08505769  0.61942552  1
  Si  Si142  1  0.81765235  0.08436018  0.39031753  1
  Si  Si143  1  0.69151380  0.33849279  0.61686673  1
  Si  Si144  1  0.68542554  0.83056483  0.11774872  1
  Si  Si145  1  0.14561674  0.09049403  0.38675471  1
  Si  Si146  1  0.63341340  0.66801621  0.38869391  1
  Si  Si147  1  0.02181714  0.33025947  0.61050856  1
  Si  Si148  1  0.85860615  0.58322988  0.61339789  1
  Si  Si149  1  0.97909377  0.83387415  0.38725731  1
  Si  Si150  1  0.47727148  0.08897942  0.89097377  1
  Si  Si151  1  0.02308043  0.66550881  0.10432709  1
  Si  Si152  1  0.30820235  0.17052758  0.38338216  1
  Si  Si153  1  0.52539695  0.41296206  0.61669919  1
  Si  Si154  1  0.02502066  0.32827393  0.11138753  1
  Si  Si155  1  0.46864837  0.07877658  0.39053605  1
  Si  Si156  1  0.14259655  0.41776323  0.88342341  1
  Si  Si157  1  0.52686410  0.08797016  0.61939785  1
  Si  Si158  1  0.19611264  0.92001563  0.61535471  1
  Si  Si159  1  0.02374618  0.66983207  0.61374627  1
  Si  Si160  1  0.30921857  0.33588534  0.88501790  1
  Si  Si161  1  0.85908241  0.41675441  0.61401818  1
  Si  Si162  1  0.68538269  0.33327484  0.11758371  1
  Si  Si163  1  0.69018739  0.17426386  0.61641807  1
  Si  Si164  1  0.36299554  0.83381750  0.11707074  1
  Si  Si165  1  0.35888658  0.16463316  0.61794508  1
  Si  Si166  1  0.14383427  0.57656658  0.38193002  1
  Si  Si167  1  0.52561901  0.08168470  0.11770097  1
  Si  Si168  1  0.64320726  0.17248580  0.88938263  1
  Si  Si169  1  0.52788719  0.58442143  0.11730074  1
  Si  Si170  1  0.64234045  0.33716199  0.88708783  1
  Si  Si171  1  0.85374325  0.40667799  0.11045796  1
  Si  Si172  1  0.31193110  0.33302270  0.38256737  1
  Si  Si173  1  0.68839689  0.66782029  0.11334081  1
  Si  Si174  1  0.68526012  0.17115099  0.11534918  1
  Si  Si175  1  0.14225872  0.09137212  0.89033870  1
  Si  Si176  1  0.97986292  0.17072788  0.38419435  1
  Si  Si177  1  0.97678153  0.17358262  0.88771527  1
  Si  Si178  1  0.36463801  0.67016719  0.11003698  1
  Si  Si179  1  0.30951551  0.66402092  0.88284954  1
  Si  Si180  1  0.52105347  0.57517493  0.61449332  1
  Si  Si181  1  0.46865492  0.58378429  0.38174801  1
  Si  Si182  1  0.53315636  0.92271556  0.61270251  1
  Si  Si183  1  0.63501724  0.82782347  0.89083467  1
  Si  Si184  1  0.97797376  0.33444839  0.38197780  1
  Si  Si185  1  0.14528137  0.41288869  0.37954822  1
  Si  Si186  1  0.47463025  0.41793967  0.88530397  1
  Si  Si187  1  0.35879815  0.66554702  0.61073730  1
  Si  Si188  1  0.19837177  0.08393761  0.11560527  1
  Si  Si189  1  0.02942233  0.16159678  0.11110305  1
  Si  Si190  1  0.46948962  0.91437867  0.38527898  1
  Si  Si191  1  0.47466026  0.58283562  0.88431065  1
  O  O192  1  0.27401766  0.12858488  0.08736040  1
  O  O193  1  0.27650169  0.11584802  0.58813292  1
  O  O194  1  0.28629929  0.62395250  0.07133177  1
  O  O195  1  0.27143256  0.62056972  0.58237441  1
  O  O196  1  0.60165556  0.12131729  0.08677992  1
  O  O197  1  0.60266352  0.12879026  0.58999936  1
  O  O198  1  0.60723290  0.61437999  0.08470604  1
  O  O199  1  0.60765978  0.59569213  0.58726826  1
  O  O200  1  0.94717693  0.11805432  0.07644218  1
  O  O201  1  0.95369233  0.11462347  0.57692346  1
  O  O202  1  0.94952170  0.60745396  0.07412102  1
  O  O203  1  0.93693331  0.62148289  0.58516393  1
  O  O204  1  0.10350973  0.36533271  0.08183747  1
  O  O205  1  0.09640283  0.36003608  0.57469717  1
  O  O206  1  0.11120996  0.87948852  0.07145690  1
  O  O207  1  0.11828645  0.86456667  0.58609263  1
  O  O208  1  0.43886618  0.37367933  0.08493002  1
  O  O209  1  0.45363053  0.35295585  0.58938236  1
  O  O210  1  0.44014616  0.87518158  0.08784178  1
  O  O211  1  0.45309723  0.87569163  0.57689234  1
  O  O212  1  0.77044336  0.35332812  0.08699508  1
  O  O213  1  0.77145059  0.37203728  0.58707525  1
  O  O214  1  0.76800055  0.85839672  0.08884703  1
  O  O215  1  0.78563164  0.83476392  0.57259893  1
  O  O216  1  0.27012021  0.36611022  0.08229635  1
  O  O217  1  0.29020220  0.38154840  0.57606955  1
  O  O218  1  0.27759015  0.87987079  0.08663061  1
  O  O219  1  0.27290964  0.89826230  0.57770068  1
  O  O220  1  0.60669285  0.38746128  0.08633026  1
  O  O221  1  0.61171114  0.39186255  0.58909241  1
  O  O222  1  0.60390603  0.88164303  0.08727931  1
  O  O223  1  0.61510159  0.89990491  0.58203314  1
  O  O224  1  0.93439697  0.36755692  0.08259584  1
  O  O225  1  0.93435119  0.37692339  0.58432907  1
  O  O226  1  0.92416873  0.89435416  0.07595240  1
  O  O227  1  0.95894761  0.88545704  0.57687030  1
  O  O228  1  0.11249271  0.12946114  0.08353017  1
  O  O229  1  0.11733941  0.14103946  0.58959099  1
  O  O230  1  0.10467713  0.64134962  0.07130035  1
  O  O231  1  0.10359401  0.63392559  0.58496301  1
  O  O232  1  0.43895668  0.12615934  0.08604266  1
  O  O233  1  0.44109933  0.13447224  0.58965892  1
  O  O234  1  0.44800235  0.63456408  0.08430284  1
  O  O235  1  0.43821362  0.62274039  0.58417780  1
  O  O236  1  0.76283483  0.15074891  0.07915634  1
  O  O237  1  0.76688851  0.15016832  0.58191655  1
  O  O238  1  0.76224834  0.63996707  0.07525571  1
  O  O239  1  0.76843094  0.62221873  0.58472283  1
  O  O240  1  0.06389090  0.12503987  0.41560608  1
  O  O241  1  0.06541640  0.13444963  0.92047833  1
  O  O242  1  0.06864047  0.59919808  0.41901557  1
  O  O243  1  0.06233189  0.61351557  0.91088382  1
  O  O244  1  0.38580663  0.11765025  0.41532720  1
  O  O245  1  0.39826409  0.13089563  0.91816982  1
  O  O246  1  0.38788439  0.61366208  0.41273047  1
  O  O247  1  0.39581442  0.61683023  0.91447086  1
  O  O248  1  0.74239786  0.11574379  0.42568543  1
  O  O249  1  0.73122096  0.13280204  0.92095991  1
  O  O250  1  0.71231072  0.62097228  0.42504037  1
  O  O251  1  0.72791878  0.61501657  0.91196514  1
  O  O252  1  0.22656896  0.36121157  0.40935376  1
  O  O253  1  0.22922182  0.37240319  0.91288075  1
  O  O254  1  0.23192214  0.85856079  0.42263025  1
  O  O255  1  0.22201143  0.85196567  0.92464509  1
  O  O256  1  0.56303678  0.38014446  0.41560627  1
  O  O257  1  0.56302485  0.37540941  0.91484923  1
  O  O258  1  0.55374115  0.86885765  0.41849989  1
  O  O259  1  0.55209322  0.84751447  0.92221116  1
  O  O260  1  0.89619717  0.36291710  0.41190069  1
  O  O261  1  0.89705207  0.37456877  0.91429981  1
  O  O262  1  0.89113817  0.84107954  0.41596382  1
  O  O263  1  0.88731466  0.84692617  0.92251263  1
  O  O264  1  0.06238983  0.38369583  0.40896642  1
  O  O265  1  0.06319415  0.38299175  0.91400737  1
  O  O266  1  0.04053928  0.90082155  0.41627495  1
  O  O267  1  0.04399011  0.87787978  0.91836000  1
  O  O268  1  0.39380498  0.38316559  0.41383547  1
  O  O269  1  0.39589906  0.38141308  0.91476373  1
  O  O270  1  0.39162353  0.87214799  0.41159162  1
  O  O271  1  0.38057056  0.87792720  0.92682626  1
  O  O272  1  0.73032369  0.37797793  0.41549097  1
  O  O273  1  0.72978267  0.38181812  0.91480616  1
  O  O274  1  0.71500359  0.88192067  0.42413419  1
  O  O275  1  0.71041017  0.87869982  0.92723005  1
  O  O276  1  0.22260217  0.14928872  0.41221089  1
  O  O277  1  0.22998450  0.14018936  0.91923108  1
  O  O278  1  0.22791860  0.62552835  0.41048421  1
  O  O279  1  0.23059331  0.62401227  0.91041869  1
  O  O280  1  0.55139923  0.11993619  0.43027266  1
  O  O281  1  0.56166315  0.14033174  0.91784843  1
  O  O282  1  0.54955592  0.63278976  0.41409818  1
  O  O283  1  0.56402341  0.62361440  0.91367962  1
  O  O284  1  0.89825931  0.14183630  0.41291428  1
  O  O285  1  0.89564079  0.14121668  0.91661472  1
  O  O286  1  0.89819344  0.64023848  0.43136351  1
  O  O287  1  0.89733822  0.62397419  0.91266885  1
  O  O288  1  0.19654164  0.00336525  0.08393124  1
  O  O289  1  0.16975984  0.00435989  0.59125178  1
  O  O290  1  0.18269913  0.48713740  0.07150117  1
  O  O291  1  0.17136311  0.50931556  0.57048014  1
  O  O292  1  0.51585601  0.00071449  0.08636233  1
  O  O293  1  0.51211287  0.00792882  0.58919473  1
  O  O294  1  0.50962524  0.50148295  0.08751364  1
  O  O295  1  0.49580860  0.49260869  0.58810200  1
  O  O296  1  0.80923505  -0.00595677  0.08376924  1
  O  O297  1  0.81920510  -0.00331780  0.57328950  1
  O  O298  1  0.83159687  0.48183859  0.07296232  1
  O  O299  1  0.84968676  0.49929926  0.58554656  1
  O  O300  1  0.01912176  0.24603554  0.08263373  1
  O  O301  1  0.00382195  0.24745788  0.58514783  1
  O  O302  1  -0.00623718  0.74478873  0.07584133  1
  O  O303  1  0.01327202  0.75003537  0.58144468  1
  O  O304  1  0.36022261  0.24887493  0.08372681  1
  O  O305  1  0.34280385  0.24654237  0.58767280  1
  O  O306  1  0.35697220  0.75341134  0.08167653  1
  O  O307  1  0.34977714  0.74283930  0.57603375  1
  O  O308  1  0.65362604  0.25354494  0.09024681  1
  O  O309  1  0.66553682  0.25820493  0.59000750  1
  O  O310  1  0.66100685  0.75000856  0.08710474  1
  O  O311  1  0.65175678  0.73006175  0.57756334  1
  O  O312  1  0.17259805  0.01588944  0.42331894  1
  O  O313  1  0.15663131  0.01384990  0.92459567  1
  O  O314  1  0.17162002  0.49311231  0.40710330  1
  O  O315  1  0.15726419  0.49912472  0.91302591  1
  O  O316  1  0.47067235  -0.00448651  0.41900809  1
  O  O317  1  0.49329296  0.01228107  0.92642076  1
  O  O318  1  0.48421175  0.50173471  0.41268416  1
  O  O319  1  0.48665726  0.49997497  0.91399622  1
  O  O320  1  0.84902405  0.00643042  0.41872516  1
  O  O321  1  0.82400161  0.01342863  0.92274355  1
  O  O322  1  0.82886976  0.48986385  0.42408998  1
  O  O323  1  0.82067020  0.49986637  0.91419996  1
  O  O324  1  0.33343532  0.25247031  0.41336505  1
  O  O325  1  0.32319186  0.25517216  0.91641559  1
  O  O326  1  0.32367981  0.74304312  0.41409996  1
  O  O327  1  0.32466806  0.74310667  0.91593241  1
  O  O328  1  0.64693558  0.25866125  0.42668740  1
  O  O329  1  0.65309002  0.25629720  0.91770306  1
  O  O330  1  0.64148887  0.75075379  0.41661483  1
  O  O331  1  0.65895814  0.74242220  0.91480706  1
  O  O332  1  0.99947677  0.25360081  0.41204997  1
  O  O333  1  0.98802193  0.25724603  0.91766011  1
  O  O334  1  1.02764221  0.75978101  0.41487290  1
  O  O335  1  0.99415008  0.74086485  0.91600232  1
  O  O336  1  0.20837677  0.08436371  0.19460977  1
  O  O337  1  0.21718278  0.09002228  0.69881657  1
  O  O338  1  0.21232872  0.58049868  0.19674537  1
  O  O339  1  0.21133500  0.57864037  0.68931817  1
  O  O340  1  0.54423177  0.08456070  0.19735134  1
  O  O341  1  0.54389292  0.08872579  0.69995500  1
  O  O342  1  0.54592761  0.58499359  0.19658237  1
  O  O343  1  0.54088561  0.57897676  0.69524780  1
  O  O344  1  0.87703915  0.08552586  0.20201717  1
  O  O345  1  0.88524806  0.09444740  0.70138645  1
  O  O346  1  0.87632886  0.57834806  0.19699911  1
  O  O347  1  0.87611344  0.58124780  0.69397333  1
  O  O348  1  0.04354630  0.33111943  0.19172520  1
  O  O349  1  0.04156059  0.33491848  0.69189167  1
  O  O350  1  0.04194358  0.83274395  0.19808422  1
  O  O351  1  0.04901031  0.82650125  0.69126615  1
  O  O352  1  0.37831201  0.33304471  0.19357498  1
  O  O353  1  0.37826904  0.33313922  0.69427555  1
  O  O354  1  0.37961568  0.82645957  0.19504558  1
  O  O355  1  0.37895848  0.83209351  0.70316247  1
  O  O356  1  0.70654416  0.33486087  0.19793198  1
  O  O357  1  0.71075660  0.33762949  0.69759031  1
  O  O358  1  0.70402791  0.83151336  0.19758981  1
  O  O359  1  0.70732410  0.82655242  0.70133890  1
  O  O360  1  0.21047971  0.41289168  0.18931772  1
  O  O361  1  0.21138140  0.41654715  0.69802121  1
  O  O362  1  0.20122501  0.91782542  0.18984964  1
  O  O363  1  0.21803770  0.91500350  0.69496179  1
  O  O364  1  0.54457007  0.41385358  0.19619994  1
  O  O365  1  0.54385516  0.41529614  0.69751863  1
  O  O366  1  0.54667042  0.92177931  0.19756962  1
  O  O367  1  0.54533661  0.91833850  0.69415640  1
  O  O368  1  0.87514610  0.41130250  0.19120811  1
  O  O369  1  0.87643840  0.41713223  0.69480959  1
  O  O370  1  0.87330134  0.91627969  0.19344043  1
  O  O371  1  0.87098484  0.90588564  0.69347142  1
  O  O372  1  0.04506792  0.16580971  0.19191889  1
  O  O373  1  0.04609380  0.17094843  0.69487265  1
  O  O374  1  0.04379942  0.66275997  0.18620715  1
  O  O375  1  0.03785643  0.66699229  0.69324814  1
  O  O376  1  0.38338674  0.17267474  0.19617386  1
  O  O377  1  0.37839422  0.16822595  0.69857253  1
  O  O378  1  0.37657473  0.66571177  0.19031011  1
  O  O379  1  0.37764411  0.66381874  0.69173231  1
  O  O380  1  0.70840024  0.16895336  0.19591249  1
  O  O381  1  0.70907061  0.17253233  0.69751826  1
  O  O382  1  0.70747624  0.66587953  0.19372159  1
  O  O383  1  0.70712831  0.65882720  0.69275728  1
  O  O384  1  0.12247329  0.08844044  0.30601805  1
  O  O385  1  0.12416031  0.09704617  0.81111746  1
  O  O386  1  0.12241573  0.57890643  0.30121935  1
  O  O387  1  0.12284375  0.57776375  0.80157866  1
  O  O388  1  0.46118732  0.08371650  0.31115915  1
  O  O389  1  0.45887294  0.08850883  0.81023766  1
  O  O390  1  0.45165417  0.58349233  0.30226517  1
  O  O391  1  0.45684539  0.58132485  0.80403676  1
  O  O392  1  0.79165457  0.08656145  0.30897798  1
  O  O393  1  0.78468299  0.09747312  0.81080231  1
  O  O394  1  0.78696131  0.58258911  0.29995251  1
  O  O395  1  0.78982718  0.57983830  0.80358302  1
  O  O396  1  0.29274476  0.33403299  0.30203695  1
  O  O397  1  0.29303877  0.33489690  0.80491674  1
  O  O398  1  0.28195956  0.82406742  0.30575479  1
  O  O399  1  0.29052214  0.83010913  0.81076655  1
  O  O400  1  0.62293410  0.33395309  0.30866232  1
  O  O401  1  0.62378481  0.33636525  0.80663137  1
  O  O402  1  0.62465206  0.83319043  0.30922532  1
  O  O403  1  0.61837632  0.82903821  0.80949349  1
  O  O404  1  0.95852864  0.33328984  0.30144811  1
  O  O405  1  0.95810065  0.33772009  0.80502331  1
  O  O406  1  0.95685744  0.83343629  0.30511195  1
  O  O407  1  0.94832514  0.82058309  0.80830178  1
  O  O408  1  0.12503295  0.41246456  0.29910570  1
  O  O409  1  0.12284873  0.41622200  0.80331605  1
  O  O410  1  0.12306518  0.91873468  0.29860807  1
  O  O411  1  0.13486560  0.91671270  0.80148410  1
  O  O412  1  0.45417282  0.41427879  0.30432021  1
  O  O413  1  0.45656074  0.41633099  0.80490744  1
  O  O414  1  0.46351351  0.91975375  0.30759501  1
  O  O415  1  0.45672653  0.91949832  0.80107273  1
  O  O416  1  0.79188410  0.41502330  0.30617327  1
  O  O417  1  0.79089834  0.41746391  0.80540550  1
  O  O418  1  0.78735977  0.91689231  0.29931376  1
  O  O419  1  0.78166847  0.90942300  0.80402743  1
  O  O420  1  0.28946589  0.17334240  0.30399131  1
  O  O421  1  0.29240921  0.17110907  0.80786538  1
  O  O422  1  0.28939225  0.66367281  0.30136533  1
  O  O423  1  0.29608196  0.66372229  0.80350709  1
  O  O424  1  0.62167063  0.16764496  0.30272865  1
  O  O425  1  0.62374345  0.17238668  0.80889104  1
  O  O426  1  0.62114673  0.66558461  0.30799155  1
  O  O427  1  0.62136833  0.66123912  0.80381436  1
  O  O428  1  0.96105641  0.17025142  0.30382856  1
  O  O429  1  0.95925435  0.17690610  0.80798045  1
  O  O430  1  0.95722598  0.66563106  0.29583566  1
  O  O431  1  0.95572922  0.66055242  0.80357971  1
  F  F432  1  0.04495355  0.00403108  0.20076202  1
  F  F433  1  0.05207217  0.01587423  0.69835928  1
  F  F434  1  0.04554363  0.49549526  0.19764470  1
  F  F435  1  0.04323777  0.49906735  0.69871631  1
  F  F436  1  0.38649872  0.01201835  0.19674851  1
  F  F437  1  0.38154489  0.00735948  0.70274826  1
  F  F438  1  0.37391674  0.49811352  0.19606108  1
  F  F439  1  0.38006700  0.49875712  0.70138351  1
  F  F440  1  0.70887768  0.00434027  0.20473112  1
  F  F441  1  0.69950267  0.00519537  0.70155596  1
  F  F442  1  0.70956649  0.49605027  0.20156189  1
  F  F443  1  0.71173463  0.49762012  0.70276513  1
  F  F444  1  0.21387006  0.25012598  0.19835746  1
  F  F445  1  0.21423171  0.25184803  0.70265349  1
  F  F446  1  0.21281304  0.74869894  0.19803260  1
  F  F447  1  0.21578198  0.75142178  0.70211589  1
  F  F448  1  0.54402426  0.25272767  0.20378015  1
  F  F449  1  0.54611628  0.25213072  0.70571549  1
  F  F450  1  0.54702322  0.74490324  0.20274976  1
  F  F451  1  0.54385324  0.74753043  0.70391321  1
  F  F452  1  0.87788488  0.25049253  0.20167859  1
  F  F453  1  0.87787964  0.25578538  0.70357983  1
  F  F454  1  0.87381156  0.75147696  0.20093437  1
  F  F455  1  0.87754996  0.74420212  0.70227091  1
  F  F456  1  0.28082785  0.00988017  0.30412514  1
  F  F457  1  0.30047901  0.00188244  0.80472100  1
  F  F458  1  0.28817252  0.49526846  0.29550620  1
  F  F459  1  0.29035116  0.50056556  0.79726452  1
  F  F460  1  0.62151499  0.00246376  0.30148486  1
  F  F461  1  0.62001872  0.00333306  0.80076888  1
  F  F462  1  0.62495778  0.49955801  0.30144285  1
  F  F463  1  0.62125946  0.49870962  0.79923705  1
  F  F464  1  0.95607048  -0.00033276  0.29649431  1
  F  F465  1  0.97025636  0.01647212  0.81650141  1
  F  F466  1  0.95673731  0.49380082  0.29504806  1
  F  F467  1  0.95556273  0.49869803  0.79629529  1
  F  F468  1  0.12257343  0.25098187  0.29330952  1
  F  F469  1  0.12269277  0.25616304  0.79647831  1
  F  F470  1  0.12147121  0.74390903  0.29207440  1
  F  F471  1  0.11948168  0.74988579  0.79805844  1
  F  F472  1  0.45539006  0.25273392  0.30045169  1
  F  F473  1  0.45521173  0.25342528  0.80055960  1
  F  F474  1  0.45004862  0.74122750  0.30134063  1
  F  F475  1  0.45508135  0.74342491  0.79966970  1
  F  F476  1  0.78915513  0.25141739  0.29787731  1
  F  F477  1  0.78856791  0.25693511  0.80059505  1
  F  F478  1  0.78586031  0.74747605  0.29669548  1
  F  F479  1  0.78378641  0.73737316  0.80002560  1
