# generated using pymatgen
data_K24Na3Li5Mg64Fe17Si79(O5F)48
_symmetry_space_group_name_H-M   'P 1'
_cell_length_a   16.06845378
_cell_length_b   18.56110048
_cell_length_c   20.53843541
_cell_angle_alpha   89.99666156
_cell_angle_beta   100.01723099
_cell_angle_gamma   90.02340984
_symmetry_Int_Tables_number   1
_chemical_formula_structural   K24Na3Li5Mg64Fe17Si79(O5F)48
_chemical_formula_sum   'K24 Na3 Li5 Mg64 Fe17 Si79 O240 F48'
_cell_volume   6032.16953267
_cell_formula_units_Z   1
loop_
 _symmetry_equiv_pos_site_id
 _symmetry_equiv_pos_as_xyz
  1  'x, y, z'
loop_
 _atom_site_type_symbol
 _atom_site_label
 _atom_site_symmetry_multiplicity
 _atom_site_fract_x
 _atom_site_fract_y
 _atom_site_fract_z
 _atom_site_occupancy
  K  K0  1  -0.00237162  0.00000602  0.00184580  1
  K  K1  1  -0.00631972  -0.00271861  0.50019300  1
  K  K2  1  0.00270147  0.49813396  -0.00062288  1
  K  K3  1  -0.00257807  0.50377205  0.50431323  1
  K  K4  1  0.33534406  -0.00625904  0.00222083  1
  K  K5  1  0.33323437  -0.00186021  0.50106529  1
  K  K6  1  0.33135126  0.50381993  -0.00430283  1
  K  K7  1  0.33332647  0.49929659  0.50020384  1
  K  K8  1  0.66978715  -0.00041552  0.00120393  1
  K  K9  1  0.67058753  -0.00686005  0.50562952  1
  K  K10  1  0.66405159  0.50491650  -0.00042589  1
  K  K11  1  0.66789082  0.49691980  0.49928914  1
  K  K12  1  0.16809979  0.25631871  -0.00189870  1
  K  K13  1  0.17260593  0.24706236  0.50287780  1
  K  K14  1  0.16792462  0.74655011  -0.00449471  1
  K  K15  1  0.16232808  0.74605733  0.50358087  1
  K  K16  1  0.50499060  0.25453046  0.00039108  1
  K  K17  1  0.49608902  0.25635468  0.49977306  1
  K  K18  1  0.50655916  0.73864839  0.00418464  1
  K  K19  1  0.49983726  0.75516638  0.50243324  1
  K  K20  1  0.83220229  0.25490235  0.00304624  1
  K  K21  1  0.84130839  0.25507744  0.50653560  1
  K  K22  1  0.82528375  0.74205573  0.00679010  1
  K  K23  1  0.83651089  0.74863182  0.49756110  1
  Na  Na24  1  0.16223335  0.00027141  0.24817796  1
  Na  Na25  1  0.83185614  0.66747056  0.24864512  1
  Na  Na26  1  -0.00400978  0.92074315  0.74800754  1
  Li  Li27  1  -0.00046946  0.25188788  0.74870420  1
  Li  Li28  1  0.33034724  0.25174156  0.74990484  1
  Li  Li29  1  0.17010114  0.66414072  0.74603272  1
  Li  Li30  1  0.00265451  0.07924573  0.24961523  1
  Li  Li31  1  0.66646500  0.08370018  0.75075110  1
  Mg  Mg32  1  0.16685262  0.49886543  0.25187979  1
  Mg  Mg33  1  0.66825799  0.25137171  0.24478592  1
  Mg  Mg34  1  0.33262034  0.74745546  0.75148537  1
  Mg  Mg35  1  -0.00136659  0.75013300  0.25237367  1
  Mg  Mg36  1  0.00212294  0.24593057  0.24718006  1
  Mg  Mg37  1  0.17017551  0.50081311  0.74980299  1
  Mg  Mg38  1  0.49983990  0.50039033  0.75308639  1
  Mg  Mg39  1  0.50172528  -0.00094059  0.24486324  1
  Mg  Mg40  1  0.50238625  0.00167400  0.75146156  1
  Mg  Mg41  1  0.16431708  0.00221210  0.75311018  1
  Mg  Mg42  1  0.66673290  0.24743015  0.75106540  1
  Mg  Mg43  1  0.83010105  0.00216994  0.74948745  1
  Mg  Mg44  1  0.33270621  0.24947644  0.25140259  1
  Mg  Mg45  1  0.66743364  0.74981959  0.74850598  1
  Mg  Mg46  1  0.00344478  0.75286523  0.75075380  1
  Mg  Mg47  1  0.49782394  0.50146563  0.25299835  1
  Mg  Mg48  1  0.83632070  0.00091099  0.25051175  1
  Mg  Mg49  1  0.33234917  0.75072308  0.24989301  1
  Mg  Mg50  1  0.66590869  0.74865303  0.24807597  1
  Mg  Mg51  1  0.83225563  0.50124917  0.24411916  1
  Mg  Mg52  1  0.83701482  0.49948866  0.74799730  1
  Mg  Mg53  1  0.33125251  0.41337030  0.75244673  1
  Mg  Mg54  1  0.16999729  0.33309981  0.25146211  1
  Mg  Mg55  1  0.33336317  0.91711008  0.24664845  1
  Mg  Mg56  1  0.49920619  0.16667955  0.75286984  1
  Mg  Mg57  1  0.49816580  0.66342246  0.75085494  1
  Mg  Mg58  1  0.33209821  0.08659733  0.75331183  1
  Mg  Mg59  1  0.00083477  0.41399336  0.74740984  1
  Mg  Mg60  1  0.83193433  0.16714637  0.75072532  1
  Mg  Mg61  1  0.83644820  0.33334415  0.74815693  1
  Mg  Mg62  1  0.33222767  0.91695682  0.75202602  1
  Mg  Mg63  1  0.66635867  0.41579177  0.24534059  1
  Mg  Mg64  1  0.83772324  0.16517342  0.24808275  1
  Mg  Mg65  1  0.83306122  0.33356937  0.24398671  1
  Mg  Mg66  1  0.16568762  0.16243985  0.25147249  1
  Mg  Mg67  1  0.50178653  0.83486271  0.24637038  1
  Mg  Mg68  1  0.16534528  0.83329307  0.75349163  1
  Mg  Mg69  1  0.66908910  0.08497396  0.24634864  1
  Mg  Mg70  1  0.16612907  0.33167689  0.74844506  1
  Mg  Mg71  1  0.66497539  0.58552855  0.24936575  1
  Mg  Mg72  1  -0.00025455  0.91897276  0.25133581  1
  Mg  Mg73  1  0.33347587  0.58467440  0.25358737  1
  Mg  Mg74  1  0.66793409  0.91567130  0.24654621  1
  Mg  Mg75  1  0.00067915  0.58310173  0.24891294  1
  Mg  Mg76  1  0.00457633  0.58584882  0.74772613  1
  Mg  Mg77  1  0.49657762  0.33158389  0.75248193  1
  Mg  Mg78  1  0.16607178  0.66562507  0.25255182  1
  Mg  Mg79  1  0.16636674  0.83565221  0.25004060  1
  Mg  Mg80  1  0.49956374  0.83456127  0.74917846  1
  Mg  Mg81  1  0.83438389  0.66652209  0.74818820  1
  Mg  Mg82  1  0.66568477  0.58303540  0.75028672  1
  Mg  Mg83  1  0.33198981  0.41470778  0.25429623  1
  Mg  Mg84  1  -0.00384062  0.08709709  0.75120137  1
  Mg  Mg85  1  0.66658257  0.41453963  0.74969749  1
  Mg  Mg86  1  0.00196224  0.41394170  0.24654584  1
  Mg  Mg87  1  0.33317191  0.58540581  0.75233754  1
  Mg  Mg88  1  0.83143326  0.83524355  0.74879010  1
  Mg  Mg89  1  0.33345902  0.08263604  0.25005924  1
  Mg  Mg90  1  0.49907269  0.33497912  0.24966774  1
  Mg  Mg91  1  0.16430378  0.16989536  0.75332124  1
  Mg  Mg92  1  0.66730244  0.91818521  0.74847303  1
  Mg  Mg93  1  0.50083210  0.66537406  0.25094827  1
  Mg  Mg94  1  0.50085246  0.16588209  0.24710185  1
  Mg  Mg95  1  0.83183065  0.83481691  0.24860588  1
  Fe  Fe96  1  0.47571132  0.58274691  0.89575352  1
  Fe  Fe97  1  0.64446011  0.67072963  0.39202530  1
  Fe  Fe98  1  0.68819261  0.66004540  0.10509936  1
  Fe  Fe99  1  0.36124719  0.67075623  0.60829913  1
  Fe  Fe100  1  0.19362697  0.41205391  0.61016015  1
  Fe  Fe101  1  0.30813478  0.32621999  0.39345743  1
  Fe  Fe102  1  0.86007704  0.41815830  0.60799859  1
  Fe  Fe103  1  0.52929021  0.57795439  0.61093305  1
  Fe  Fe104  1  0.85604145  0.91733731  0.60816068  1
  Fe  Fe105  1  0.68805160  0.82818845  0.60856376  1
  Fe  Fe106  1  0.19071025  0.58227431  0.61055503  1
  Fe  Fe107  1  0.19163380  0.41899521  0.11060835  1
  Fe  Fe108  1  0.13996012  0.58322939  0.38957828  1
  Fe  Fe109  1  0.47144740  0.58757412  0.39301227  1
  Fe  Fe110  1  0.80911590  0.92186719  0.38724900  1
  Fe  Fe111  1  0.52426281  0.91692745  0.10533327  1
  Fe  Fe112  1  0.69142901  0.33835681  0.10474180  1
  Si  Si113  1  0.86238701  0.91633428  0.11413772  1
  Si  Si114  1  0.64330116  0.16647192  0.38238614  1
  Si  Si115  1  0.64240997  0.16448060  0.88678112  1
  Si  Si116  1  0.51978637  0.41750068  0.11281775  1
  Si  Si117  1  0.97375779  0.33433216  0.38119470  1
  Si  Si118  1  0.36031159  0.33366002  0.11318682  1
  Si  Si119  1  0.69225639  0.16466625  0.10882693  1
  Si  Si120  1  0.13805730  0.08103358  0.38617903  1
  Si  Si121  1  0.52317742  0.40976574  0.61686957  1
  Si  Si122  1  0.14024321  0.58270507  0.88590177  1
  Si  Si123  1  0.13876197  0.41245372  0.38744743  1
  Si  Si124  1  0.30618559  0.83664552  0.88889514  1
  Si  Si125  1  0.86818318  0.41574810  0.10734426  1
  Si  Si126  1  0.18801556  0.08485576  0.61821355  1
  Si  Si127  1  0.51544559  0.57902907  0.11222190  1
  Si  Si128  1  0.47495808  0.91688738  0.88707301  1
  Si  Si129  1  0.30124291  0.67434405  0.38779074  1
  Si  Si130  1  0.14025444  0.91796096  0.88848204  1
  Si  Si131  1  0.52222858  0.92128328  0.61307135  1
  Si  Si132  1  0.68771106  0.16859284  0.61715575  1
  Si  Si133  1  0.80994382  0.08412902  0.88722024  1
  Si  Si134  1  0.81016148  0.91871629  0.88854689  1
  Si  Si135  1  0.35469811  0.83006780  0.10938715  1
  Si  Si136  1  0.52170781  0.08598904  0.61713835  1
  Si  Si137  1  0.30519671  0.16364350  0.88932938  1
  Si  Si138  1  0.14135499  0.41655937  0.88663942  1
  Si  Si139  1  0.64302788  0.32974822  0.88651108  1
  Si  Si140  1  0.02183812  0.16478983  0.61828097  1
  Si  Si141  1  0.30934506  0.83919712  0.38430688  1
  Si  Si142  1  0.13840567  0.08389883  0.89009068  1
  Si  Si143  1  0.97581139  0.82834851  0.38867893  1
  Si  Si144  1  0.69397511  0.66017849  0.61483563  1
  Si  Si145  1  0.47955289  0.07939350  0.38230091  1
  Si  Si146  1  0.02711080  0.83763675  0.11448363  1
  Si  Si147  1  0.19400456  0.91579513  0.11266340  1
  Si  Si148  1  0.68982936  0.33157458  0.61394341  1
  Si  Si149  1  0.36331236  0.32912066  0.61715103  1
  Si  Si150  1  0.97265922  0.16899974  0.88729230  1
  Si  Si151  1  0.97318896  0.83091058  0.88745286  1
  Si  Si152  1  0.80443518  0.57560621  0.38439363  1
  Si  Si153  1  0.64328114  0.83713267  0.88627139  1
  Si  Si154  1  0.81400650  0.09099478  0.38582839  1
  Si  Si155  1  0.85856481  0.08044688  0.11419553  1
  Si  Si156  1  0.64728898  0.67064607  0.88812771  1
  Si  Si157  1  0.64260989  0.33163822  0.38275142  1
  Si  Si158  1  0.97874351  0.17147761  0.38369873  1
  Si  Si159  1  0.86222437  0.59052070  0.61309416  1
  Si  Si160  1  0.80750434  0.41631918  0.88614000  1
  Si  Si161  1  0.03143284  0.83731155  0.61554925  1
  Si  Si162  1  0.35477566  0.84081535  0.61477122  1
  Si  Si163  1  0.19274359  0.92074817  0.61854566  1
  Si  Si164  1  0.47457607  0.08399475  0.88885782  1
  Si  Si165  1  0.97600226  0.66588622  0.88673541  1
  Si  Si166  1  0.13814942  0.91326379  0.38657082  1
  Si  Si167  1  0.47486814  0.40957346  0.89087052  1
  Si  Si168  1  0.18860008  0.58718841  0.11300157  1
  Si  Si169  1  0.64191973  0.83921142  0.38456201  1
  Si  Si170  1  0.35708996  0.16941813  0.11381220  1
  Si  Si171  1  0.35378638  0.66586515  0.11476149  1
  Si  Si172  1  0.31097972  0.15559035  0.38939161  1
  Si  Si173  1  0.02607336  0.16036848  0.11396977  1
  Si  Si174  1  0.47529410  0.91568503  0.38142774  1
  Si  Si175  1  0.02625070  0.67516059  0.61499472  1
  Si  Si176  1  0.81048369  0.58304558  0.88519101  1
  Si  Si177  1  0.97070116  0.66151935  0.38589461  1
  Si  Si178  1  0.69500922  0.83428094  0.10633776  1
  Si  Si179  1  0.02822703  0.67366858  0.11395855  1
  Si  Si180  1  0.97442595  0.33493099  0.88634727  1
  Si  Si181  1  0.35610801  0.16471021  0.61823459  1
  Si  Si182  1  0.47984489  0.41540641  0.39010372  1
  Si  Si183  1  0.30580944  0.67001099  0.89132693  1
  Si  Si184  1  0.02902984  0.32812945  0.61155764  1
  Si  Si185  1  0.86922891  0.58025680  0.10859153  1
  Si  Si186  1  0.52159623  0.08743927  0.10959151  1
  Si  Si187  1  0.19530637  0.08355688  0.11342402  1
  Si  Si188  1  0.80935414  0.41327914  0.38116076  1
  Si  Si189  1  0.85188814  0.08742602  0.61292756  1
  Si  Si190  1  0.30547171  0.32942729  0.88731690  1
  Si  Si191  1  0.02929441  0.32428727  0.11079945  1
  O  O192  1  0.27445793  0.11921137  0.08184511  1
  O  O193  1  0.27081135  0.11575588  0.58851108  1
  O  O194  1  0.27204904  0.61607864  0.08343254  1
  O  O195  1  0.28220389  0.60419992  0.57057176  1
  O  O196  1  0.60605361  0.11667759  0.08169868  1
  O  O197  1  0.60447594  0.11746531  0.58818157  1
  O  O198  1  0.59068542  0.60259561  0.07388078  1
  O  O199  1  0.63772446  0.59007560  0.58879827  1
  O  O200  1  0.94016236  0.11346154  0.08451251  1
  O  O201  1  0.93802793  0.11682506  0.58671233  1
  O  O202  1  0.94750143  0.62399884  0.08105364  1
  O  O203  1  0.94453509  0.62313661  0.58513014  1
  O  O204  1  0.10656911  0.35176295  0.07644821  1
  O  O205  1  0.11394725  0.33955016  0.58026570  1
  O  O206  1  0.10500094  0.87387186  0.08235142  1
  O  O207  1  0.12004732  0.86244635  0.58840254  1
  O  O208  1  0.44818026  0.35500091  0.08654347  1
  O  O209  1  0.45513284  0.34402457  0.59317422  1
  O  O210  1  0.42976361  0.85776935  0.07277006  1
  O  O211  1  0.43552019  0.87534760  0.58540043  1
  O  O212  1  0.78185175  0.37861412  0.06994393  1
  O  O213  1  0.76663817  0.35641910  0.57774342  1
  O  O214  1  0.78325639  0.86526250  0.08229628  1
  O  O215  1  0.77680530  0.85261653  0.56658168  1
  O  O216  1  0.28777927  0.38739380  0.07721323  1
  O  O217  1  0.29388041  0.38369218  0.57901196  1
  O  O218  1  0.26880261  0.87813877  0.07909769  1
  O  O219  1  0.27955811  0.90179329  0.59081349  1
  O  O220  1  0.59876855  0.39935008  0.07625665  1
  O  O221  1  0.60849799  0.38405955  0.58794775  1
  O  O222  1  0.62163411  0.89050923  0.07281667  1
  O  O223  1  0.59692182  0.89282937  0.57732160  1
  O  O224  1  0.94515077  0.37188758  0.08068392  1
  O  O225  1  0.95238442  0.37977548  0.57491442  1
  O  O226  1  0.94422479  0.88610322  0.08351197  1
  O  O227  1  0.96331127  0.89744282  0.58549417  1
  O  O228  1  0.10526053  0.12410473  0.08239534  1
  O  O229  1  0.10435270  0.13293281  0.58774226  1
  O  O230  1  0.11304966  0.64686331  0.08624247  1
  O  O231  1  0.10619945  0.65206720  0.58265499  1
  O  O232  1  0.44169713  0.14401687  0.08473288  1
  O  O233  1  0.43668672  0.13363110  0.58569889  1
  O  O234  1  0.43471088  0.63384561  0.08579973  1
  O  O235  1  0.45898812  0.65138571  0.57594507  1
  O  O236  1  0.77226880  0.12487847  0.08118915  1
  O  O237  1  0.77120594  0.14329329  0.58631138  1
  O  O238  1  0.78208746  0.61749973  0.07329470  1
  O  O239  1  0.78716019  0.65031176  0.59115476  1
  O  O240  1  0.06124130  0.12185601  0.41723690  1
  O  O241  1  0.06273806  0.12748147  0.91906377  1
  O  O242  1  0.04253221  0.60785624  0.42340267  1
  O  O243  1  0.06341206  0.62236764  0.91772281  1
  O  O244  1  0.39626965  0.10403233  0.41304209  1
  O  O245  1  0.39700635  0.12357951  0.91916443  1
  O  O246  1  0.37001410  0.61569757  0.42019073  1
  O  O247  1  0.38982779  0.63161312  0.93143810  1
  O  O248  1  0.72903904  0.12213088  0.41296625  1
  O  O249  1  0.72944653  0.11953097  0.91734306  1
  O  O250  1  0.72729708  0.59863578  0.42063851  1
  O  O251  1  0.73873066  0.62885879  0.91514384  1
  O  O252  1  0.20435464  0.34939515  0.41793847  1
  O  O253  1  0.22959123  0.37282672  0.91751825  1
  O  O254  1  0.23070945  0.87529124  0.41526895  1
  O  O255  1  0.23229547  0.88087256  0.92066773  1
  O  O256  1  0.56318615  0.36099790  0.41434227  1
  O  O257  1  0.56343487  0.36269050  0.91709022  1
  O  O258  1  0.54992683  0.85913683  0.40945616  1
  O  O259  1  0.56388712  0.87464566  0.91614209  1
  O  O260  1  0.88702532  0.35723363  0.40865421  1
  O  O261  1  0.89732620  0.37549447  0.91749651  1
  O  O262  1  0.90171937  0.86280351  0.42266811  1
  O  O263  1  0.89802636  0.87390661  0.91898370  1
  O  O264  1  0.04639980  0.39252096  0.41048060  1
  O  O265  1  0.06374036  0.37688970  0.91752804  1
  O  O266  1  0.06632866  0.87047249  0.41934454  1
  O  O267  1  0.06349763  0.87381154  0.91616004  1
  O  O268  1  0.40409461  0.38279604  0.42448975  1
  O  O269  1  0.39821341  0.36443353  0.91871994  1
  O  O270  1  0.39058730  0.89221865  0.41162956  1
  O  O271  1  0.39704008  0.87814939  0.91714774  1
  O  O272  1  0.72707740  0.38042865  0.41011599  1
  O  O273  1  0.73064737  0.37496335  0.91562922  1
  O  O274  1  0.70384135  0.90601486  0.41182519  1
  O  O275  1  0.72955986  0.88322405  0.91778941  1
  O  O276  1  0.23180869  0.11572419  0.41829778  1
  O  O277  1  0.23053837  0.12106438  0.92167501  1
  O  O278  1  0.21265327  0.66181668  0.41346947  1
  O  O279  1  0.22443996  0.62975016  0.91748927  1
  O  O280  1  0.56191418  0.13105463  0.41081587  1
  O  O281  1  0.56391193  0.12652715  0.91820699  1
  O  O282  1  0.55008877  0.65432650  0.42911463  1
  O  O283  1  0.57791830  0.63386833  0.92531110  1
  O  O284  1  0.89306753  0.14746053  0.41253080  1
  O  O285  1  0.89658193  0.12941084  0.92014893  1
  O  O286  1  0.88189074  0.63357099  0.40801358  1
  O  O287  1  0.90090182  0.62225451  0.91624839  1
  O  O288  1  0.18495274  -0.00009897  0.08521305  1
  O  O289  1  0.16750643  0.00257181  0.58937812  1
  O  O290  1  0.15864023  0.51171403  0.07718761  1
  O  O291  1  0.14780049  0.49625523  0.57355465  1
  O  O292  1  0.49329401  0.01165295  0.07439342  1
  O  O293  1  0.50073072  0.00511465  0.58630491  1
  O  O294  1  0.48071298  0.49715417  0.08825929  1
  O  O295  1  0.48920084  0.48430747  0.58267097  1
  O  O296  1  0.84519765  -0.00165117  0.08315244  1
  O  O297  1  0.82580171  0.01227157  0.57656242  1
  O  O298  1  0.87458431  0.49794382  0.07828614  1
  O  O299  1  0.83773880  0.51352378  0.57758426  1
  O  O300  1  0.00771473  0.24121868  0.08217850  1
  O  O301  1  -0.00145331  0.24452152  0.58757862  1
  O  O302  1  0.01077044  0.75592302  0.08365554  1
  O  O303  1  0.00155554  0.75738287  0.58516049  1
  O  O304  1  0.33495990  0.25077372  0.08531676  1
  O  O305  1  0.33705722  0.24604108  0.58959553  1
  O  O306  1  0.33066757  0.74680061  0.08415544  1
  O  O307  1  0.32527424  0.76644161  0.57887132  1
  O  O308  1  0.67748045  0.24209874  0.07268292  1
  O  O309  1  0.66080643  0.24916512  0.58716132  1
  O  O310  1  0.67753817  0.75575113  0.07151869  1
  O  O311  1  0.65160283  0.73434000  0.58386823  1
  O  O312  1  0.14211158  -0.00286183  0.41456621  1
  O  O313  1  0.14023517  0.00070959  0.91999980  1
  O  O314  1  0.17290012  0.48947620  0.41775989  1
  O  O315  1  0.15048006  0.49951516  0.91725923  1
  O  O316  1  0.50243777  -0.00260603  0.41010778  1
  O  O317  1  0.48290513  0.00025483  0.91695404  1
  O  O318  1  0.50891889  0.49359764  0.41968128  1
  O  O319  1  0.48537243  0.48632795  0.92818336  1
  O  O320  1  0.84108454  0.01509247  0.42012269  1
  O  O321  1  0.82275076  0.00159139  0.91899132  1
  O  O322  1  0.83431322  0.49272410  0.41290810  1
  O  O323  1  0.81394933  0.49979611  0.91508395  1
  O  O324  1  0.33147155  0.23114970  0.42714417  1
  O  O325  1  0.30824664  0.24644142  0.91892720  1
  O  O326  1  0.33210903  0.75828232  0.41238682  1
  O  O327  1  0.30618828  0.75523247  0.91968478  1
  O  O328  1  0.65875237  0.24875759  0.41151778  1
  O  O329  1  0.65678389  0.24714014  0.91700585  1
  O  O330  1  0.67931205  0.76510275  0.41869619  1
  O  O331  1  0.66043717  0.75520911  0.91541581  1
  O  O332  1  1.00091643  0.25393410  0.41191431  1
  O  O333  1  0.98139444  0.25214689  0.91735642  1
  O  O334  1  0.98922232  0.74449251  0.41488246  1
  O  O335  1  0.98305631  0.74818491  0.91941859  1
  O  O336  1  0.21608366  0.08944517  0.19243991  1
  O  O337  1  0.20929982  0.08496791  0.69856799  1
  O  O338  1  0.21029826  0.58511217  0.19359878  1
  O  O339  1  0.21494583  0.58128936  0.70226467  1
  O  O340  1  0.54234554  0.08599091  0.19068326  1
  O  O341  1  0.53718972  0.08514502  0.69690816  1
  O  O342  1  0.53851754  0.58054785  0.19260802  1
  O  O343  1  0.54676722  0.58107004  0.70381700  1
  O  O344  1  0.87236191  0.08304160  0.19353468  1
  O  O345  1  0.87216087  0.08665585  0.69393622  1
  O  O346  1  0.88416607  0.57658029  0.18843631  1
  O  O347  1  0.88007431  0.58463612  0.69473913  1
  O  O348  1  0.04543616  0.32821368  0.19172376  1
  O  O349  1  0.04459814  0.33488818  0.69235688  1
  O  O350  1  0.04539538  0.83582954  0.19437540  1
  O  O351  1  0.05074389  0.83064891  0.69538302  1
  O  O352  1  0.37731196  0.33210904  0.19416410  1
  O  O353  1  0.37829656  0.33278095  0.69753796  1
  O  O354  1  0.37428376  0.83414076  0.19026577  1
  O  O355  1  0.37572296  0.83781634  0.69618208  1
  O  O356  1  0.71160931  0.33321610  0.19638125  1
  O  O357  1  0.71007612  0.33202455  0.69532721  1
  O  O358  1  0.70828834  0.83386954  0.18747509  1
  O  O359  1  0.70895069  0.83324770  0.70166939  1
  O  O360  1  0.21107682  0.41666572  0.20180410  1
  O  O361  1  0.21229718  0.41495095  0.70287678  1
  O  O362  1  0.21437354  0.91052043  0.19174458  1
  O  O363  1  0.20985684  0.92066826  0.69915932  1
  O  O364  1  0.54125706  0.41528411  0.19397678  1
  O  O365  1  0.54403548  0.41297731  0.69844909  1
  O  O366  1  0.54492486  0.91775947  0.19709044  1
  O  O367  1  0.54071595  0.91905375  0.69437974  1
  O  O368  1  0.87890164  0.41413199  0.18829082  1
  O  O369  1  0.87855591  0.41657726  0.69997922  1
  O  O370  1  0.87882687  0.91736744  0.19393420  1
  O  O371  1  0.86299515  0.91917983  0.69848057  1
  O  O372  1  0.04673241  0.16464693  0.19318753  1
  O  O373  1  0.04389332  0.16428668  0.69799956  1
  O  O374  1  0.04291146  0.67108040  0.19384674  1
  O  O375  1  0.03987233  0.67109902  0.69557163  1
  O  O376  1  0.37608055  0.16633425  0.19443475  1
  O  O377  1  0.37748556  0.16178906  0.69790184  1
  O  O378  1  0.37179171  0.66792446  0.19491514  1
  O  O379  1  0.37811480  0.66900173  0.70155106  1
  O  O380  1  0.71041886  0.16675974  0.18996551  1
  O  O381  1  0.70905580  0.16890799  0.69688151  1
  O  O382  1  0.70020079  0.66548473  0.19424468  1
  O  O383  1  0.71198370  0.66429421  0.69718666  1
  O  O384  1  0.12175991  0.08873510  0.30783390  1
  O  O385  1  0.12271765  0.08506187  0.81028831  1
  O  O386  1  0.12105359  0.58183480  0.29698224  1
  O  O387  1  0.12057290  0.58025225  0.80687015  1
  O  O388  1  0.46007260  0.08302264  0.30171629  1
  O  O389  1  0.45629729  0.08392728  0.80888585  1
  O  O390  1  0.45373291  0.58486215  0.29973946  1
  O  O391  1  0.45602925  0.58207710  0.80515854  1
  O  O392  1  0.79168060  0.08816912  0.30460478  1
  O  O393  1  0.79299510  0.08562035  0.80802159  1
  O  O394  1  0.78428297  0.57111304  0.30439015  1
  O  O395  1  0.79336788  0.58225984  0.80506621  1
  O  O396  1  0.29120488  0.32872651  0.30151388  1
  O  O397  1  0.28806613  0.33121563  0.80829457  1
  O  O398  1  0.28985831  0.83752067  0.30357784  1
  O  O399  1  0.29031570  0.83737907  0.80886721  1
  O  O400  1  0.62319965  0.33156977  0.30226030  1
  O  O401  1  0.62522601  0.33102464  0.80635539  1
  O  O402  1  0.62213374  0.83542149  0.30282851  1
  O  O403  1  0.62249767  0.83665030  0.80636172  1
  O  O404  1  0.95610435  0.33168118  0.30020799  1
  O  O405  1  0.95569728  0.33624469  0.80718822  1
  O  O406  1  0.95833821  0.83325454  0.30754592  1
  O  O407  1  0.95131179  0.82758962  0.80875269  1
  O  O408  1  0.12041742  0.41279803  0.30543958  1
  O  O409  1  0.12174068  0.41578947  0.80699788  1
  O  O410  1  0.11911266  0.90974390  0.30716415  1
  O  O411  1  0.13118274  0.92007357  0.80971618  1
  O  O412  1  0.45837239  0.41381140  0.30791753  1
  O  O413  1  0.45781324  0.41261349  0.81025241  1
  O  O414  1  0.45514646  0.91769904  0.30093437  1
  O  O415  1  0.45617685  0.91783737  0.80682102  1
  O  O416  1  0.79127984  0.41429557  0.30063830  1
  O  O417  1  0.79003194  0.41519816  0.80628894  1
  O  O418  1  0.78828307  0.91959614  0.29526461  1
  O  O419  1  0.79007990  0.91882507  0.80915655  1
  O  O420  1  0.29214054  0.16168670  0.30834961  1
  O  O421  1  0.28601191  0.16080555  0.81015631  1
  O  O422  1  0.28847295  0.67151375  0.30568305  1
  O  O423  1  0.29575222  0.66981313  0.81210949  1
  O  O424  1  0.62458948  0.16687421  0.30158574  1
  O  O425  1  0.62175142  0.16697221  0.80755870  1
  O  O426  1  0.61984500  0.66709193  0.29948473  1
  O  O427  1  0.62723566  0.66871244  0.80771870  1
  O  O428  1  0.95791609  0.16975235  0.30390669  1
  O  O429  1  0.95336183  0.16654938  0.80810972  1
  O  O430  1  0.96575716  0.66462889  0.30608012  1
  O  O431  1  0.95790339  0.66673123  0.80680314  1
  F  F432  1  0.03250295  -0.00467854  0.19368260  1
  F  F433  1  0.05035224  0.01288640  0.70210865  1
  F  F434  1  0.04578012  0.49614637  0.19845703  1
  F  F435  1  0.04583083  0.49979934  0.70315134  1
  F  F436  1  0.37857561  0.00179466  0.19721708  1
  F  F437  1  0.37809274  0.00176859  0.70644654  1
  F  F438  1  0.37551509  0.49714383  0.20430156  1
  F  F439  1  0.37927366  0.49584865  0.70741648  1
  F  F440  1  0.71260501  0.00481176  0.19776802  1
  F  F441  1  0.70866032  0.00211787  0.70434648  1
  F  F442  1  0.71088201  0.49798843  0.19679913  1
  F  F443  1  0.71418018  0.49776434  0.70579952  1
  F  F444  1  0.21245676  0.24516415  0.20199048  1
  F  F445  1  0.20959476  0.24628842  0.70340464  1
  F  F446  1  0.21062955  0.75112320  0.20176769  1
  F  F447  1  0.21474873  0.75585911  0.70710785  1
  F  F448  1  0.54476603  0.24963318  0.19998679  1
  F  F449  1  0.54533608  0.24843104  0.70449013  1
  F  F450  1  0.54049249  0.75128869  0.19832098  1
  F  F451  1  0.54484400  0.75104258  0.70582899  1
  F  F452  1  0.87999736  0.24808382  0.19745443  1
  F  F453  1  0.87381457  0.24897567  0.70266734  1
  F  F454  1  0.88562748  0.76085840  0.19780539  1
  F  F455  1  0.88022626  0.75062908  0.70430718  1
  F  F456  1  0.30040151  -0.00065856  0.29905970  1
  F  F457  1  0.28872387  0.00170955  0.80205585  1
  F  F458  1  0.28856465  0.50148920  0.30050535  1
  F  F459  1  0.29074586  0.49781510  0.80563770  1
  F  F460  1  0.62173327  0.00576223  0.29424765  1
  F  F461  1  0.61775740  -0.00447372  0.80262801  1
  F  F462  1  0.62099278  0.49650319  0.29421577  1
  F  F463  1  0.62598570  0.49583869  0.80271976  1
  F  F464  1  0.95393522  -0.00218042  0.30080752  1
  F  F465  1  0.94896777  0.01208610  0.80386319  1
  F  F466  1  0.95307394  0.49626696  0.29292863  1
  F  F467  1  0.95683545  0.50227684  0.79945567  1
  F  F468  1  0.12182805  0.24821068  0.29657636  1
  F  F469  1  0.12458418  0.25132554  0.80298542  1
  F  F470  1  0.12149053  0.75243042  0.29643149  1
  F  F471  1  0.11795148  0.75923229  0.80761082  1
  F  F472  1  0.45676185  0.24755347  0.29666922  1
  F  F473  1  0.46079725  0.24786681  0.80368106  1
  F  F474  1  0.45230865  0.75395837  0.29426211  1
  F  F475  1  0.45610596  0.75537711  0.80136415  1
  F  F476  1  0.78949319  0.24832401  0.29437371  1
  F  F477  1  0.78741598  0.25130160  0.80108277  1
  F  F478  1  0.78303947  0.76090184  0.29813678  1
  F  F479  1  0.78948449  0.74755404  0.80026713  1
