# generated using pymatgen
data_K24Na3Li5Mg64Fe17Si79(O5F)48
_symmetry_space_group_name_H-M   'P 1'
_cell_length_a   16.08037779
_cell_length_b   18.57156225
_cell_length_c   20.53691678
_cell_angle_alpha   90.00046714
_cell_angle_beta   100.01427884
_cell_angle_gamma   90.00066639
_symmetry_Int_Tables_number   1
_chemical_formula_structural   K24Na3Li5Mg64Fe17Si79(O5F)48
_chemical_formula_sum   'K24 Na3 Li5 Mg64 Fe17 Si79 O240 F48'
_cell_volume   6039.65720957
_cell_formula_units_Z   1
loop_
 _symmetry_equiv_pos_site_id
 _symmetry_equiv_pos_as_xyz
  1  'x, y, z'
loop_
 _atom_site_type_symbol
 _atom_site_label
 _atom_site_symmetry_multiplicity
 _atom_site_fract_x
 _atom_site_fract_y
 _atom_site_fract_z
 _atom_site_occupancy
  K  K0  1  -0.00706236  -0.00697322  -0.01054138  1
  K  K1  1  0.00185891  -0.00682631  0.50545940  1
  K  K2  1  -0.00683877  0.49974339  -0.00443886  1
  K  K3  1  0.00793789  0.50333440  0.50391694  1
  K  K4  1  0.33773571  0.00099278  -0.00559517  1
  K  K5  1  0.32800858  -0.00719682  0.50271687  1
  K  K6  1  0.33231951  0.50845533  -0.00232637  1
  K  K7  1  0.32719555  0.50228435  0.49915271  1
  K  K8  1  0.66405977  -0.00273733  -0.00822380  1
  K  K9  1  0.67581683  -0.00827176  0.51650858  1
  K  K10  1  0.66585802  0.50198868  -0.00185713  1
  K  K11  1  0.66058102  0.50631202  0.49667024  1
  K  K12  1  0.15438514  0.25253567  -0.00641116  1
  K  K13  1  0.16844567  0.25164995  0.50322992  1
  K  K14  1  0.16843154  0.74557384  -0.00529158  1
  K  K15  1  0.15845289  0.75224352  0.49890653  1
  K  K16  1  0.49866582  0.24690606  -0.00521021  1
  K  K17  1  0.49852951  0.25466297  0.50136456  1
  K  K18  1  0.50019797  0.73855398  -0.01045703  1
  K  K19  1  0.51220760  0.75042193  0.50939241  1
  K  K20  1  0.84263176  0.25579067  -0.00496758  1
  K  K21  1  0.84057308  0.24708973  0.50703600  1
  K  K22  1  0.83633446  0.75402246  -0.01238922  1
  K  K23  1  0.82906192  0.75176236  0.50257786  1
  Na  Na24  1  0.66542630  0.75003561  0.74649984  1
  Na  Na25  1  0.50342486  0.82912558  0.74875400  1
  Na  Na26  1  0.83301094  0.83240158  0.25987927  1
  Li  Li27  1  0.49875626  0.50301064  0.25079536  1
  Li  Li28  1  0.84110807  -0.00012189  0.75329111  1
  Li  Li29  1  -0.00228883  0.07990150  0.75798651  1
  Li  Li30  1  0.16772506  0.16761498  0.25370947  1
  Li  Li31  1  -0.00014878  0.58446890  0.75243402  1
  Mg  Mg32  1  -0.00280303  0.74892410  0.74969125  1
  Mg  Mg33  1  0.66604113  0.25164543  0.24853667  1
  Mg  Mg34  1  0.49899061  0.49789176  0.74920806  1
  Mg  Mg35  1  0.33207056  0.24885176  0.74932149  1
  Mg  Mg36  1  -0.00095873  0.24644726  0.75066780  1
  Mg  Mg37  1  0.66731115  0.24957824  0.75136883  1
  Mg  Mg38  1  0.16329901  0.50039717  0.74641250  1
  Mg  Mg39  1  0.33344967  0.74847879  0.24864005  1
  Mg  Mg40  1  0.83426619  0.00007054  0.25317643  1
  Mg  Mg41  1  0.16616701  0.00208512  0.25473210  1
  Mg  Mg42  1  0.16600358  0.49989765  0.25119731  1
  Mg  Mg43  1  0.49859702  0.00045839  0.25033241  1
  Mg  Mg44  1  0.33081393  0.25078501  0.25316826  1
  Mg  Mg45  1  0.83266309  0.49977709  0.24556921  1
  Mg  Mg46  1  0.33251921  0.74873409  0.75069722  1
  Mg  Mg47  1  0.16297384  0.00038725  0.75208710  1
  Mg  Mg48  1  -0.00071087  0.74977791  0.25500782  1
  Mg  Mg49  1  0.66474061  0.74962750  0.25273940  1
  Mg  Mg50  1  0.00331973  0.25000417  0.24860167  1
  Mg  Mg51  1  0.50116915  -0.00217094  0.75303997  1
  Mg  Mg52  1  0.83654889  0.50134239  0.75018643  1
  Mg  Mg53  1  0.00077228  0.58428954  0.24946144  1
  Mg  Mg54  1  0.66761046  0.58343092  0.74839874  1
  Mg  Mg55  1  0.33154924  0.91608540  0.25025907  1
  Mg  Mg56  1  0.50200272  0.16411810  0.75204924  1
  Mg  Mg57  1  0.16329551  0.66481213  0.74967707  1
  Mg  Mg58  1  0.33583948  0.58331743  0.24920348  1
  Mg  Mg59  1  0.49858555  0.66339112  0.24785420  1
  Mg  Mg60  1  0.50011984  0.66489972  0.74855017  1
  Mg  Mg61  1  0.83286406  0.33532448  0.24462663  1
  Mg  Mg62  1  0.49952142  0.83372943  0.24968386  1
  Mg  Mg63  1  0.16471838  0.33479275  0.74576577  1
  Mg  Mg64  1  -0.00121529  0.91894220  0.75154069  1
  Mg  Mg65  1  0.66349359  0.41787626  0.24672225  1
  Mg  Mg66  1  0.16941449  0.33111149  0.25222334  1
  Mg  Mg67  1  0.32999084  0.41571332  0.74534941  1
  Mg  Mg68  1  0.16742302  0.66471290  0.25021086  1
  Mg  Mg69  1  0.83560174  0.16691178  0.25109822  1
  Mg  Mg70  1  0.00068749  0.41602809  0.74727531  1
  Mg  Mg71  1  0.67037410  0.08316609  0.75082251  1
  Mg  Mg72  1  0.33527044  0.41723629  0.25297155  1
  Mg  Mg73  1  0.83819270  0.16313025  0.75312088  1
  Mg  Mg74  1  0.66843543  0.41451043  0.75078124  1
  Mg  Mg75  1  0.00455006  0.08496532  0.25389049  1
  Mg  Mg76  1  0.67245531  0.91934711  0.74971767  1
  Mg  Mg77  1  0.83607294  0.66639894  0.74675931  1
  Mg  Mg78  1  0.66775820  0.91684967  0.25344678  1
  Mg  Mg79  1  0.16640416  0.83359401  0.75331667  1
  Mg  Mg80  1  0.33079142  0.08598576  0.25242771  1
  Mg  Mg81  1  0.33070643  0.58443546  0.74673784  1
  Mg  Mg82  1  0.16596385  0.83523671  0.25357164  1
  Mg  Mg83  1  0.50084513  0.33216591  0.74804997  1
  Mg  Mg84  1  -0.00107546  0.41613341  0.24715638  1
  Mg  Mg85  1  0.49890976  0.16754702  0.25173412  1
  Mg  Mg86  1  0.66244083  0.58373313  0.24934664  1
  Mg  Mg87  1  0.83457511  0.83676741  0.75238842  1
  Mg  Mg88  1  0.83667303  0.33369185  0.75063840  1
  Mg  Mg89  1  0.00094707  0.91552222  0.25664749  1
  Mg  Mg90  1  0.83185973  0.66556681  0.25132280  1
  Mg  Mg91  1  0.16394652  0.16467478  0.75106135  1
  Mg  Mg92  1  0.66880272  0.08445513  0.25363998  1
  Mg  Mg93  1  0.33606531  0.91527427  0.75373449  1
  Mg  Mg94  1  0.49863460  0.33808821  0.25137904  1
  Mg  Mg95  1  0.33477359  0.08319798  0.75317315  1
  Fe  Fe96  1  0.14080720  0.91426360  0.39483967  1
  Fe  Fe97  1  0.64185014  0.83108981  0.89173768  1
  Fe  Fe98  1  0.64137280  0.33404684  0.88836752  1
  Fe  Fe99  1  0.18897214  0.42080305  0.60509376  1
  Fe  Fe100  1  0.85757294  0.41957234  0.10543871  1
  Fe  Fe101  1  0.35808376  0.66453583  0.10745790  1
  Fe  Fe102  1  0.14109699  0.08509712  0.88940749  1
  Fe  Fe103  1  0.97639891  0.66198016  0.88827684  1
  Fe  Fe104  1  0.80500166  0.92439244  0.39427413  1
  Fe  Fe105  1  0.47589318  0.08446398  0.89131749  1
  Fe  Fe106  1  0.14411232  0.58422042  0.38997283  1
  Fe  Fe107  1  0.98058464  0.83421696  0.89104610  1
  Fe  Fe108  1  0.64079696  0.66868670  0.38937457  1
  Fe  Fe109  1  0.31023471  0.33086237  0.39304187  1
  Fe  Fe110  1  0.97545048  0.33394844  0.88821368  1
  Fe  Fe111  1  0.30791321  0.66534053  0.88701073  1
  Fe  Fe112  1  0.69326606  0.83197922  0.60735073  1
  Si  Si113  1  0.02545297  0.83533450  0.11725477  1
  Si  Si114  1  0.47606436  0.42089046  0.38858695  1
  Si  Si115  1  0.30617295  0.17328735  0.88891442  1
  Si  Si116  1  0.68835742  0.32839288  0.11009586  1
  Si  Si117  1  0.63997734  0.65716129  0.88480868  1
  Si  Si118  1  0.31056000  0.66931763  0.38666686  1
  Si  Si119  1  0.31567137  0.16276736  0.39020232  1
  Si  Si120  1  0.02316713  0.67124987  0.61362459  1
  Si  Si121  1  0.85722250  0.59167332  0.11126890  1
  Si  Si122  1  0.69376540  0.16794737  0.61412666  1
  Si  Si123  1  0.68763395  0.83612402  0.11721795  1
  Si  Si124  1  0.47508172  0.57644001  0.88404373  1
  Si  Si125  1  0.97294589  0.82781023  0.39357992  1
  Si  Si126  1  0.52269117  0.57922849  0.61228185  1
  Si  Si127  1  0.02923724  0.33026832  0.11257837  1
  Si  Si128  1  0.52646444  0.41410022  0.11335093  1
  Si  Si129  1  0.19047688  0.92116720  0.11602156  1
  Si  Si130  1  0.97104166  0.16456703  0.89119307  1
  Si  Si131  1  0.13934907  0.41298668  0.38620225  1
  Si  Si132  1  0.35777126  0.16507173  0.61377302  1
  Si  Si133  1  0.30700772  0.33585599  0.88189043  1
  Si  Si134  1  0.52353170  0.91904406  0.11526383  1
  Si  Si135  1  0.19199015  0.08534682  0.11813789  1
  Si  Si136  1  0.14168661  0.57742895  0.88474298  1
  Si  Si137  1  0.18751006  0.57877039  0.11202479  1
  Si  Si138  1  0.14919193  0.91827941  0.88971996  1
  Si  Si139  1  0.97345078  0.33640079  0.38256147  1
  Si  Si140  1  0.02660741  0.66979070  0.11532771  1
  Si  Si141  1  0.80748624  0.41308335  0.38237043  1
  Si  Si142  1  0.85921875  0.91682026  0.11851006  1
  Si  Si143  1  0.69266072  0.67131778  0.11383692  1
  Si  Si144  1  0.02648277  0.83572936  0.61559232  1
  Si  Si145  1  0.31256576  0.83114390  0.38695025  1
  Si  Si146  1  0.86101359  0.57985007  0.61174767  1
  Si  Si147  1  0.80605538  0.58318086  0.88413821  1
  Si  Si148  1  0.47285644  0.91552814  0.38439058  1
  Si  Si149  1  0.35755789  0.16931911  0.11627096  1
  Si  Si150  1  0.19215954  0.41387608  0.11605444  1
  Si  Si151  1  0.63793649  0.83889696  0.38882623  1
  Si  Si152  1  0.69326915  0.65641896  0.60969816  1
  Si  Si153  1  0.80499964  0.57721981  0.38445847  1
  Si  Si154  1  0.35961209  0.33562773  0.11500619  1
  Si  Si155  1  0.02417247  0.16445165  0.11665796  1
  Si  Si156  1  0.85871454  0.41497094  0.61117138  1
  Si  Si157  1  0.02591242  0.16517907  0.61384163  1
  Si  Si158  1  0.97935988  0.17359437  0.38631523  1
  Si  Si159  1  0.69148856  0.16274159  0.11580890  1
  Si  Si160  1  0.52335605  0.08464917  0.11662688  1
  Si  Si161  1  0.52536680  0.41401552  0.61231162  1
  Si  Si162  1  0.36009487  0.33084727  0.61030772  1
  Si  Si163  1  0.63989242  0.33586268  0.38514433  1
  Si  Si164  1  0.47815543  0.07962937  0.38661862  1
  Si  Si165  1  0.47168916  0.91656576  0.89100703  1
  Si  Si166  1  0.53166188  0.58112460  0.11043855  1
  Si  Si167  1  0.69352346  0.33449329  0.61259477  1
  Si  Si168  1  0.52649799  0.08646318  0.61352355  1
  Si  Si169  1  0.64748592  0.16755408  0.88916867  1
  Si  Si170  1  0.35510244  0.83755714  0.11225747  1
  Si  Si171  1  0.02239825  0.32945829  0.60807287  1
  Si  Si172  1  0.19347449  0.91504951  0.61671436  1
  Si  Si173  1  0.14455671  0.41652428  0.88476838  1
  Si  Si174  1  0.64070092  0.16957125  0.38672291  1
  Si  Si175  1  0.80601035  0.08366120  0.88525419  1
  Si  Si176  1  0.36128037  0.66983615  0.61214145  1
  Si  Si177  1  0.96987619  0.66106521  0.38851508  1
  Si  Si178  1  0.35827061  0.83559756  0.61562501  1
  Si  Si179  1  0.18985333  0.59189819  0.60797679  1
  Si  Si180  1  0.80573801  0.42074846  0.88575991  1
  Si  Si181  1  0.80817741  0.91915801  0.89118935  1
  Si  Si182  1  0.47158434  0.58609007  0.38692908  1
  Si  Si183  1  0.81337730  0.09339010  0.39041872  1
  Si  Si184  1  0.19279983  0.08171527  0.61489700  1
  Si  Si185  1  0.85915702  0.08136669  0.11609193  1
  Si  Si186  1  0.86082008  0.08524968  0.61707209  1
  Si  Si187  1  0.14407553  0.08608139  0.39065155  1
  Si  Si188  1  0.30956887  0.83388387  0.88760264  1
  Si  Si189  1  0.86256904  0.91920135  0.61298297  1
  Si  Si190  1  0.52377903  0.92229416  0.61189419  1
  Si  Si191  1  0.47016402  0.41297808  0.88317408  1
  O  O192  1  0.27053467  0.12453519  0.08843291  1
  O  O193  1  0.27040326  0.12022365  0.58335371  1
  O  O194  1  0.26172285  0.60816171  0.07560859  1
  O  O195  1  0.26840072  0.63526476  0.58131541  1
  O  O196  1  0.60442354  0.11761143  0.08780831  1
  O  O197  1  0.60339905  0.12772111  0.58292699  1
  O  O198  1  0.61384641  0.61809947  0.08289309  1
  O  O199  1  0.60353800  0.61068867  0.58228580  1
  O  O200  1  0.93694491  0.11943364  0.08609821  1
  O  O201  1  0.93654679  0.12413677  0.58323859  1
  O  O202  1  0.93759712  0.63022257  0.08490369  1
  O  O203  1  0.93679048  0.62449201  0.58328643  1
  O  O204  1  0.11617311  0.35749130  0.08721573  1
  O  O205  1  0.08908660  0.36988882  0.57016812  1
  O  O206  1  0.10189417  0.87784233  0.08869659  1
  O  O207  1  0.10693769  0.87111660  0.58601685  1
  O  O208  1  0.43580384  0.37390424  0.08352512  1
  O  O209  1  0.44532628  0.36166272  0.58365080  1
  O  O210  1  0.43555295  0.87741396  0.08571584  1
  O  O211  1  0.42967847  0.88365199  0.58678679  1
  O  O212  1  0.76164552  0.36187860  0.07533544  1
  O  O213  1  0.76675697  0.37676517  0.58037224  1
  O  O214  1  0.77029379  0.87305077  0.09222799  1
  O  O215  1  0.78151206  0.87721051  0.57200234  1
  O  O216  1  0.27452509  0.38254550  0.08652202  1
  O  O217  1  0.28076270  0.37656877  0.57352855  1
  O  O218  1  0.27022320  0.88755138  0.08615246  1
  O  O219  1  0.26784773  0.87526778  0.58351800  1
  O  O220  1  0.59771695  0.36834932  0.08193694  1
  O  O221  1  0.60529874  0.37771852  0.58283376  1
  O  O222  1  0.60351751  0.88478546  0.08561214  1
  O  O223  1  0.58991657  0.88147298  0.57368087  1
  O  O224  1  0.95187388  0.37866872  0.07606053  1
  O  O225  1  0.92763567  0.36537996  0.58098237  1
  O  O226  1  0.93554790  0.87630543  0.08792841  1
  O  O227  1  0.94616058  0.88638380  0.58429259  1
  O  O228  1  0.10468773  0.12889779  0.08853053  1
  O  O229  1  0.10357079  0.12336460  0.58435039  1
  O  O230  1  0.10093675  0.62649315  0.08594985  1
  O  O231  1  0.10243999  0.63850764  0.58116238  1
  O  O232  1  0.43767782  0.13162933  0.08793718  1
  O  O233  1  0.43765028  0.12978885  0.58418268  1
  O  O234  1  0.44851236  0.62262867  0.07327961  1
  O  O235  1  0.43563850  0.62460264  0.58210866  1
  O  O236  1  0.77045241  0.12488874  0.08757552  1
  O  O237  1  0.77090265  0.12859966  0.58402885  1
  O  O238  1  0.77624266  0.64519121  0.08467743  1
  O  O239  1  0.76857721  0.61353064  0.57768260  1
  O  O240  1  0.06319028  0.12679519  0.41735210  1
  O  O241  1  0.04192210  0.10595898  0.92313980  1
  O  O242  1  0.04573897  0.60912440  0.42266110  1
  O  O243  1  0.05593918  0.58760496  0.91540499  1
  O  O244  1  0.39532048  0.10535572  0.41706958  1
  O  O245  1  0.38156475  0.12075596  0.92431557  1
  O  O246  1  0.38369590  0.60894116  0.41405115  1
  O  O247  1  0.39663442  0.60070730  0.91821974  1
  O  O248  1  0.73063569  0.13091943  0.41686088  1
  O  O249  1  0.72090418  0.10640462  0.91522965  1
  O  O250  1  0.72533640  0.59919566  0.41809450  1
  O  O251  1  0.71572558  0.59763341  0.91004122  1
  O  O252  1  0.20479718  0.35009651  0.41709702  1
  O  O253  1  0.22280196  0.35910974  0.91136054  1
  O  O254  1  0.23494520  0.85308585  0.42322639  1
  O  O255  1  0.22286105  0.85632060  0.91478080  1
  O  O256  1  0.56493261  0.37463192  0.41648005  1
  O  O257  1  0.53827421  0.35448265  0.91743166  1
  O  O258  1  0.54571535  0.85752206  0.41238671  1
  O  O259  1  0.53948186  0.85510968  0.92126257  1
  O  O260  1  0.88751608  0.35993272  0.41096501  1
  O  O261  1  0.87819765  0.36491239  0.91920748  1
  O  O262  1  0.88693311  0.85245232  0.41904413  1
  O  O263  1  0.88891567  0.87159464  0.92640756  1
  O  O264  1  0.04714397  0.39414774  0.41032364  1
  O  O265  1  0.06791809  0.39414539  0.92227232  1
  O  O266  1  0.05209447  0.87530546  0.43217806  1
  O  O267  1  0.06926348  0.89836676  0.92437336  1
  O  O268  1  0.40315248  0.39102301  0.42693723  1
  O  O269  1  0.38015251  0.39575245  0.90912449  1
  O  O270  1  0.38832410  0.89091399  0.41293683  1
  O  O271  1  0.38008076  0.89606037  0.91446490  1
  O  O272  1  0.72780875  0.37941249  0.41381997  1
  O  O273  1  0.71895963  0.40777541  0.91491136  1
  O  O274  1  0.70014126  0.90386730  0.41895252  1
  O  O275  1  0.72951117  0.89539257  0.92793477  1
  O  O276  1  0.23018694  0.13439981  0.41699992  1
  O  O277  1  0.22110189  0.15903410  0.91920837  1
  O  O278  1  0.22973893  0.65221461  0.42130990  1
  O  O279  1  0.21210742  0.63528397  0.91979223  1
  O  O280  1  0.56180444  0.13032166  0.41499149  1
  O  O281  1  0.56601424  0.14731514  0.92276825  1
  O  O282  1  0.54469211  0.63938370  0.42367439  1
  O  O283  1  0.55767096  0.62557099  0.91497845  1
  O  O284  1  0.89408243  0.14906493  0.41492853  1
  O  O285  1  0.88157520  0.13988937  0.91625253  1
  O  O286  1  0.88394351  0.63099424  0.41364361  1
  O  O287  1  0.87500401  0.63943902  0.92021392  1
  O  O288  1  0.17953964  0.00372447  0.08688972  1
  O  O289  1  0.18512324  -0.00165444  0.58658503  1
  O  O290  1  0.16690311  0.49438901  0.08623040  1
  O  O291  1  0.17928247  0.51509148  0.57025049  1
  O  O292  1  0.50951202  0.00262142  0.08798880  1
  O  O293  1  0.51360397  0.00621428  0.58020874  1
  O  O294  1  0.52656160  0.49600131  0.08363415  1
  O  O295  1  0.50825829  0.49585271  0.58182392  1
  O  O296  1  0.84764339  -0.00093414  0.08625744  1
  O  O297  1  0.85286566  0.00403673  0.58545845  1
  O  O298  1  0.83834520  0.51476309  0.07466889  1
  O  O299  1  0.86099157  0.49668574  0.58043919  1
  O  O300  1  0.01327872  0.24622140  0.08629778  1
  O  O301  1  0.01512300  0.24563025  0.57878805  1
  O  O302  1  0.02178767  0.75318820  0.08752469  1
  O  O303  1  0.00901748  0.75411450  0.58334975  1
  O  O304  1  0.34820744  0.25191282  0.08651068  1
  O  O305  1  0.34751956  0.24673887  0.58311063  1
  O  O306  1  0.33885744  0.76025773  0.07752733  1
  O  O307  1  0.36011981  0.75337137  0.58406832  1
  O  O308  1  0.67475858  0.24349872  0.08553116  1
  O  O309  1  0.68573151  0.25122418  0.58286612  1
  O  O310  1  0.67257554  0.75432836  0.08608974  1
  O  O311  1  0.68168116  0.73507974  0.57613430  1
  O  O312  1  0.15931898  0.00944760  0.42846404  1
  O  O313  1  0.18800459  -0.00470105  0.91881898  1
  O  O314  1  0.17280927  0.48967519  0.41806392  1
  O  O315  1  0.18121951  0.49629751  0.90938107  1
  O  O316  1  0.50022890  -0.00288424  0.41288360  1
  O  O317  1  0.50081100  -0.00701954  0.92836733  1
  O  O318  1  0.49755679  0.50375888  0.41471994  1
  O  O319  1  0.50121059  0.49348370  0.91006873  1
  O  O320  1  0.83705486  0.01861343  0.42787858  1
  O  O321  1  0.83193093  0.00408088  0.91601765  1
  O  O322  1  0.83163148  0.49378626  0.41119838  1
  O  O323  1  0.83871817  0.50225401  0.90983303  1
  O  O324  1  0.34469812  0.23816038  0.42621591  1
  O  O325  1  0.33858384  0.25704109  0.91187856  1
  O  O326  1  0.34857035  0.75030021  0.41072729  1
  O  O327  1  0.34169683  0.75734869  0.92011516  1
  O  O328  1  0.64743618  0.25283169  0.41504213  1
  O  O329  1  0.68556990  0.24444849  0.91896602  1
  O  O330  1  0.67092418  0.76203002  0.42048366  1
  O  O331  1  0.66661832  0.73357816  0.91975105  1
  O  O332  1  0.99943036  0.25620586  0.41370054  1
  O  O333  1  0.99639879  0.24241063  0.92657790  1
  O  O334  1  0.98946100  0.74260771  0.41800438  1
  O  O335  1  1.01195092  0.74660078  0.93163503  1
  O  O336  1  0.21204369  0.08226709  0.19794096  1
  O  O337  1  0.21305552  0.08452170  0.69454399  1
  O  O338  1  0.20978350  0.58183815  0.19288230  1
  O  O339  1  0.20749900  0.58443478  0.68827764  1
  O  O340  1  0.54225506  0.08594169  0.19715567  1
  O  O341  1  0.54565047  0.08710364  0.69336101  1
  O  O342  1  0.54504918  0.58387920  0.19035869  1
  O  O343  1  0.54063772  0.57749084  0.69228101  1
  O  O344  1  0.87665441  0.08414154  0.19682751  1
  O  O345  1  0.87743067  0.08896660  0.69540172  1
  O  O346  1  0.87557080  0.58501106  0.19243072  1
  O  O347  1  0.87361340  0.57910662  0.69083425  1
  O  O348  1  0.04380233  0.33238094  0.19356015  1
  O  O349  1  0.04311462  0.33161581  0.68841785  1
  O  O350  1  0.04245049  0.83408987  0.19755524  1
  O  O351  1  0.04646694  0.83304776  0.69528528  1
  O  O352  1  0.37904800  0.33350807  0.19518363  1
  O  O353  1  0.37641100  0.33181356  0.69120499  1
  O  O354  1  0.37454589  0.83648037  0.19358829  1
  O  O355  1  0.36726474  0.83295766  0.69457795  1
  O  O356  1  0.70760486  0.33151232  0.19157942  1
  O  O357  1  0.71209822  0.33347738  0.69236808  1
  O  O358  1  0.69796020  0.83405277  0.19642250  1
  O  O359  1  0.71787424  0.84279057  0.69597102  1
  O  O360  1  0.21017924  0.41586704  0.19632790  1
  O  O361  1  0.20984325  0.41615553  0.69641156  1
  O  O362  1  0.21023930  0.91900348  0.19657193  1
  O  O363  1  0.21184394  0.91613316  0.69659964  1
  O  O364  1  0.54479755  0.41104517  0.19313500  1
  O  O365  1  0.54262786  0.41550855  0.69226804  1
  O  O366  1  0.54167034  0.91935391  0.19598194  1
  O  O367  1  0.54598169  0.92707780  0.69114411  1
  O  O368  1  0.87703875  0.41676298  0.19756212  1
  O  O369  1  0.87385306  0.41537717  0.69093415  1
  O  O370  1  0.88294315  0.92336640  0.19759873  1
  O  O371  1  0.87946833  0.91556056  0.69234284  1
  O  O372  1  0.03846677  0.16496207  0.19630897  1
  O  O373  1  0.04569185  0.17116689  0.69266475  1
  O  O374  1  0.04345101  0.66885228  0.19578914  1
  O  O375  1  0.04508706  0.67033677  0.69270320  1
  O  O376  1  0.37734051  0.16801035  0.19682531  1
  O  O377  1  0.37459201  0.16616444  0.69380315  1
  O  O378  1  0.37695255  0.66650063  0.19918716  1
  O  O379  1  0.37641529  0.66441588  0.69183637  1
  O  O380  1  0.70986723  0.16545098  0.19664969  1
  O  O381  1  0.70926865  0.16882943  0.69394099  1
  O  O382  1  0.71010371  0.66766833  0.19404055  1
  O  O383  1  0.71451519  0.65430149  0.68925002  1
  O  O384  1  0.12344970  0.08211673  0.31036300  1
  O  O385  1  0.12363868  0.08416351  0.79874023  1
  O  O386  1  0.12157958  0.58322483  0.29796492  1
  O  O387  1  0.12785158  0.58040673  0.80374361  1
  O  O388  1  0.45885936  0.08386503  0.30594067  1
  O  O389  1  0.45573794  0.08430547  0.79921924  1
  O  O390  1  0.45508170  0.58647722  0.30668696  1
  O  O391  1  0.45522497  0.57842404  0.80287184  1
  O  O392  1  0.79180780  0.09016076  0.30908465  1
  O  O393  1  0.78760081  0.08799064  0.80556792  1
  O  O394  1  0.78859763  0.57843248  0.30325151  1
  O  O395  1  0.78973005  0.58288910  0.80292269  1
  O  O396  1  0.29108833  0.33371606  0.30112553  1
  O  O397  1  0.28987737  0.33307295  0.80123298  1
  O  O398  1  0.29124375  0.83397476  0.30554988  1
  O  O399  1  0.29083072  0.83262627  0.80624128  1
  O  O400  1  0.62344855  0.33335985  0.30466160  1
  O  O401  1  0.62074298  0.33241293  0.79608724  1
  O  O402  1  0.61993624  0.83644692  0.30687077  1
  O  O403  1  0.62906882  0.84324669  0.80527275  1
  O  O404  1  0.95502808  0.33234190  0.30217777  1
  O  O405  1  0.95720812  0.33279365  0.79624580  1
  O  O406  1  0.96937990  0.83202258  0.31343000  1
  O  O407  1  0.95805171  0.83324098  0.79901034  1
  O  O408  1  0.12125455  0.41466845  0.30435049  1
  O  O409  1  0.12280580  0.41404098  0.80373272  1
  O  O410  1  0.12380536  0.91780811  0.30275574  1
  O  O411  1  0.12735160  0.91618191  0.80801478  1
  O  O412  1  0.45602280  0.41374450  0.30855818  1
  O  O413  1  0.45403869  0.41318679  0.80167736  1
  O  O414  1  0.45465354  0.91822095  0.30348475  1
  O  O415  1  0.45318197  0.92393356  0.81047253  1
  O  O416  1  0.78638163  0.41317388  0.30201615  1
  O  O417  1  0.79019676  0.41620434  0.80388303  1
  O  O418  1  0.78225777  0.92989958  0.30370203  1
  O  O419  1  0.79105210  0.91671195  0.81085415  1
  O  O420  1  0.29987964  0.16584010  0.30987190  1
  O  O421  1  0.29085329  0.16872883  0.80695648  1
  O  O422  1  0.28894384  0.66726458  0.30542053  1
  O  O423  1  0.28587409  0.66460034  0.79546004  1
  O  O424  1  0.62333622  0.16855164  0.30599009  1
  O  O425  1  0.62521230  0.16747503  0.80707811  1
  O  O426  1  0.61833344  0.66599684  0.29767546  1
  O  O427  1  0.61771719  0.65610086  0.80464463  1
  O  O428  1  0.95835147  0.16918643  0.30581245  1
  O  O429  1  0.95545068  0.17082909  0.81050716  1
  O  O430  1  0.95559057  0.66286902  0.30722682  1
  O  O431  1  0.95541975  0.66603190  0.79790211  1
  F  F432  1  0.04507208  0.00239917  0.20399919  1
  F  F433  1  0.05068332  -0.00903270  0.69610614  1
  F  F434  1  0.04377649  0.49856809  0.19937310  1
  F  F435  1  0.04685687  0.49269757  0.69540768  1
  F  F436  1  0.37767110  0.00289723  0.20263077  1
  F  F437  1  0.37716901  -0.00122953  0.70085886  1
  F  F438  1  0.37554721  0.49789040  0.20220423  1
  F  F439  1  0.37843263  0.49848057  0.69799452  1
  F  F440  1  0.70975427  0.00631794  0.20069986  1
  F  F441  1  0.70841491  0.00470342  0.69934169  1
  F  F442  1  0.71088637  0.49928101  0.19851266  1
  F  F443  1  0.71186800  0.49626642  0.70055674  1
  F  F444  1  0.21415806  0.24949040  0.20127799  1
  F  F445  1  0.21230263  0.24825230  0.69981554  1
  F  F446  1  0.21051857  0.75205504  0.20273754  1
  F  F447  1  0.20944534  0.75250677  0.70051496  1
  F  F448  1  0.54465507  0.24951533  0.20244749  1
  F  F449  1  0.54426643  0.24654753  0.69853483  1
  F  F450  1  0.54214331  0.75318181  0.19990141  1
  F  F451  1  0.53326585  0.73410521  0.68664484  1
  F  F452  1  0.87818536  0.24837398  0.20064380  1
  F  F453  1  0.87667662  0.24800075  0.69903502  1
  F  F454  1  0.88325184  0.74312502  0.20365568  1
  F  F455  1  0.87824301  0.74843966  0.69430837  1
  F  F456  1  0.29042598  0.00046351  0.30003055  1
  F  F457  1  0.28709101  0.00061150  0.79666731  1
  F  F458  1  0.28736638  0.50080506  0.29820306  1
  F  F459  1  0.28817170  0.50020542  0.79289466  1
  F  F460  1  0.61791257  0.00436657  0.29809797  1
  F  F461  1  0.62153038  0.00435547  0.79842130  1
  F  F462  1  0.62486788  0.49762474  0.29663921  1
  F  F463  1  0.61993492  0.49752952  0.79428501  1
  F  F464  1  0.95592723  0.00387209  0.30170603  1
  F  F465  1  0.95854345  -0.00193857  0.79961177  1
  F  F466  1  0.95367599  0.50043787  0.29585903  1
  F  F467  1  0.95372621  0.49393626  0.79516392  1
  F  F468  1  0.11902632  0.25166555  0.29856483  1
  F  F469  1  0.12192985  0.25222272  0.79498396  1
  F  F470  1  0.12290210  0.74905698  0.29850192  1
  F  F471  1  0.12177730  0.74918776  0.79780080  1
  F  F472  1  0.45744106  0.25075267  0.29900917  1
  F  F473  1  0.45380218  0.24971607  0.79446534  1
  F  F474  1  0.45403350  0.75322163  0.29644452  1
  F  F475  1  0.44927902  0.73765040  0.80004435  1
  F  F476  1  0.78714593  0.25181931  0.29601257  1
  F  F477  1  0.78846996  0.25082296  0.79536735  1
  F  F478  1  0.78115566  0.73782526  0.30327216  1
  F  F479  1  0.80117551  0.74802650  0.79754115  1
