# generated using pymatgen
data_K24Na3Li5Mg64Fe17Si79(O5F)48
_symmetry_space_group_name_H-M   'P 1'
_cell_length_a   16.09730087
_cell_length_b   18.59791157
_cell_length_c   20.56798406
_cell_angle_alpha   90.01112169
_cell_angle_beta   100.02079749
_cell_angle_gamma   89.98189847
_symmetry_Int_Tables_number   1
_chemical_formula_structural   K24Na3Li5Mg64Fe17Si79(O5F)48
_chemical_formula_sum   'K24 Na3 Li5 Mg64 Fe17 Si79 O240 F48'
_cell_volume   6063.62833621
_cell_formula_units_Z   1
loop_
 _symmetry_equiv_pos_site_id
 _symmetry_equiv_pos_as_xyz
  1  'x, y, z'
loop_
 _atom_site_type_symbol
 _atom_site_label
 _atom_site_symmetry_multiplicity
 _atom_site_fract_x
 _atom_site_fract_y
 _atom_site_fract_z
 _atom_site_occupancy
  K  K0  1  0.00212185  0.00415016  -0.00237741  1
  K  K1  1  -0.00302757  0.00635476  0.49942256  1
  K  K2  1  -0.00492190  0.49774496  -0.00211202  1
  K  K3  1  0.00042179  0.49734875  0.49889635  1
  K  K4  1  0.32585506  0.00903889  0.00033153  1
  K  K5  1  0.33078376  0.01421294  0.49457478  1
  K  K6  1  0.34196160  0.49590168  0.00751537  1
  K  K7  1  0.33966585  0.49977251  0.49747856  1
  K  K8  1  0.66727430  0.00631161  0.00857994  1
  K  K9  1  0.66744816  0.00825211  0.49570511  1
  K  K10  1  0.65582758  0.48894345  -0.00632911  1
  K  K11  1  0.65887196  0.49877680  0.49986469  1
  K  K12  1  0.17510727  0.25291891  0.00408347  1
  K  K13  1  0.16765140  0.25287917  0.49996886  1
  K  K14  1  0.17698654  0.74709489  0.00445667  1
  K  K15  1  0.16410368  0.73636293  0.49526779  1
  K  K16  1  0.49582520  0.25699908  0.00020886  1
  K  K17  1  0.49868100  0.25245725  0.50261101  1
  K  K18  1  0.48663292  0.73948016  0.00638806  1
  K  K19  1  0.50189544  0.74034629  0.49191410  1
  K  K20  1  0.82677880  0.25821338  -0.00404247  1
  K  K21  1  0.83348885  0.25284711  0.49581928  1
  K  K22  1  0.82990013  0.74444129  -0.00154400  1
  K  K23  1  0.83266465  0.73952038  0.49703631  1
  Na  Na24  1  0.50034722  0.49635130  0.75133998  1
  Na  Na25  1  0.83156236  0.16714743  0.25506965  1
  Na  Na26  1  0.33267201  0.41811467  0.24858130  1
  Li  Li27  1  0.66632854  0.75002299  0.24705576  1
  Li  Li28  1  0.34295763  0.25722267  0.75309405  1
  Li  Li29  1  0.67032631  0.08554588  0.25212426  1
  Li  Li30  1  0.83102195  0.66189311  0.74353901  1
  Li  Li31  1  0.49858312  0.33676303  0.75345160  1
  Mg  Mg32  1  0.66591302  0.74772241  0.74886118  1
  Mg  Mg33  1  0.50131915  0.50020314  0.24788575  1
  Mg  Mg34  1  0.66763991  0.24791099  0.25373850  1
  Mg  Mg35  1  0.83192595  0.50242190  0.74469477  1
  Mg  Mg36  1  0.33435768  0.24987522  0.25176506  1
  Mg  Mg37  1  -0.00093879  0.25105546  0.75056033  1
  Mg  Mg38  1  0.66217800  0.25278222  0.74830955  1
  Mg  Mg39  1  0.16882734  0.50155610  0.24912858  1
  Mg  Mg40  1  0.33871163  0.75122472  0.24641629  1
  Mg  Mg41  1  0.83276676  -0.00035398  0.24969188  1
  Mg  Mg42  1  0.16398307  0.00291713  0.75353182  1
  Mg  Mg43  1  0.00350932  0.74905939  0.24904161  1
  Mg  Mg44  1  0.83108638  -0.00107208  0.75324822  1
  Mg  Mg45  1  -0.00359794  0.24987332  0.25443713  1
  Mg  Mg46  1  -0.00444384  0.74685096  0.74590556  1
  Mg  Mg47  1  0.33124039  0.74903157  0.75300327  1
  Mg  Mg48  1  0.17020056  -0.00028561  0.24966158  1
  Mg  Mg49  1  0.49742980  0.00271177  0.75164606  1
  Mg  Mg50  1  0.16665979  0.49841642  0.74828656  1
  Mg  Mg51  1  0.83421391  0.50000173  0.25309307  1
  Mg  Mg52  1  0.50626404  -0.00020336  0.24823709  1
  Mg  Mg53  1  0.16580744  0.66512809  0.75021649  1
  Mg  Mg54  1  0.49856507  0.66477359  0.75156108  1
  Mg  Mg55  1  0.00167534  0.41515121  0.25551166  1
  Mg  Mg56  1  0.49812561  0.17182094  0.75295455  1
  Mg  Mg57  1  0.33516400  0.91589745  0.24525379  1
  Mg  Mg58  1  0.49795013  0.83470469  0.75161424  1
  Mg  Mg59  1  0.50520850  0.16431103  0.25061966  1
  Mg  Mg60  1  0.33134315  0.08990627  0.75251119  1
  Mg  Mg61  1  0.66602929  0.41474076  0.25283010  1
  Mg  Mg62  1  0.83412174  0.33360635  0.25506717  1
  Mg  Mg63  1  0.00380120  0.58400558  0.25068093  1
  Mg  Mg64  1  0.50318227  0.83245681  0.24445097  1
  Mg  Mg65  1  0.83033368  0.16512989  0.75324792  1
  Mg  Mg66  1  0.33691400  0.41437153  0.74904057  1
  Mg  Mg67  1  0.16630966  0.83455167  0.75231437  1
  Mg  Mg68  1  0.66606159  0.08483414  0.75277849  1
  Mg  Mg69  1  0.66576322  0.91540806  0.75298073  1
  Mg  Mg70  1  -0.00212879  0.41562410  0.74390664  1
  Mg  Mg71  1  0.83445749  0.83193794  0.25110524  1
  Mg  Mg72  1  -0.00082594  0.91479375  0.75257196  1
  Mg  Mg73  1  -0.00459434  0.58368748  0.74589977  1
  Mg  Mg74  1  0.00246855  0.91524749  0.24921880  1
  Mg  Mg75  1  0.33311395  0.58320683  0.75307055  1
  Mg  Mg76  1  0.66327041  0.41475453  0.74871015  1
  Mg  Mg77  1  0.66886403  0.58656985  0.24783502  1
  Mg  Mg78  1  0.66646300  0.58363627  0.74619946  1
  Mg  Mg79  1  0.82991079  0.33534656  0.74704906  1
  Mg  Mg80  1  -0.00104755  0.08532393  0.75397271  1
  Mg  Mg81  1  0.17038537  0.83499219  0.24647826  1
  Mg  Mg82  1  0.33579968  0.08462050  0.24951698  1
  Mg  Mg83  1  0.66951517  0.91543847  0.24740505  1
  Mg  Mg84  1  0.33474723  0.58545869  0.24811746  1
  Mg  Mg85  1  0.17070029  0.66476671  0.24837612  1
  Mg  Mg86  1  0.16625875  0.16776668  0.75191101  1
  Mg  Mg87  1  0.50018261  0.33348191  0.25049930  1
  Mg  Mg88  1  0.16750152  0.33194232  0.74674063  1
  Mg  Mg89  1  0.33185107  0.91831379  0.75180348  1
  Mg  Mg90  1  0.16833960  0.16632796  0.25239180  1
  Mg  Mg91  1  0.50217074  0.66730137  0.24606027  1
  Mg  Mg92  1  0.16763090  0.33415779  0.25183309  1
  Mg  Mg93  1  0.83486661  0.66804679  0.25173235  1
  Mg  Mg94  1  0.83165105  0.82939915  0.75075143  1
  Mg  Mg95  1  0.00017930  0.08328082  0.25422521  1
  Fe  Fe96  1  0.46800337  0.41861240  0.39006454  1
  Fe  Fe97  1  0.63721470  0.33136872  0.39069310  1
  Fe  Fe98  1  0.97120376  0.33219672  0.39430126  1
  Fe  Fe99  1  0.31266818  0.16550730  0.39096244  1
  Fe  Fe100  1  0.14991023  0.58280830  0.39015050  1
  Fe  Fe101  1  0.18745191  0.91971429  0.10658287  1
  Fe  Fe102  1  0.80548873  0.07823441  0.89231748  1
  Fe  Fe103  1  0.18231624  0.57948707  0.10541097  1
  Fe  Fe104  1  0.02830229  0.33349421  0.60916099  1
  Fe  Fe105  1  0.35787598  0.65943012  0.10754938  1
  Fe  Fe106  1  0.30714687  0.66607604  0.89063211  1
  Fe  Fe107  1  0.64083144  0.33172505  0.89010173  1
  Fe  Fe108  1  0.35771613  0.33228219  0.10875594  1
  Fe  Fe109  1  0.13841509  0.08731270  0.89230497  1
  Fe  Fe110  1  0.85176201  0.58693324  0.60626277  1
  Fe  Fe111  1  0.36250769  0.83770098  0.10441461  1
  Fe  Fe112  1  0.69193666  0.33020225  0.60715276  1
  Si  Si113  1  0.69195110  0.16748997  0.11721312  1
  Si  Si114  1  0.80539253  0.58794322  0.88086436  1
  Si  Si115  1  0.13476128  0.58170707  0.88418801  1
  Si  Si116  1  0.35887717  0.17051830  0.61702569  1
  Si  Si117  1  0.52849791  0.41960971  0.61113917  1
  Si  Si118  1  0.30661650  0.17093378  0.88783546  1
  Si  Si119  1  0.86267406  0.91765107  0.11512979  1
  Si  Si120  1  0.52035869  0.08218879  0.61694837  1
  Si  Si121  1  0.64868717  0.16237907  0.38823655  1
  Si  Si122  1  0.70224323  0.83285851  0.11523822  1
  Si  Si123  1  0.30573666  0.33651535  0.88336145  1
  Si  Si124  1  0.01973446  0.67041923  0.11168058  1
  Si  Si125  1  0.35821805  0.66826697  0.61518972  1
  Si  Si126  1  0.85861498  0.08072887  0.11698023  1
  Si  Si127  1  0.64372685  0.66845519  0.38164141  1
  Si  Si128  1  0.17716160  0.41218128  0.11042338  1
  Si  Si129  1  0.31409241  0.83763190  0.38478769  1
  Si  Si130  1  0.14419424  0.91283274  0.38599197  1
  Si  Si131  1  0.80948703  0.07542862  0.38626761  1
  Si  Si132  1  0.64419077  0.83250810  0.38208672  1
  Si  Si133  1  0.20002438  0.41693400  0.61149445  1
  Si  Si134  1  0.85607321  0.91178380  0.61661868  1
  Si  Si135  1  0.52244857  0.58676895  0.61354344  1
  Si  Si136  1  0.14149937  0.41688927  0.88273806  1
  Si  Si137  1  0.80892007  0.58657276  0.38443002  1
  Si  Si138  1  0.13990753  0.91350065  0.88786828  1
  Si  Si139  1  0.02079332  0.16185350  0.61359577  1
  Si  Si140  1  0.48319885  0.07937425  0.38757960  1
  Si  Si141  1  0.53710252  0.58255498  0.11139125  1
  Si  Si142  1  0.80179969  0.42253692  0.38948737  1
  Si  Si143  1  0.81102796  0.91347512  0.38649406  1
  Si  Si144  1  0.80929868  0.42340748  0.88556519  1
  Si  Si145  1  0.48021144  0.58833234  0.38658320  1
  Si  Si146  1  0.68469391  0.83701674  0.61498103  1
  Si  Si147  1  0.36604274  0.33654315  0.61605570  1
  Si  Si148  1  0.19177594  0.92016212  0.61588944  1
  Si  Si149  1  0.01926622  0.32984096  0.11769571  1
  Si  Si150  1  0.01964975  0.16787728  0.11802773  1
  Si  Si151  1  0.47034481  0.08729114  0.88596625  1
  Si  Si152  1  0.35552119  0.83323307  0.61577020  1
  Si  Si153  1  0.31056142  0.83732387  0.88650575  1
  Si  Si154  1  0.53329589  0.41662700  0.11117661  1
  Si  Si155  1  0.02903213  0.66889548  0.60989078  1
  Si  Si156  1  0.31496844  0.67444560  0.38732320  1
  Si  Si157  1  0.19339807  0.08548131  0.61562455  1
  Si  Si158  1  0.97715962  0.16006578  0.39085726  1
  Si  Si159  1  0.86118013  0.58245496  0.11582510  1
  Si  Si160  1  0.85935499  0.41791331  0.11756945  1
  Si  Si161  1  0.47498164  0.58153420  0.88860008  1
  Si  Si162  1  0.02653065  0.83565632  0.61488941  1
  Si  Si163  1  0.14063932  0.07826993  0.38977128  1
  Si  Si164  1  0.96734649  0.17373174  0.89072080  1
  Si  Si165  1  0.97744089  0.83212728  0.38556277  1
  Si  Si166  1  0.85830576  0.41738904  0.60856876  1
  Si  Si167  1  0.63743919  0.83263742  0.88623986  1
  Si  Si168  1  0.81068005  0.90745821  0.88851234  1
  Si  Si169  1  0.52854679  0.08267055  0.11425722  1
  Si  Si170  1  0.53749511  0.91663454  0.10947196  1
  Si  Si171  1  0.85724166  0.07726537  0.61656439  1
  Si  Si172  1  0.97569085  0.82553865  0.88463867  1
  Si  Si173  1  0.02189921  0.83140262  0.11216804  1
  Si  Si174  1  0.97351676  0.33956403  0.88360020  1
  Si  Si175  1  0.70026662  0.66800526  0.11491542  1
  Si  Si176  1  0.97285361  0.66311247  0.88124548  1
  Si  Si177  1  0.68241994  0.67276191  0.60970662  1
  Si  Si178  1  0.14186337  0.41546490  0.38938386  1
  Si  Si179  1  0.47419270  0.92211177  0.88598445  1
  Si  Si180  1  0.30031941  0.33171469  0.38923120  1
  Si  Si181  1  0.35902203  0.16034311  0.11170680  1
  Si  Si182  1  0.46972729  0.41439976  0.88791474  1
  Si  Si183  1  0.51946270  0.91835238  0.61590964  1
  Si  Si184  1  0.63890021  0.66635312  0.88507449  1
  Si  Si185  1  0.63834890  0.16185395  0.88967687  1
  Si  Si186  1  0.19416796  0.58314004  0.61455383  1
  Si  Si187  1  0.97541171  0.66678988  0.38698283  1
  Si  Si188  1  0.48147624  0.91553003  0.38319171  1
  Si  Si189  1  0.68800968  0.15893160  0.61357993  1
  Si  Si190  1  0.18392904  0.08831433  0.11398948  1
  Si  Si191  1  0.69801446  0.33130373  0.11608901  1
  O  O192  1  0.26936697  0.11546803  0.08664610  1
  O  O193  1  0.26953803  0.12709318  0.58643192  1
  O  O194  1  0.27419564  0.59857052  0.06648611  1
  O  O195  1  0.27245465  0.62312979  0.58625669  1
  O  O196  1  0.60236920  0.12748491  0.08352121  1
  O  O197  1  0.60456066  0.10589943  0.58764421  1
  O  O198  1  0.61774806  0.62098331  0.08344871  1
  O  O199  1  0.59638309  0.62593967  0.57921526  1
  O  O200  1  0.93918574  0.11521443  0.08700648  1
  O  O201  1  0.93753379  0.10932335  0.58635115  1
  O  O202  1  0.94030638  0.61456002  0.08460537  1
  O  O203  1  0.94442681  0.63095320  0.57269587  1
  O  O204  1  0.09957751  0.35234887  0.08386066  1
  O  O205  1  0.12293449  0.36761560  0.57602287  1
  O  O206  1  0.10038267  0.85067364  0.07682639  1
  O  O207  1  0.09972174  0.88296946  0.58616656  1
  O  O208  1  0.44707607  0.37921110  0.07523403  1
  O  O209  1  0.44332463  0.37027323  0.58275702  1
  O  O210  1  0.46038817  0.87016443  0.07136535  1
  O  O211  1  0.43529104  0.86958474  0.58666737  1
  O  O212  1  0.77573299  0.37068221  0.08626537  1
  O  O213  1  0.79369788  0.35278954  0.57979515  1
  O  O214  1  0.78349697  0.86473263  0.08460549  1
  O  O215  1  0.76752741  0.86911538  0.58672245  1
  O  O216  1  0.25706379  0.38404460  0.07840363  1
  O  O217  1  0.28416642  0.38684319  0.58433316  1
  O  O218  1  0.27998943  0.90306737  0.06813341  1
  O  O219  1  0.26761606  0.87722400  0.58687367  1
  O  O220  1  0.61232524  0.37480239  0.08409452  1
  O  O221  1  0.60341989  0.39365304  0.57303311  1
  O  O222  1  0.62297818  0.88419546  0.08390442  1
  O  O223  1  0.60234697  0.88873493  0.58670496  1
  O  O224  1  0.93907914  0.38328126  0.08788465  1
  O  O225  1  0.94761399  0.40419060  0.58255934  1
  O  O226  1  0.94464479  0.88912678  0.08540859  1
  O  O227  1  0.93390468  0.87316606  0.58641122  1
  O  O228  1  0.10586182  0.14691438  0.08959836  1
  O  O229  1  0.10116903  0.12099073  0.58642649  1
  O  O230  1  0.09642238  0.65008668  0.07494396  1
  O  O231  1  0.11112669  0.63194341  0.58388767  1
  O  O232  1  0.43492692  0.11543674  0.08267050  1
  O  O233  1  0.43613186  0.12976822  0.58639165  1
  O  O234  1  0.45465652  0.62427924  0.07629543  1
  O  O235  1  0.43583738  0.63380280  0.58367451  1
  O  O236  1  0.77100168  0.12557864  0.08979251  1
  O  O237  1  0.76813199  0.11742560  0.58661322  1
  O  O238  1  0.77984012  0.63275377  0.08437599  1
  O  O239  1  0.75895124  0.64875269  0.57370371  1
  O  O240  1  0.05598149  0.10386386  0.41881300  1
  O  O241  1  0.04623490  0.12470238  0.92570164  1
  O  O242  1  0.05451945  0.62069213  0.42356579  1
  O  O243  1  0.04640632  0.60485526  0.91054146  1
  O  O244  1  0.40710270  0.10620347  0.42354347  1
  O  O245  1  0.38952539  0.11843913  0.91546842  1
  O  O246  1  0.40375998  0.63184178  0.41494947  1
  O  O247  1  0.40228105  0.61179107  0.92647129  1
  O  O248  1  0.72955685  0.10750699  0.41662912  1
  O  O249  1  0.70334246  0.09802834  0.91995502  1
  O  O250  1  0.72814674  0.62114885  0.41287576  1
  O  O251  1  0.72888183  0.62611707  0.91366869  1
  O  O252  1  0.20879065  0.34937279  0.41325508  1
  O  O253  1  0.22228319  0.36582735  0.91335343  1
  O  O254  1  0.23268000  0.86996962  0.41544587  1
  O  O255  1  0.22408780  0.86337787  0.91227049  1
  O  O256  1  0.54350026  0.34957476  0.42773247  1
  O  O257  1  0.54768120  0.36643334  0.92594890  1
  O  O258  1  0.56368275  0.86449824  0.41403522  1
  O  O259  1  0.55905944  0.87331361  0.91406118  1
  O  O260  1  0.87591597  0.36883668  0.42407890  1
  O  O261  1  0.89920620  0.38063977  0.91506595  1
  O  O262  1  0.89873660  0.86864101  0.41595369  1
  O  O263  1  0.89053492  0.85122268  0.91283221  1
  O  O264  1  0.05794449  0.39830849  0.42083858  1
  O  O265  1  0.06011178  0.38484534  0.91188968  1
  O  O266  1  0.06580203  0.87478518  0.41617338  1
  O  O267  1  0.05781015  0.87536675  0.91333761  1
  O  O268  1  0.36373590  0.39712323  0.41558085  1
  O  O269  1  0.38349275  0.38892901  0.91717467  1
  O  O270  1  0.39823621  0.88688982  0.41348980  1
  O  O271  1  0.38904477  0.89457767  0.91185459  1
  O  O272  1  0.71527094  0.40688857  0.41659644  1
  O  O273  1  0.73754440  0.39016657  0.92262588  1
  O  O274  1  0.73087014  0.87731612  0.41505628  1
  O  O275  1  0.72733510  0.87247007  0.91549641  1
  O  O276  1  0.22135052  0.12306382  0.42601437  1
  O  O277  1  0.23305414  0.14363802  0.92671341  1
  O  O278  1  0.24092039  0.64495192  0.42431255  1
  O  O279  1  0.20650886  0.63713938  0.91748269  1
  O  O280  1  0.56962976  0.12399117  0.41792545  1
  O  O281  1  0.54865221  0.13948616  0.91516501  1
  O  O282  1  0.56484720  0.63889141  0.41447410  1
  O  O283  1  0.56521438  0.62547898  0.91614294  1
  O  O284  1  0.89499434  0.12154785  0.41670185  1
  O  O285  1  0.88439334  0.15062831  0.92123335  1
  O  O286  1  0.88871493  0.63970375  0.41245686  1
  O  O287  1  0.88810588  0.63834056  0.91022065  1
  O  O288  1  0.14989376  0.01370878  0.07938762  1
  O  O289  1  0.19007903  0.00208066  0.58575368  1
  O  O290  1  0.14013930  0.48778814  0.07731304  1
  O  O291  1  0.18515248  0.50175082  0.58452668  1
  O  O292  1  0.53224814  0.00110100  0.08314420  1
  O  O293  1  0.49818599  -0.00028583  0.58735590  1
  O  O294  1  0.53794481  0.49962790  0.08286807  1
  O  O295  1  0.50499177  0.50492219  0.58584570  1
  O  O296  1  0.84166679  -0.00103426  0.08514855  1
  O  O297  1  0.84612192  -0.00611482  0.58711700  1
  O  O298  1  0.84452178  0.50006712  0.08693074  1
  O  O299  1  0.82016779  0.49411519  0.57733648  1
  O  O300  1  -0.00937767  0.24853335  0.09018945  1
  O  O301  1  0.00294664  0.23822306  0.57785422  1
  O  O302  1  -0.01759607  0.75148243  0.08818730  1
  O  O303  1  0.02853311  0.75479015  0.58400814  1
  O  O304  1  0.34875944  0.23680981  0.07383940  1
  O  O305  1  0.35004879  0.25236670  0.58721024  1
  O  O306  1  0.33395064  0.74849790  0.06805151  1
  O  O307  1  0.34322358  0.75139559  0.58592967  1
  O  O308  1  0.69043037  0.24934969  0.08514006  1
  O  O309  1  0.66804342  0.23424757  0.57694230  1
  O  O310  1  0.68872750  0.75057047  0.08485498  1
  O  O311  1  0.65941352  0.75770324  0.58400122  1
  O  O312  1  0.15481268  -0.00629851  0.41724716  1
  O  O313  1  0.15506394  -0.00902276  0.92214249  1
  O  O314  1  0.18121021  0.49095563  0.42164078  1
  O  O315  1  0.15711214  0.49905112  0.91159380  1
  O  O316  1  0.50485714  -0.00466884  0.41460349  1
  O  O317  1  0.49232715  0.00431074  0.91413251  1
  O  O318  1  0.49548488  0.51307758  0.42508679  1
  O  O319  1  0.49329818  0.49820341  0.91361121  1
  O  O320  1  0.82582266  -0.00648795  0.42027298  1
  O  O321  1  0.83595943  -0.01675313  0.92401016  1
  O  O322  1  0.83125121  0.50656989  0.41391083  1
  O  O323  1  0.82528595  0.50770542  0.91333414  1
  O  O324  1  0.33345111  0.25683575  0.42746095  1
  O  O325  1  0.32948109  0.25472231  0.91197712  1
  O  O326  1  0.33475835  0.75789774  0.41679477  1
  O  O327  1  0.33967363  0.76063807  0.91740425  1
  O  O328  1  0.67406839  0.23859398  0.42312748  1
  O  O329  1  0.66853644  0.23808046  0.92362051  1
  O  O330  1  0.66163007  0.75071632  0.41193050  1
  O  O331  1  0.64507776  0.74974762  0.91458372  1
  O  O332  1  0.99511638  0.23694631  0.42678034  1
  O  O333  1  0.98719116  0.25864959  0.91456619  1
  O  O334  1  0.98862841  0.75074872  0.41554911  1
  O  O335  1  0.99708993  0.74386251  0.91288103  1
  O  O336  1  0.20587950  0.08393017  0.19483337  1
  O  O337  1  0.21063689  0.08277283  0.69557294  1
  O  O338  1  0.21191514  0.58543772  0.19713871  1
  O  O339  1  0.20797488  0.58402577  0.69457521  1
  O  O340  1  0.54258632  0.08195406  0.19382495  1
  O  O341  1  0.54017791  0.08090032  0.69715143  1
  O  O342  1  0.55076337  0.58453234  0.19204954  1
  O  O343  1  0.54459647  0.59334135  0.69277188  1
  O  O344  1  0.88266875  0.07524401  0.19587762  1
  O  O345  1  0.87680161  0.07905372  0.69679026  1
  O  O346  1  0.87829225  0.58441634  0.19611970  1
  O  O347  1  0.87799894  0.58361984  0.69658991  1
  O  O348  1  0.04075183  0.33222603  0.19760437  1
  O  O349  1  0.04478276  0.33134029  0.70084934  1
  O  O350  1  0.04307435  0.83370422  0.19357257  1
  O  O351  1  0.04338650  0.83549162  0.69507343  1
  O  O352  1  0.38262941  0.32349355  0.19811541  1
  O  O353  1  0.37859362  0.33631271  0.69468431  1
  O  O354  1  0.38132576  0.83524586  0.19773159  1
  O  O355  1  0.37440690  0.83518073  0.69611236  1
  O  O356  1  0.71465997  0.33377184  0.19581642  1
  O  O357  1  0.71242080  0.33237195  0.69872428  1
  O  O358  1  0.71816740  0.83377859  0.19475665  1
  O  O359  1  0.70516937  0.83567006  0.69527083  1
  O  O360  1  0.19442783  0.41518043  0.19105105  1
  O  O361  1  0.21067436  0.41705869  0.69222574  1
  O  O362  1  0.21168791  0.91791703  0.19958727  1
  O  O363  1  0.20858470  0.91846230  0.69616504  1
  O  O364  1  0.54824001  0.41787403  0.19131262  1
  O  O365  1  0.55043778  0.41532557  0.68970287  1
  O  O366  1  0.54868421  0.91552407  0.19020451  1
  O  O367  1  0.53926632  0.91645826  0.69623939  1
  O  O368  1  0.87618153  0.41965772  0.19740884  1
  O  O369  1  0.87495825  0.41731640  0.69117700  1
  O  O370  1  0.88001845  0.91475460  0.19558115  1
  O  O371  1  0.87446680  0.91353593  0.69690206  1
  O  O372  1  0.03986917  0.16476644  0.19830164  1
  O  O373  1  0.03854112  0.16410182  0.69429455  1
  O  O374  1  0.04064668  0.66832550  0.19260718  1
  O  O375  1  0.04399645  0.66844944  0.69078137  1
  O  O376  1  0.37986209  0.16179784  0.19236559  1
  O  O377  1  0.37733017  0.16375359  0.69604138  1
  O  O378  1  0.38091141  0.66828162  0.20001459  1
  O  O379  1  0.37726587  0.66990580  0.69516479  1
  O  O380  1  0.70241699  0.16888129  0.19538696  1
  O  O381  1  0.70815375  0.16190456  0.69422295  1
  O  O382  1  0.71818290  0.66605999  0.19440911  1
  O  O383  1  0.70053323  0.67046876  0.68985713  1
  O  O384  1  0.12522563  0.07986840  0.30889021  1
  O  O385  1  0.11919619  0.08398088  0.80009603  1
  O  O386  1  0.12187404  0.58656606  0.29919112  1
  O  O387  1  0.11955274  0.58302011  0.80298189  1
  O  O388  1  0.46194807  0.08061584  0.30683244  1
  O  O389  1  0.45331170  0.08311999  0.80551283  1
  O  O390  1  0.46280821  0.58592393  0.30615800  1
  O  O391  1  0.45241817  0.59196709  0.80902774  1
  O  O392  1  0.79128666  0.07043864  0.30801455  1
  O  O393  1  0.78687743  0.07970283  0.80012016  1
  O  O394  1  0.79162258  0.58603094  0.30401062  1
  O  O395  1  0.78590611  0.58559309  0.80171107  1
  O  O396  1  0.28336525  0.32331885  0.30902300  1
  O  O397  1  0.28491740  0.33773580  0.80382570  1
  O  O398  1  0.29306519  0.83586171  0.30512398  1
  O  O399  1  0.29033629  0.83684288  0.80483659  1
  O  O400  1  0.62203297  0.33190947  0.29854892  1
  O  O401  1  0.62267779  0.33287778  0.80036787  1
  O  O402  1  0.62536145  0.83630320  0.30293159  1
  O  O403  1  0.62015496  0.83374096  0.80563071  1
  O  O404  1  0.95471953  0.33353597  0.30275915  1
  O  O405  1  0.95323603  0.33627842  0.80342088  1
  O  O406  1  0.96015473  0.83345973  0.30536192  1
  O  O407  1  0.95634416  0.83013297  0.80402964  1
  O  O408  1  0.12350430  0.41779600  0.30754690  1
  O  O409  1  0.12335501  0.41730329  0.80250008  1
  O  O410  1  0.12414203  0.91357398  0.30602917  1
  O  O411  1  0.12169342  0.91546909  0.80622824  1
  O  O412  1  0.46901325  0.41936453  0.30104836  1
  O  O413  1  0.44888936  0.41155483  0.80923236  1
  O  O414  1  0.46217906  0.91602737  0.30336223  1
  O  O415  1  0.45659490  0.91872472  0.80512278  1
  O  O416  1  0.78999262  0.42060253  0.30781162  1
  O  O417  1  0.79304116  0.42031142  0.80514605  1
  O  O418  1  0.79445979  0.91308704  0.30659465  1
  O  O419  1  0.78945419  0.91187452  0.80731119  1
  O  O420  1  0.28985792  0.16344572  0.29936145  1
  O  O421  1  0.28467856  0.16341652  0.80819131  1
  O  O422  1  0.29281196  0.67394308  0.30716524  1
  O  O423  1  0.28558735  0.66770938  0.79831011  1
  O  O424  1  0.62542595  0.16508828  0.30842100  1
  O  O425  1  0.62193777  0.16324095  0.80806004  1
  O  O426  1  0.62514500  0.66604216  0.30231740  1
  O  O427  1  0.62140363  0.66854890  0.80482261  1
  O  O428  1  0.96658874  0.16350009  0.31119798  1
  O  O429  1  0.95405419  0.16783203  0.80890553  1
  O  O430  1  0.95959569  0.66784754  0.30605469  1
  O  O431  1  0.96008394  0.66740573  0.80188373  1
  F  F432  1  0.04684808  -0.00027430  0.20557288  1
  F  F433  1  0.04207421  -0.00340903  0.70211308  1
  F  F434  1  0.04037852  0.49833876  0.20316910  1
  F  F435  1  0.04651749  0.50133023  0.69983361  1
  F  F436  1  0.38282418  0.00096062  0.20291178  1
  F  F437  1  0.37602308  -0.00006237  0.70251077  1
  F  F438  1  0.38645012  0.51193193  0.19669806  1
  F  F439  1  0.36533064  0.50363146  0.69987482  1
  F  F440  1  0.71860009  -0.00911400  0.19692213  1
  F  F441  1  0.70886674  -0.00525243  0.70207090  1
  F  F442  1  0.71590252  0.50082704  0.20198715  1
  F  F443  1  0.71119608  0.50189699  0.69861150  1
  F  F444  1  0.20869507  0.24938705  0.20144318  1
  F  F445  1  0.20376489  0.24679740  0.69982995  1
  F  F446  1  0.21392405  0.75134241  0.20219347  1
  F  F447  1  0.21040421  0.75512740  0.70009870  1
  F  F448  1  0.54637422  0.24636567  0.20153623  1
  F  F449  1  0.54763965  0.23716641  0.69624826  1
  F  F450  1  0.54648477  0.74998016  0.19831930  1
  F  F451  1  0.54217199  0.75344376  0.70283049  1
  F  F452  1  0.88034594  0.25699823  0.20002349  1
  F  F453  1  0.87793506  0.24617233  0.70415453  1
  F  F454  1  0.88168814  0.75014472  0.20280771  1
  F  F455  1  0.87862861  0.75708724  0.69651728  1
  F  F456  1  0.29208925  0.00015488  0.29850360  1
  F  F457  1  0.28702606  0.00054164  0.79850393  1
  F  F458  1  0.28603829  0.51130710  0.30025305  1
  F  F459  1  0.28439848  0.50081129  0.79889499  1
  F  F460  1  0.62294550  -0.00724441  0.29749269  1
  F  F461  1  0.61859151  -0.00275191  0.79848965  1
  F  F462  1  0.62477954  0.50388390  0.29491049  1
  F  F463  1  0.63496040  0.50327491  0.80030327  1
  F  F464  1  0.95680339  -0.00473042  0.30049545  1
  F  F465  1  0.95345408  -0.00314075  0.79934000  1
  F  F466  1  0.95457950  0.50303642  0.29975932  1
  F  F467  1  0.95536026  0.49825155  0.79531469  1
  F  F468  1  0.11953312  0.24805950  0.29775767  1
  F  F469  1  0.11973931  0.24847368  0.80051121  1
  F  F470  1  0.12308831  0.75247704  0.29634943  1
  F  F471  1  0.11822927  0.75076179  0.79474197  1
  F  F472  1  0.45662550  0.24309983  0.29921547  1
  F  F473  1  0.45568295  0.24545259  0.80271109  1
  F  F474  1  0.46186251  0.75243583  0.29935022  1
  F  F475  1  0.45406203  0.75299536  0.79849966  1
  F  F476  1  0.78482072  0.25909665  0.30526994  1
  F  F477  1  0.78715553  0.24873496  0.79788012  1
  F  F478  1  0.79856235  0.75061958  0.30216443  1
  F  F479  1  0.78255746  0.75321584  0.79784530  1
