# generated using pymatgen
data_K24Na3Li5Mg64Fe17Si79(O5F)48
_symmetry_space_group_name_H-M   'P 1'
_cell_length_a   16.07475156
_cell_length_b   18.57185047
_cell_length_c   20.55093149
_cell_angle_alpha   89.99119536
_cell_angle_beta   99.99443526
_cell_angle_gamma   90.02700470
_symmetry_Int_Tables_number   1
_chemical_formula_structural   K24Na3Li5Mg64Fe17Si79(O5F)48
_chemical_formula_sum   'K24 Na3 Li5 Mg64 Fe17 Si79 O240 F48'
_cell_volume   6042.12636895
_cell_formula_units_Z   1
loop_
 _symmetry_equiv_pos_site_id
 _symmetry_equiv_pos_as_xyz
  1  'x, y, z'
loop_
 _atom_site_type_symbol
 _atom_site_label
 _atom_site_symmetry_multiplicity
 _atom_site_fract_x
 _atom_site_fract_y
 _atom_site_fract_z
 _atom_site_occupancy
  K  K0  1  0.00336579  0.00662994  0.00492475  1
  K  K1  1  -0.00024259  0.00909711  0.49223876  1
  K  K2  1  -0.00342521  0.49867213  -0.00069231  1
  K  K3  1  -0.00292497  0.49336157  0.49648977  1
  K  K4  1  0.34211965  0.00904616  -0.00447732  1
  K  K5  1  0.33626844  0.01560208  0.49728513  1
  K  K6  1  0.33256644  0.49991096  -0.00005824  1
  K  K7  1  0.33964846  0.49003687  0.49213904  1
  K  K8  1  0.66598357  0.00001546  0.00648194  1
  K  K9  1  0.65926036  0.00801657  0.48758933  1
  K  K10  1  0.67053668  0.50073163  0.00189650  1
  K  K11  1  0.65867575  0.49101379  0.48790191  1
  K  K12  1  0.15783824  0.24906484  -0.00205812  1
  K  K13  1  0.17312838  0.23852942  0.50223686  1
  K  K14  1  0.16533708  0.75582319  0.00171147  1
  K  K15  1  0.16396944  0.75594248  0.50277050  1
  K  K16  1  0.50601086  0.24408139  0.00093230  1
  K  K17  1  0.48598032  0.24595343  0.48802919  1
  K  K18  1  0.50348391  0.75297699  0.00778476  1
  K  K19  1  0.50346397  0.75288218  0.49290779  1
  K  K20  1  0.83812562  0.24655486  0.00901926  1
  K  K21  1  0.83629099  0.24382849  0.49160297  1
  K  K22  1  0.82700546  0.75172313  0.00393028  1
  K  K23  1  0.83233671  0.75557280  0.49298375  1
  Na  Na24  1  0.32735431  0.25038247  0.74174480  1
  Na  Na25  1  -0.00516487  0.08225072  0.24484166  1
  Na  Na26  1  0.49994105  0.83086342  0.25268692  1
  Li  Li27  1  0.83298728  0.00361250  0.24616817  1
  Li  Li28  1  -0.00254661  0.24535676  0.24688815  1
  Li  Li29  1  0.17016721  0.16683840  0.74728235  1
  Li  Li30  1  0.16894549  0.83863840  0.75893091  1
  Li  Li31  1  0.82668499  0.66785781  0.24619699  1
  Mg  Mg32  1  0.00241192  0.75333235  0.75439532  1
  Mg  Mg33  1  -0.00458331  0.74900718  0.25319960  1
  Mg  Mg34  1  0.49566017  0.00037580  0.74853600  1
  Mg  Mg35  1  0.66549861  0.24950552  0.74773076  1
  Mg  Mg36  1  0.16371333  0.00139605  0.24862616  1
  Mg  Mg37  1  0.83260082  0.49906448  0.75293205  1
  Mg  Mg38  1  0.33419237  0.74997116  0.25456450  1
  Mg  Mg39  1  0.32916422  0.75218232  0.74902159  1
  Mg  Mg40  1  0.00217602  0.24867992  0.75074450  1
  Mg  Mg41  1  0.66659811  0.75003110  0.75063107  1
  Mg  Mg42  1  0.50142879  0.00103171  0.25240420  1
  Mg  Mg43  1  0.83428923  0.50365833  0.25049550  1
  Mg  Mg44  1  0.83447262  -0.00201022  0.74934219  1
  Mg  Mg45  1  0.16610515  0.49917016  0.74865545  1
  Mg  Mg46  1  0.16801318  0.49990769  0.25285481  1
  Mg  Mg47  1  0.66993973  0.74791238  0.24969253  1
  Mg  Mg48  1  0.50318513  0.49753004  0.25102207  1
  Mg  Mg49  1  0.33653575  0.24974710  0.25230896  1
  Mg  Mg50  1  0.49900344  0.49968084  0.74946686  1
  Mg  Mg51  1  0.16703506  -0.00063787  0.74918661  1
  Mg  Mg52  1  0.66979768  0.24918680  0.24975028  1
  Mg  Mg53  1  0.32941166  0.08622844  0.74532510  1
  Mg  Mg54  1  0.83464026  0.16453943  0.24477189  1
  Mg  Mg55  1  0.66968922  0.58394666  0.75129141  1
  Mg  Mg56  1  0.16695097  0.66901059  0.74734092  1
  Mg  Mg57  1  0.16381401  0.83423763  0.25367613  1
  Mg  Mg58  1  0.00692884  0.08344858  0.75085834  1
  Mg  Mg59  1  0.50028478  0.16434920  0.25232260  1
  Mg  Mg60  1  0.66917215  0.08363959  0.24886409  1
  Mg  Mg61  1  0.83519043  0.33243833  0.75129007  1
  Mg  Mg62  1  0.16478768  0.33156842  0.25039559  1
  Mg  Mg63  1  0.83660584  0.66481041  0.75405764  1
  Mg  Mg64  1  0.16531014  0.16762576  0.25174242  1
  Mg  Mg65  1  -0.00032112  0.41428167  0.75066286  1
  Mg  Mg66  1  0.33448491  0.41592182  0.74777613  1
  Mg  Mg67  1  -0.00581062  0.91804773  0.25300071  1
  Mg  Mg68  1  0.33097995  0.91523316  0.75081202  1
  Mg  Mg69  1  0.66684317  0.58478255  0.24999444  1
  Mg  Mg70  1  0.83638183  0.16446681  0.74957523  1
  Mg  Mg71  1  0.66615970  0.91705082  0.24970229  1
  Mg  Mg72  1  0.82958646  0.83338942  0.24970666  1
  Mg  Mg73  1  0.50062199  0.66671998  0.74949717  1
  Mg  Mg74  1  0.83673880  0.83348088  0.75169116  1
  Mg  Mg75  1  0.16568783  0.66663593  0.25558106  1
  Mg  Mg76  1  0.00112832  0.58458859  0.75144631  1
  Mg  Mg77  1  0.33588961  0.41486584  0.25157924  1
  Mg  Mg78  1  0.66629343  0.08262871  0.74619582  1
  Mg  Mg79  1  0.66571668  0.91483060  0.74984630  1
  Mg  Mg80  1  0.33620243  0.58470342  0.25508358  1
  Mg  Mg81  1  0.33395111  0.91670068  0.25533427  1
  Mg  Mg82  1  0.50195993  0.66481628  0.25212949  1
  Mg  Mg83  1  0.33406420  0.58499345  0.74841582  1
  Mg  Mg84  1  0.66662481  0.41553444  0.24972281  1
  Mg  Mg85  1  0.83597033  0.33231822  0.24832764  1
  Mg  Mg86  1  0.49902555  0.33477795  0.25145389  1
  Mg  Mg87  1  0.00462252  0.91441677  0.75141294  1
  Mg  Mg88  1  0.66694374  0.41526012  0.75110947  1
  Mg  Mg89  1  0.16642677  0.33102283  0.74781069  1
  Mg  Mg90  1  0.49729567  0.16604032  0.74557395  1
  Mg  Mg91  1  0.33455065  0.08486332  0.25020088  1
  Mg  Mg92  1  0.49754308  0.83521591  0.75017588  1
  Mg  Mg93  1  0.49688365  0.33418229  0.74719042  1
  Mg  Mg94  1  0.00066095  0.41460890  0.25077263  1
  Mg  Mg95  1  -0.00275218  0.58514805  0.25325347  1
  Fe  Fe96  1  0.97426567  0.83542367  0.89357773  1
  Fe  Fe97  1  0.52314568  0.08215238  0.10938515  1
  Fe  Fe98  1  0.35152297  0.16538351  0.11031476  1
  Fe  Fe99  1  0.14281004  0.91848363  0.89083805  1
  Fe  Fe100  1  0.69714523  0.16672131  0.10781674  1
  Fe  Fe101  1  0.52495839  0.41175604  0.10988062  1
  Fe  Fe102  1  0.47440896  0.41787093  0.88865479  1
  Fe  Fe103  1  0.35786529  0.16642706  0.60316463  1
  Fe  Fe104  1  0.47681279  0.08331072  0.39494849  1
  Fe  Fe105  1  0.47735520  0.41573322  0.39469253  1
  Fe  Fe106  1  0.03207814  0.17104780  0.11013699  1
  Fe  Fe107  1  0.51994969  0.58265344  0.11070333  1
  Fe  Fe108  1  0.80912897  0.58183027  0.89164436  1
  Fe  Fe109  1  0.35243787  0.33136598  0.10955824  1
  Fe  Fe110  1  0.46940304  0.91867285  0.88933040  1
  Fe  Fe111  1  0.69475367  0.66505732  0.10975925  1
  Fe  Fe112  1  0.97390048  0.32988730  0.88918228  1
  Si  Si113  1  0.18710369  0.07804335  0.60894632  1
  Si  Si114  1  0.97880578  0.15882920  0.88550391  1
  Si  Si115  1  0.86545763  0.42080805  0.11694226  1
  Si  Si116  1  0.64563049  0.66812458  0.38993112  1
  Si  Si117  1  0.35666739  0.83282627  0.61158588  1
  Si  Si118  1  0.30020290  0.16727465  0.38862959  1
  Si  Si119  1  0.35480449  0.67079419  0.11683960  1
  Si  Si120  1  0.85946059  0.58131892  0.61363353  1
  Si  Si121  1  0.30561460  0.83330229  0.39106521  1
  Si  Si122  1  0.13757090  0.08263229  0.38517431  1
  Si  Si123  1  0.35035393  0.83335782  0.12028257  1
  Si  Si124  1  0.47549844  0.91303630  0.39254859  1
  Si  Si125  1  0.35852775  0.66647188  0.61213211  1
  Si  Si126  1  0.02476917  0.16658846  0.61372801  1
  Si  Si127  1  0.30090024  0.33350019  0.38965634  1
  Si  Si128  1  0.13942367  0.91729010  0.38896094  1
  Si  Si129  1  0.02954787  0.34067020  0.11407066  1
  Si  Si130  1  0.19464744  0.07614640  0.11348119  1
  Si  Si131  1  0.64399037  0.16677780  0.87976601  1
  Si  Si132  1  0.13753255  0.41778808  0.38803539  1
  Si  Si133  1  0.51828932  0.91479210  0.11658839  1
  Si  Si134  1  0.18992102  0.58569258  0.61193955  1
  Si  Si135  1  0.98352506  0.66529248  0.88966489  1
  Si  Si136  1  0.63680425  0.83270056  0.88407382  1
  Si  Si137  1  0.52764327  0.58632665  0.61307882  1
  Si  Si138  1  0.13924371  0.41840968  0.88409607  1
  Si  Si139  1  0.14597512  0.58191114  0.88238764  1
  Si  Si140  1  0.19264572  0.42540437  0.11603658  1
  Si  Si141  1  0.97569237  0.66752840  0.38940903  1
  Si  Si142  1  0.85720795  0.91528797  0.11615717  1
  Si  Si143  1  0.14919702  0.08416207  0.88406282  1
  Si  Si144  1  0.47537901  0.08981985  0.88423854  1
  Si  Si145  1  0.81246371  0.41846308  0.38683149  1
  Si  Si146  1  0.69961598  0.33941517  0.11222327  1
  Si  Si147  1  0.02655289  0.33303804  0.61217433  1
  Si  Si148  1  0.86098821  0.08077141  0.10768678  1
  Si  Si149  1  0.81201788  0.08224671  0.38519586  1
  Si  Si150  1  0.63863211  0.32959354  0.88262389  1
  Si  Si151  1  0.86036874  0.08402128  0.61249283  1
  Si  Si152  1  0.69435758  0.83220270  0.61314279  1
  Si  Si153  1  0.19012601  0.41999599  0.61099403  1
  Si  Si154  1  0.65026104  0.16712103  0.39063885  1
  Si  Si155  1  0.64680889  0.83303159  0.38759034  1
  Si  Si156  1  0.30581626  0.17131199  0.87947106  1
  Si  Si157  1  0.47713702  0.58798138  0.88385093  1
  Si  Si158  1  0.80987266  0.58332867  0.38771991  1
  Si  Si159  1  0.02871591  0.66657980  0.11985922  1
  Si  Si160  1  0.14042725  0.58387829  0.39065255  1
  Si  Si161  1  0.69483615  0.66694058  0.61361478  1
  Si  Si162  1  0.80003949  0.91460368  0.88532563  1
  Si  Si163  1  0.52870167  0.42035752  0.61180085  1
  Si  Si164  1  0.02279801  0.66720615  0.61290997  1
  Si  Si165  1  0.68719431  0.83559137  0.11259969  1
  Si  Si166  1  0.80855704  0.91660921  0.38612803  1
  Si  Si167  1  0.52676371  0.91225661  0.61228368  1
  Si  Si168  1  0.30643736  0.66781506  0.39108623  1
  Si  Si169  1  0.30460165  0.82794924  0.88734579  1
  Si  Si170  1  0.63834494  0.66964285  0.88444785  1
  Si  Si171  1  0.53045935  0.07891419  0.60947760  1
  Si  Si172  1  0.86660433  0.58422931  0.11584935  1
  Si  Si173  1  0.80769614  0.08015517  0.88233587  1
  Si  Si174  1  0.85910469  0.41539306  0.61296490  1
  Si  Si175  1  0.97404360  0.83332026  0.38868629  1
  Si  Si176  1  0.80380233  0.41032664  0.88767199  1
  Si  Si177  1  0.18941256  0.91358310  0.61299693  1
  Si  Si178  1  0.65087643  0.33170112  0.38995945  1
  Si  Si179  1  0.30088182  0.33786415  0.88292786  1
  Si  Si180  1  0.69501698  0.16614106  0.61237555  1
  Si  Si181  1  0.69253845  0.33295355  0.61292283  1
  Si  Si182  1  0.19247362  0.58820479  0.12039495  1
  Si  Si183  1  0.30996045  0.66487727  0.88276973  1
  Si  Si184  1  0.47656027  0.58910154  0.39295939  1
  Si  Si185  1  0.02175683  0.83204858  0.61304966  1
  Si  Si186  1  0.97409348  0.33286973  0.38604126  1
  Si  Si187  1  0.85838248  0.91777680  0.61200816  1
  Si  Si188  1  0.35925045  0.34203482  0.60690400  1
  Si  Si189  1  0.18677762  0.91336966  0.11911965  1
  Si  Si190  1  0.97185638  0.16847428  0.38397258  1
  Si  Si191  1  0.02139927  0.83015545  0.11931696  1
  O  O192  1  0.28288943  0.08344440  0.08667643  1
  O  O193  1  0.25582647  0.11560682  0.57078979  1
  O  O194  1  0.27415049  0.61590427  0.08994913  1
  O  O195  1  0.26847010  0.62486577  0.58243615  1
  O  O196  1  0.61249287  0.10572112  0.06882530  1
  O  O197  1  0.61255503  0.11725718  0.58349094  1
  O  O198  1  0.61060446  0.60433637  0.06933797  1
  O  O199  1  0.60181067  0.63147234  0.58339938  1
  O  O200  1  0.94601515  0.10477730  0.08006957  1
  O  O201  1  0.93460802  0.12572775  0.58123274  1
  O  O202  1  0.95734686  0.60687762  0.09130878  1
  O  O203  1  0.93589331  0.62155130  0.58256487  1
  O  O204  1  0.11106057  0.37526620  0.08536870  1
  O  O205  1  0.10136213  0.37611169  0.58110725  1
  O  O206  1  0.10626557  0.85879624  0.09223118  1
  O  O207  1  0.10228137  0.86658079  0.58354097  1
  O  O208  1  0.45163286  0.33925248  0.07618954  1
  O  O209  1  0.43650268  0.38735417  0.57890824  1
  O  O210  1  0.43821888  0.85610828  0.09528888  1
  O  O211  1  0.43518998  0.87294670  0.58282440  1
  O  O212  1  0.78984845  0.36532218  0.08810417  1
  O  O213  1  0.77008574  0.37319237  0.58298064  1
  O  O214  1  0.76896943  0.87297487  0.08543289  1
  O  O215  1  0.76779537  0.87666343  0.58249980  1
  O  O216  1  0.27328107  0.40798824  0.08277523  1
  O  O217  1  0.26972175  0.38808552  0.57972569  1
  O  O218  1  0.26941425  0.88509221  0.08861755  1
  O  O219  1  0.26634112  0.87240690  0.58107993  1
  O  O220  1  0.63120699  0.40039668  0.08331017  1
  O  O221  1  0.60515886  0.37712080  0.58322232  1
  O  O222  1  0.60106972  0.88354183  0.08676171  1
  O  O223  1  0.60053369  0.86561557  0.58295150  1
  O  O224  1  0.95101318  0.39814243  0.08890263  1
  O  O225  1  0.93606596  0.37537313  0.58248838  1
  O  O226  1  0.93716182  0.87595764  0.08753161  1
  O  O227  1  0.93349094  0.87603899  0.58071171  1
  O  O228  1  0.12496006  0.13211866  0.07650859  1
  O  O229  1  0.09614351  0.12180482  0.58220098  1
  O  O230  1  0.11574726  0.64505799  0.09284380  1
  O  O231  1  0.10238352  0.63083656  0.58268077  1
  O  O232  1  0.44344184  0.14707598  0.07063638  1
  O  O233  1  0.44703409  0.11758363  0.57105880  1
  O  O234  1  0.43247484  0.65182126  0.08092280  1
  O  O235  1  0.43593375  0.62501183  0.58307419  1
  O  O236  1  0.78422058  0.12881086  0.06690440  1
  O  O237  1  0.77352943  0.12878301  0.58241048  1
  O  O238  1  0.79714571  0.63948607  0.07988003  1
  O  O239  1  0.76925248  0.62225980  0.58428748  1
  O  O240  1  0.06077327  0.12496518  0.41370940  1
  O  O241  1  0.05975075  0.10582260  0.91051975  1
  O  O242  1  0.06626565  0.62708314  0.42208035  1
  O  O243  1  0.06263969  0.60648471  0.91215963  1
  O  O244  1  0.38788898  0.13248535  0.42569865  1
  O  O245  1  0.39368891  0.12671947  0.91045723  1
  O  O246  1  0.39978055  0.63484121  0.42170680  1
  O  O247  1  0.38838537  0.61011754  0.90953930  1
  O  O248  1  0.73771901  0.12036234  0.41972137  1
  O  O249  1  0.72475457  0.11400595  0.90804987  1
  O  O250  1  0.73312977  0.62235719  0.42015966  1
  O  O251  1  0.70843316  0.61315043  0.91838653  1
  O  O252  1  0.22583645  0.37860994  0.41969565  1
  O  O253  1  0.21389334  0.36059816  0.91164147  1
  O  O254  1  0.23087164  0.87826071  0.42043893  1
  O  O255  1  0.21767703  0.84054821  0.91520183  1
  O  O256  1  0.57879008  0.36540080  0.42737136  1
  O  O257  1  0.55728126  0.34724395  0.91543012  1
  O  O258  1  0.56448130  0.86543204  0.41668829  1
  O  O259  1  0.55619213  0.85096002  0.91734191  1
  O  O260  1  0.90036571  0.37545686  0.41902593  1
  O  O261  1  0.87100499  0.34843624  0.91677539  1
  O  O262  1  0.89730627  0.87287411  0.41908815  1
  O  O263  1  0.86916810  0.85811006  0.92003855  1
  O  O264  1  0.06164581  0.37688062  0.41815094  1
  O  O265  1  0.05721217  0.40091349  0.91703926  1
  O  O266  1  0.06491452  0.87309076  0.41978308  1
  O  O267  1  0.04950769  0.90337979  0.93185395  1
  O  O268  1  0.38856859  0.36839028  0.42737824  1
  O  O269  1  0.37400851  0.39248584  0.91749125  1
  O  O270  1  0.39970065  0.86510278  0.42130725  1
  O  O271  1  0.37657383  0.88340946  0.92320121  1
  O  O272  1  0.73775400  0.37956027  0.41899427  1
  O  O273  1  0.71285150  0.38840014  0.90971895  1
  O  O274  1  0.73280475  0.87890632  0.42155117  1
  O  O275  1  0.71017428  0.89333288  0.90896985  1
  O  O276  1  0.22468499  0.12371019  0.41893781  1
  O  O277  1  0.22326024  0.14474251  0.91147657  1
  O  O278  1  0.23251562  0.62167309  0.42083812  1
  O  O279  1  0.22603780  0.63515718  0.91086785  1
  O  O280  1  0.57798603  0.13453552  0.42847156  1
  O  O281  1  0.55951928  0.14234646  0.90802794  1
  O  O282  1  0.56575504  0.63444771  0.42128940  1
  O  O283  1  0.54566000  0.65387216  0.90609577  1
  O  O284  1  0.90010727  0.12520470  0.41902819  1
  O  O285  1  0.89400760  0.12484486  0.91107260  1
  O  O286  1  0.89873770  0.62688713  0.41931117  1
  O  O287  1  0.90421544  0.63882004  0.92292567  1
  O  O288  1  0.15854481  -0.00702586  0.09145510  1
  O  O289  1  0.17215474  -0.00622365  0.57906034  1
  O  O290  1  0.16176251  0.50891855  0.09205643  1
  O  O291  1  0.17560094  0.50360835  0.58138265  1
  O  O292  1  0.48787110  -0.01181634  0.07844625  1
  O  O293  1  0.52975591  -0.00621061  0.58321123  1
  O  O294  1  0.47336773  0.49673134  0.07792888  1
  O  O295  1  0.52881458  0.50417099  0.58364166  1
  O  O296  1  0.84612499  -0.00526072  0.08260416  1
  O  O297  1  0.85154454  0.00088437  0.58246817  1
  O  O298  1  0.84320426  0.50204630  0.08717788  1
  O  O299  1  0.85248856  0.49862818  0.58313279  1
  O  O300  1  0.00538338  0.26553335  0.07646919  1
  O  O301  1  0.01832903  0.25006185  0.58271015  1
  O  O302  1  0.00294566  0.74732353  0.09077741  1
  O  O303  1  0.00977561  0.74899692  0.58149650  1
  O  O304  1  0.29777636  0.24860681  0.07654156  1
  O  O305  1  0.34978262  0.26403808  0.57210040  1
  O  O306  1  0.32136548  0.75240379  0.09199245  1
  O  O307  1  0.35114142  0.74915445  0.58148972  1
  O  O308  1  0.67657098  0.26233449  0.07695613  1
  O  O309  1  0.68470845  0.24973355  0.58406590  1
  O  O310  1  0.67174320  0.75936603  0.07513676  1
  O  O311  1  0.69493711  0.74939751  0.58342822  1
  O  O312  1  0.14106239  -0.00005710  0.41795437  1
  O  O313  1  0.18475049  0.01012623  0.91964218  1
  O  O314  1  0.14192571  0.50090518  0.41924504  1
  O  O315  1  0.17302795  0.50057238  0.90867981  1
  O  O316  1  0.48620325  -0.01174828  0.43289155  1
  O  O317  1  0.49677683  0.01294310  0.92016002  1
  O  O318  1  0.48489623  0.51209128  0.43032108  1
  O  O319  1  0.51116889  0.51238110  0.91572442  1
  O  O320  1  0.82170349  -0.00086785  0.41638174  1
  O  O321  1  0.82097841  -0.00192276  0.91111580  1
  O  O322  1  0.82285460  0.50088927  0.41953536  1
  O  O323  1  0.83359789  0.48740283  0.92088023  1
  O  O324  1  0.29387643  0.25047163  0.41628513  1
  O  O325  1  0.32415229  0.25446376  0.90594612  1
  O  O326  1  0.30229477  0.75025589  0.42076640  1
  O  O327  1  0.33615625  0.74434043  0.91214505  1
  O  O328  1  0.67419109  0.24977154  0.41903876  1
  O  O329  1  0.67293829  0.24773821  0.90582968  1
  O  O330  1  0.66069737  0.75061550  0.42079278  1
  O  O331  1  0.67057834  0.75139525  0.90832816  1
  O  O332  1  0.98136938  0.25084846  0.41798906  1
  O  O333  1  1.00098828  0.23607192  0.91959666  1
  O  O334  1  0.98201163  0.75037844  0.42014738  1
  O  O335  1  1.01700322  0.74244037  0.91937470  1
  O  O336  1  0.20942771  0.08117280  0.19533984  1
  O  O337  1  0.20848505  0.07680063  0.68842385  1
  O  O338  1  0.21061401  0.58685956  0.20135800  1
  O  O339  1  0.20847379  0.58425967  0.69184188  1
  O  O340  1  0.54651042  0.08364001  0.20236470  1
  O  O341  1  0.54605166  0.08028091  0.69030333  1
  O  O342  1  0.54386339  0.58211490  0.20456465  1
  O  O343  1  0.54482746  0.58593972  0.69320675  1
  O  O344  1  0.86513484  0.08440721  0.18665321  1
  O  O345  1  0.87619785  0.08243631  0.69248270  1
  O  O346  1  0.88198151  0.58206126  0.19637365  1
  O  O347  1  0.87850356  0.58267490  0.69349618  1
  O  O348  1  0.04796750  0.34115836  0.19457176  1
  O  O349  1  0.04155540  0.33604384  0.69166937  1
  O  O350  1  0.04101085  0.83006973  0.19993760  1
  O  O351  1  0.03454072  0.83096807  0.69160271  1
  O  O352  1  0.37649796  0.33308732  0.20300409  1
  O  O353  1  0.37958116  0.34388067  0.68644192  1
  O  O354  1  0.36266411  0.83291326  0.19996087  1
  O  O355  1  0.37472960  0.83114618  0.69132556  1
  O  O356  1  0.71436146  0.33594087  0.19434271  1
  O  O357  1  0.71127609  0.33337051  0.69318280  1
  O  O358  1  0.70788987  0.83318837  0.19363903  1
  O  O359  1  0.71127076  0.83261461  0.69333039  1
  O  O360  1  0.20978006  0.42087251  0.19757772  1
  O  O361  1  0.20725263  0.42020155  0.69092421  1
  O  O362  1  0.20814964  0.91284409  0.19987895  1
  O  O363  1  0.21221947  0.91571179  0.69194618  1
  O  O364  1  0.54766912  0.41506236  0.20318125  1
  O  O365  1  0.54691571  0.41888449  0.69173198  1
  O  O366  1  0.54430156  0.92194399  0.19618331  1
  O  O367  1  0.54502479  0.91269429  0.69224480  1
  O  O368  1  0.88037791  0.42041449  0.19780807  1
  O  O369  1  0.87476122  0.41724752  0.69286224  1
  O  O370  1  0.87698284  0.91181989  0.19590422  1
  O  O371  1  0.87396617  0.91681892  0.69183231  1
  O  O372  1  0.05273671  0.17524578  0.19822745  1
  O  O373  1  0.03595831  0.16690865  0.69276614  1
  O  O374  1  0.04516931  0.66706644  0.20062895  1
  O  O375  1  0.04117791  0.66554303  0.69274615  1
  O  O376  1  0.37816949  0.16776683  0.20342621  1
  O  O377  1  0.38287109  0.15814326  0.69239667  1
  O  O378  1  0.37347254  0.66727260  0.19825962  1
  O  O379  1  0.37707616  0.66647329  0.69203770  1
  O  O380  1  0.71123633  0.16788996  0.20046181  1
  O  O381  1  0.71282782  0.16574702  0.69265217  1
  O  O382  1  0.70995846  0.66509992  0.20103050  1
  O  O383  1  0.71049716  0.66748137  0.69344612  1
  O  O384  1  0.12938603  0.08027720  0.30678154  1
  O  O385  1  0.12489418  0.08113433  0.80351509  1
  O  O386  1  0.12350357  0.58485579  0.31071098  1
  O  O387  1  0.12547732  0.58400654  0.80131660  1
  O  O388  1  0.45530933  0.08132886  0.30472487  1
  O  O389  1  0.45908573  0.08379409  0.80324120  1
  O  O390  1  0.45590197  0.58584822  0.31292406  1
  O  O391  1  0.45679494  0.58556350  0.80191800  1
  O  O392  1  0.79182549  0.08514810  0.30650775  1
  O  O393  1  0.79004008  0.08117581  0.80112839  1
  O  O394  1  0.79167791  0.58106909  0.30894671  1
  O  O395  1  0.78951070  0.58281253  0.79858395  1
  O  O396  1  0.28645247  0.33735425  0.30952744  1
  O  O397  1  0.28267812  0.34401880  0.80259217  1
  O  O398  1  0.28699660  0.83244014  0.31121694  1
  O  O399  1  0.29451349  0.83081210  0.80607508  1
  O  O400  1  0.63078543  0.33316651  0.30983761  1
  O  O401  1  0.62285066  0.33231662  0.80086000  1
  O  O402  1  0.63483541  0.83166558  0.30891762  1
  O  O403  1  0.62108761  0.83272823  0.80222931  1
  O  O404  1  0.95572425  0.33803415  0.30711655  1
  O  O405  1  0.95452325  0.33200555  0.79667569  1
  O  O406  1  0.95733353  0.83144098  0.30923450  1
  O  O407  1  0.95411771  0.83460330  0.79987999  1
  O  O408  1  0.12202288  0.41941889  0.30819822  1
  O  O409  1  0.12078049  0.41881358  0.80249152  1
  O  O410  1  0.12265058  0.91392621  0.30939990  1
  O  O411  1  0.12100958  0.91989836  0.79877930  1
  O  O412  1  0.45587405  0.41926975  0.30452157  1
  O  O413  1  0.45502692  0.41832984  0.79592040  1
  O  O414  1  0.45171943  0.92050430  0.31363873  1
  O  O415  1  0.45403328  0.91684082  0.79675396  1
  O  O416  1  0.79477429  0.41847287  0.30708588  1
  O  O417  1  0.78908516  0.41439138  0.80499425  1
  O  O418  1  0.78822181  0.91139308  0.30757804  1
  O  O419  1  0.78742440  0.91545270  0.80351127  1
  O  O420  1  0.28717265  0.16576056  0.30855748  1
  O  O421  1  0.28607291  0.16105553  0.80107643  1
  O  O422  1  0.28758333  0.66670532  0.31106835  1
  O  O423  1  0.28986434  0.66546026  0.80169948  1
  O  O424  1  0.62781334  0.16676126  0.31080391  1
  O  O425  1  0.62532417  0.16457783  0.79875010  1
  O  O426  1  0.62609134  0.66697343  0.31082292  1
  O  O427  1  0.62332310  0.66721203  0.80249602  1
  O  O428  1  0.94820519  0.17220944  0.30631499  1
  O  O429  1  0.95688103  0.16316821  0.80400517  1
  O  O430  1  0.96358334  0.66642321  0.31052967  1
  O  O431  1  0.96025574  0.66500401  0.80712973  1
  F  F432  1  0.04879182  -0.01447813  0.20031730  1
  F  F433  1  0.04077046  0.00057311  0.69686404  1
  F  F434  1  0.04736679  0.50346070  0.20770548  1
  F  F435  1  0.04328372  0.50101612  0.69936901  1
  F  F436  1  0.37713724  -0.00409393  0.20633455  1
  F  F437  1  0.37726973  -0.00207462  0.69674326  1
  F  F438  1  0.37623707  0.50418756  0.20765656  1
  F  F439  1  0.37761040  0.50580459  0.69617797  1
  F  F440  1  0.70913874  -0.00188956  0.20416233  1
  F  F441  1  0.71274128  -0.00260119  0.69873254  1
  F  F442  1  0.71492044  0.50013109  0.20567379  1
  F  F443  1  0.71167274  0.49819198  0.69910786  1
  F  F444  1  0.21485934  0.25151250  0.20674535  1
  F  F445  1  0.19373909  0.25757543  0.68702591  1
  F  F446  1  0.20966669  0.74907040  0.20927184  1
  F  F447  1  0.21541877  0.74205620  0.69349517  1
  F  F448  1  0.54769187  0.25021877  0.20916918  1
  F  F449  1  0.54839091  0.25079191  0.69512185  1
  F  F450  1  0.54986376  0.74075524  0.20326144  1
  F  F451  1  0.54541331  0.74991939  0.69886422  1
  F  F452  1  0.87486957  0.25224154  0.19965146  1
  F  F453  1  0.87652744  0.24748736  0.69825304  1
  F  F454  1  0.88059171  0.75253526  0.20398039  1
  F  F455  1  0.87763406  0.74621800  0.70119436  1
  F  F456  1  0.28443762  -0.00135622  0.30081070  1
  F  F457  1  0.28976587  0.00009611  0.79413070  1
  F  F458  1  0.28667560  0.50292254  0.30402657  1
  F  F459  1  0.28731928  0.50290194  0.79270636  1
  F  F460  1  0.62399981  -0.00283836  0.30428700  1
  F  F461  1  0.62089299  -0.00034325  0.79329464  1
  F  F462  1  0.62806446  0.49997873  0.30477331  1
  F  F463  1  0.62130998  0.50083335  0.79441124  1
  F  F464  1  0.95578612  -0.01044774  0.30905638  1
  F  F465  1  0.95285013  0.00053405  0.79443487  1
  F  F466  1  0.95705680  0.50127127  0.30313250  1
  F  F467  1  0.95481926  0.50008124  0.79567737  1
  F  F468  1  0.12944646  0.25328278  0.30561632  1
  F  F469  1  0.11816650  0.25482422  0.79708356  1
  F  F470  1  0.12017251  0.74986926  0.30476856  1
  F  F471  1  0.12192658  0.74576292  0.79467980  1
  F  F472  1  0.45833399  0.25086613  0.30581439  1
  F  F473  1  0.46665999  0.25024356  0.79479754  1
  F  F474  1  0.44913203  0.73952505  0.30673055  1
  F  F475  1  0.45274598  0.74927002  0.79294209  1
  F  F476  1  0.79014181  0.25461628  0.30077980  1
  F  F477  1  0.78727579  0.24730445  0.79428081  1
  F  F478  1  0.78947447  0.75369550  0.30300041  1
  F  F479  1  0.78717950  0.74974394  0.79599620  1
