# generated using pymatgen
data_K24Na3Li5Mg64Fe17Si79(O5F)48
_symmetry_space_group_name_H-M   'P 1'
_cell_length_a   16.08281782
_cell_length_b   18.59432089
_cell_length_c   20.55589309
_cell_angle_alpha   89.99185748
_cell_angle_beta   100.01988966
_cell_angle_gamma   90.03380329
_symmetry_Int_Tables_number   1
_chemical_formula_structural   K24Na3Li5Mg64Fe17Si79(O5F)48
_chemical_formula_sum   'K24 Na3 Li5 Mg64 Fe17 Si79 O240 F48'
_cell_volume   6053.45874391
_cell_formula_units_Z   1
loop_
 _symmetry_equiv_pos_site_id
 _symmetry_equiv_pos_as_xyz
  1  'x, y, z'
loop_
 _atom_site_type_symbol
 _atom_site_label
 _atom_site_symmetry_multiplicity
 _atom_site_fract_x
 _atom_site_fract_y
 _atom_site_fract_z
 _atom_site_occupancy
  K  K0  1  0.00299833  -0.01052853  0.00649992  1
  K  K1  1  -0.00627157  -0.00156584  0.49656059  1
  K  K2  1  -0.00605074  0.50318909  0.00121211  1
  K  K3  1  -0.00580667  0.49756741  0.49630270  1
  K  K4  1  0.33492691  -0.01258334  -0.00104899  1
  K  K5  1  0.33477716  -0.00223625  0.49668539  1
  K  K6  1  0.34702073  0.50286591  0.00872670  1
  K  K7  1  0.33364440  0.49911424  0.49166624  1
  K  K8  1  0.66353042  -0.00449048  0.01124308  1
  K  K9  1  0.66231269  -0.00641279  0.50080366  1
  K  K10  1  0.67090295  0.49957117  0.00578378  1
  K  K11  1  0.66201784  0.50075668  0.49827779  1
  K  K12  1  0.16901188  0.24644392  0.00509585  1
  K  K13  1  0.14780268  0.24961628  0.49142742  1
  K  K14  1  0.16655099  0.75167406  0.00267801  1
  K  K15  1  0.17260428  0.75552564  0.49759669  1
  K  K16  1  0.50879564  0.25072459  0.01726371  1
  K  K17  1  0.50218455  0.25741944  0.49721536  1
  K  K18  1  0.49753768  0.75425656  -0.00046412  1
  K  K19  1  0.50141131  0.74860893  0.49761923  1
  K  K20  1  0.82526016  0.24568287  0.00792893  1
  K  K21  1  0.83837646  0.25415069  0.49855292  1
  K  K22  1  0.83355934  0.74777118  -0.00280853  1
  K  K23  1  0.82415229  0.75028545  0.49923951  1
  Na  Na24  1  0.66685065  0.74807275  0.75621801  1
  Na  Na25  1  0.33554348  0.92093699  0.24945266  1
  Na  Na26  1  0.33460381  0.07575154  0.75079910  1
  Li  Li27  1  0.82895858  0.50299919  0.75129339  1
  Li  Li28  1  0.67149226  0.25242819  0.25733461  1
  Li  Li29  1  0.33564695  0.91640364  0.75782949  1
  Li  Li30  1  0.49730922  0.66791590  0.24368888  1
  Li  Li31  1  0.66690045  0.09448872  0.25454480  1
  Mg  Mg32  1  0.33349862  0.24752567  0.75057147  1
  Mg  Mg33  1  0.00160463  0.24885604  0.74505829  1
  Mg  Mg34  1  0.66924820  0.25066140  0.75018483  1
  Mg  Mg35  1  0.82861277  0.00008214  0.24719614  1
  Mg  Mg36  1  0.50057845  0.50101631  0.75231694  1
  Mg  Mg37  1  0.49841693  -0.00107063  0.75342078  1
  Mg  Mg38  1  0.16482880  0.50073132  0.74998673  1
  Mg  Mg39  1  0.50312935  0.00508425  0.25514764  1
  Mg  Mg40  1  0.33356037  0.24979565  0.25398269  1
  Mg  Mg41  1  0.16735029  0.49844580  0.24951081  1
  Mg  Mg42  1  0.50111779  0.50244270  0.24735384  1
  Mg  Mg43  1  -0.00164723  0.74972847  0.74902999  1
  Mg  Mg44  1  0.33371701  0.75248569  0.75359091  1
  Mg  Mg45  1  0.16523393  0.00251379  0.25031611  1
  Mg  Mg46  1  0.83423248  0.50033482  0.24599430  1
  Mg  Mg47  1  0.83509175  0.00018896  0.74459843  1
  Mg  Mg48  1  0.00358522  0.74979506  0.24389854  1
  Mg  Mg49  1  0.66437066  0.74927764  0.24866389  1
  Mg  Mg50  1  -0.00531407  0.24875977  0.25308099  1
  Mg  Mg51  1  0.33813010  0.75014330  0.24746291  1
  Mg  Mg52  1  0.17146648  -0.00226129  0.75011192  1
  Mg  Mg53  1  0.66484359  0.58574839  0.24544562  1
  Mg  Mg54  1  0.50602203  0.16859282  0.25307448  1
  Mg  Mg55  1  0.50227278  0.66660594  0.75288567  1
  Mg  Mg56  1  0.83023951  0.33350217  0.25094786  1
  Mg  Mg57  1  0.16485507  0.16511884  0.25422188  1
  Mg  Mg58  1  0.33514004  0.41555553  0.25302491  1
  Mg  Mg59  1  0.16693607  0.16379063  0.74587434  1
  Mg  Mg60  1  0.17108776  0.83485129  0.75186983  1
  Mg  Mg61  1  0.00040470  0.08437340  0.74349698  1
  Mg  Mg62  1  -0.00383316  0.08398482  0.25137732  1
  Mg  Mg63  1  0.16962669  0.66521920  0.24464899  1
  Mg  Mg64  1  0.33397192  0.58433205  0.75320107  1
  Mg  Mg65  1  0.83067235  0.83214439  0.74648303  1
  Mg  Mg66  1  0.33661979  0.08570234  0.25396911  1
  Mg  Mg67  1  0.00008910  0.41557350  0.24946668  1
  Mg  Mg68  1  0.49889394  0.83320686  0.25112338  1
  Mg  Mg69  1  -0.00510240  0.58335588  0.74992201  1
  Mg  Mg70  1  0.83536305  0.16520686  0.74498586  1
  Mg  Mg71  1  0.82578911  0.16583660  0.25009429  1
  Mg  Mg72  1  0.00049282  0.58391055  0.24551655  1
  Mg  Mg73  1  0.16660387  0.66674022  0.75171813  1
  Mg  Mg74  1  0.67004681  0.58381908  0.75229597  1
  Mg  Mg75  1  0.50115787  0.16563297  0.75195527  1
  Mg  Mg76  1  0.33729695  0.58490975  0.24678196  1
  Mg  Mg77  1  0.83408357  0.66602696  0.24543624  1
  Mg  Mg78  1  0.16854552  0.83513276  0.24636108  1
  Mg  Mg79  1  0.66706779  0.91884776  0.25120770  1
  Mg  Mg80  1  0.00088654  0.91575912  0.74725802  1
  Mg  Mg81  1  -0.00386695  0.41779425  0.74848103  1
  Mg  Mg82  1  0.66689787  0.41491567  0.24981744  1
  Mg  Mg83  1  0.66837501  0.08501713  0.74866969  1
  Mg  Mg84  1  0.49898160  0.83539360  0.75670177  1
  Mg  Mg85  1  0.50489756  0.33292434  0.24997008  1
  Mg  Mg86  1  0.50044818  0.33320002  0.75186648  1
  Mg  Mg87  1  0.00166593  0.91482098  0.24677439  1
  Mg  Mg88  1  0.16534649  0.33327651  0.25258881  1
  Mg  Mg89  1  0.82999975  0.66303697  0.75063680  1
  Mg  Mg90  1  0.16463386  0.33391173  0.74771408  1
  Mg  Mg91  1  0.67031870  0.41780669  0.75355909  1
  Mg  Mg92  1  0.66619250  0.91581848  0.75122180  1
  Mg  Mg93  1  0.33290822  0.41526706  0.75104970  1
  Mg  Mg94  1  0.83398512  0.83364881  0.24779760  1
  Mg  Mg95  1  0.83417420  0.33624868  0.75041083  1
  Fe  Fe96  1  0.03518743  0.16646045  0.60521145  1
  Fe  Fe97  1  0.80843127  0.58013439  0.89298166  1
  Fe  Fe98  1  0.35957794  0.66884662  0.10775985  1
  Fe  Fe99  1  0.85717565  0.08115613  0.60458100  1
  Fe  Fe100  1  0.14218221  0.41769991  0.38960958  1
  Fe  Fe101  1  0.13583766  0.08334457  0.39102572  1
  Fe  Fe102  1  0.85830042  0.58319962  0.10783344  1
  Fe  Fe103  1  0.63470516  0.66622614  0.89628328  1
  Fe  Fe104  1  0.69056813  0.32610582  0.11092475  1
  Fe  Fe105  1  0.68659985  0.66357379  0.60740065  1
  Fe  Fe106  1  0.02825138  0.83348145  0.10603627  1
  Fe  Fe107  1  0.31176025  0.83026489  0.89256750  1
  Fe  Fe108  1  0.63666047  0.16896749  0.39498681  1
  Fe  Fe109  1  0.46971210  0.08286956  0.39563017  1
  Fe  Fe110  1  0.79312271  0.07563968  0.38688067  1
  Fe  Fe111  1  0.64485638  0.33766027  0.39227001  1
  Fe  Fe112  1  0.95902734  0.16735287  0.38929835  1
  Si  Si113  1  0.13849242  0.41713560  0.88447553  1
  Si  Si114  1  0.86087622  0.58575142  0.61098282  1
  Si  Si115  1  0.85437449  0.91440641  0.11000856  1
  Si  Si116  1  0.85456403  0.90892803  0.61042424  1
  Si  Si117  1  0.02122455  0.16614364  0.11308068  1
  Si  Si118  1  0.64333794  0.84318035  0.89152951  1
  Si  Si119  1  0.35975039  0.16988477  0.11617477  1
  Si  Si120  1  0.68817084  0.33784661  0.61650056  1
  Si  Si121  1  0.52193650  0.91841785  0.11713824  1
  Si  Si122  1  0.96971714  0.33971075  0.38789019  1
  Si  Si123  1  0.19222606  0.91444081  0.61459076  1
  Si  Si124  1  0.47421880  0.58310511  0.38299481  1
  Si  Si125  1  0.14434858  0.08252834  0.88431043  1
  Si  Si126  1  0.31027487  0.82934991  0.38274228  1
  Si  Si127  1  0.97931648  0.83051120  0.38317375  1
  Si  Si128  1  0.97643564  0.32864795  0.88437524  1
  Si  Si129  1  0.36023756  0.66953012  0.61727818  1
  Si  Si130  1  0.19600528  0.58578938  0.61586299  1
  Si  Si131  1  0.81239391  0.40972515  0.88878546  1
  Si  Si132  1  0.30498968  0.65874620  0.88768129  1
  Si  Si133  1  0.64341097  0.33197289  0.88680695  1
  Si  Si134  1  0.35915695  0.33511916  0.11588112  1
  Si  Si135  1  0.81232745  0.90801645  0.38667486  1
  Si  Si136  1  0.81185812  0.58836395  0.38256618  1
  Si  Si137  1  0.19077222  0.41066167  0.11489220  1
  Si  Si138  1  0.68876376  0.15992996  0.11036281  1
  Si  Si139  1  0.51931335  0.41460751  0.61717230  1
  Si  Si140  1  0.97931807  0.16550817  0.88395810  1
  Si  Si141  1  0.30544421  0.33387586  0.88634059  1
  Si  Si142  1  0.47175066  0.41899853  0.38774467  1
  Si  Si143  1  0.47867719  0.08910514  0.88832620  1
  Si  Si144  1  0.30227972  0.16969603  0.38918003  1
  Si  Si145  1  0.47504322  0.41230378  0.88665511  1
  Si  Si146  1  0.64572895  0.16640785  0.88688521  1
  Si  Si147  1  0.02508796  0.33032171  0.11465318  1
  Si  Si148  1  0.30986716  0.66811208  0.38336680  1
  Si  Si149  1  0.13947702  0.91753746  0.88670309  1
  Si  Si150  1  0.68556262  0.83468754  0.61386233  1
  Si  Si151  1  0.52345124  0.41955877  0.11107953  1
  Si  Si152  1  0.30945573  0.33149755  0.38807656  1
  Si  Si153  1  0.68599547  0.83609280  0.11574308  1
  Si  Si154  1  0.35530551  0.32910377  0.61553945  1
  Si  Si155  1  0.64301025  0.82806301  0.38574570  1
  Si  Si156  1  0.02378524  0.34020054  0.61128520  1
  Si  Si157  1  0.14564797  0.58677944  0.38528593  1
  Si  Si158  1  0.97436737  0.83666398  0.88173083  1
  Si  Si159  1  0.03339795  0.66110987  0.10752827  1
  Si  Si160  1  0.80756951  0.42613613  0.38587105  1
  Si  Si161  1  0.97445852  0.67162007  0.88563900  1
  Si  Si162  1  0.20099174  0.07977595  0.61201917  1
  Si  Si163  1  0.53076013  0.58539966  0.11057045  1
  Si  Si164  1  0.85607692  0.08031701  0.11138514  1
  Si  Si165  1  0.48080079  0.91281486  0.38935535  1
  Si  Si166  1  0.46683154  0.57777647  0.88854355  1
  Si  Si167  1  0.69281043  0.67226518  0.11182009  1
  Si  Si168  1  0.19365183  0.92526324  0.11139115  1
  Si  Si169  1  0.81057444  0.91963663  0.88352670  1
  Si  Si170  1  0.35729311  0.83634938  0.11270044  1
  Si  Si171  1  0.19713769  0.57487343  0.11159176  1
  Si  Si172  1  0.81250432  0.08494740  0.88427781  1
  Si  Si173  1  0.52419726  0.92134567  0.61789554  1
  Si  Si174  1  0.14715314  0.91365419  0.38677108  1
  Si  Si175  1  0.52822976  0.08664538  0.61656145  1
  Si  Si176  1  0.97881070  0.66800413  0.38205073  1
  Si  Si177  1  0.19217656  0.09054496  0.11401690  1
  Si  Si178  1  0.36192603  0.83434437  0.61909875  1
  Si  Si179  1  0.64261568  0.66309426  0.38251296  1
  Si  Si180  1  0.69095435  0.17235024  0.61280786  1
  Si  Si181  1  0.30708984  0.16966920  0.88552008  1
  Si  Si182  1  0.85954188  0.41152080  0.11061811  1
  Si  Si183  1  0.47974290  0.92387976  0.89331006  1
  Si  Si184  1  0.02661453  0.83105855  0.61315916  1
  Si  Si185  1  0.02806404  0.66435100  0.61403548  1
  Si  Si186  1  0.52226846  0.08229845  0.11708388  1
  Si  Si187  1  0.51782859  0.57797896  0.61284134  1
  Si  Si188  1  0.13551028  0.58300011  0.88463877  1
  Si  Si189  1  0.36454303  0.16615072  0.61701688  1
  Si  Si190  1  0.19405598  0.42006375  0.61486991  1
  Si  Si191  1  0.85611373  0.41929255  0.61595437  1
  O  O192  1  0.26757883  0.13312877  0.08344869  1
  O  O193  1  0.29259606  0.10580995  0.59219469  1
  O  O194  1  0.27638728  0.59731612  0.07779529  1
  O  O195  1  0.26959374  0.62990023  0.58664576  1
  O  O196  1  0.60201713  0.11070938  0.08330913  1
  O  O197  1  0.60917355  0.11909850  0.58793621  1
  O  O198  1  0.61724758  0.61430076  0.08482872  1
  O  O199  1  0.59160210  0.60350778  0.57446440  1
  O  O200  1  0.93564445  0.11946666  0.08158725  1
  O  O201  1  0.95121213  0.10421839  0.57017168  1
  O  O202  1  0.95750030  0.60727263  0.07749182  1
  O  O203  1  0.94627245  0.61593445  0.58203483  1
  O  O204  1  0.10944866  0.35883811  0.08591075  1
  O  O205  1  0.10138552  0.38648705  0.58568521  1
  O  O206  1  0.11396372  0.88179790  0.06991135  1
  O  O207  1  0.10411739  0.86964305  0.58249700  1
  O  O208  1  0.43083233  0.37866552  0.08381606  1
  O  O209  1  0.43802982  0.36199417  0.58802717  1
  O  O210  1  0.44003737  0.87033747  0.08439669  1
  O  O211  1  0.43791887  0.87507934  0.58784391  1
  O  O212  1  0.78842149  0.35419857  0.07834111  1
  O  O213  1  0.76822178  0.37372171  0.58760272  1
  O  O214  1  0.76339953  0.87218981  0.08383052  1
  O  O215  1  0.77206358  0.85679387  0.58413861  1
  O  O216  1  0.26911017  0.37482854  0.08361322  1
  O  O217  1  0.27086790  0.37772897  0.58710724  1
  O  O218  1  0.28218401  0.89689716  0.08990015  1
  O  O219  1  0.27063343  0.87246376  0.58738817  1
  O  O220  1  0.59210464  0.38040589  0.07467075  1
  O  O221  1  0.60320650  0.38649749  0.58890071  1
  O  O222  1  0.60313656  0.88602219  0.08722654  1
  O  O223  1  0.60587864  0.89152052  0.58745311  1
  O  O224  1  0.94835716  0.38435048  0.08445079  1
  O  O225  1  0.93567070  0.38544758  0.58505535  1
  O  O226  1  0.92394729  0.87842891  0.07213384  1
  O  O227  1  0.93654379  0.87039592  0.58345460  1
  O  O228  1  0.10247857  0.13266471  0.08282946  1
  O  O229  1  0.13238627  0.13456199  0.57348845  1
  O  O230  1  0.11819957  0.62769210  0.08251956  1
  O  O231  1  0.10768186  0.62693132  0.58537936  1
  O  O232  1  0.43597535  0.12974012  0.08546944  1
  O  O233  1  0.44852690  0.13964710  0.58794035  1
  O  O234  1  0.45472920  0.63566651  0.07426856  1
  O  O235  1  0.43176843  0.62627504  0.58506546  1
  O  O236  1  0.76783561  0.12078482  0.07872673  1
  O  O237  1  0.76916977  0.14901580  0.57944563  1
  O  O238  1  0.77509253  0.65357141  0.08037855  1
  O  O239  1  0.78304421  0.63239990  0.57229292  1
  O  O240  1  0.03952279  0.10015213  0.42464804  1
  O  O241  1  0.06539989  0.12023714  0.91411890  1
  O  O242  1  0.06128921  0.61871671  0.41278030  1
  O  O243  1  0.05846442  0.62091304  0.91372876  1
  O  O244  1  0.36755556  0.10888035  0.42319092  1
  O  O245  1  0.39933656  0.13206656  0.91354537  1
  O  O246  1  0.39528558  0.62104382  0.41330448  1
  O  O247  1  0.37405269  0.59384571  0.90977779  1
  O  O248  1  0.69659737  0.08771121  0.42256773  1
  O  O249  1  0.73361004  0.12153679  0.91490924  1
  O  O250  1  0.73022780  0.61862430  0.41366788  1
  O  O251  1  0.72016846  0.60556906  0.93501944  1
  O  O252  1  0.23092179  0.35418466  0.42345671  1
  O  O253  1  0.22767073  0.37492543  0.91447374  1
  O  O254  1  0.22847310  0.85893304  0.41389428  1
  O  O255  1  0.21661896  0.86962953  0.92414757  1
  O  O256  1  0.54937984  0.37360435  0.42697893  1
  O  O257  1  0.56040989  0.36485076  0.91418219  1
  O  O258  1  0.56429421  0.86021925  0.41823268  1
  O  O259  1  0.57289158  0.88925574  0.92490705  1
  O  O260  1  0.88450706  0.37065158  0.41450023  1
  O  O261  1  0.89302730  0.35323155  0.91400610  1
  O  O262  1  0.89573106  0.85524327  0.41315122  1
  O  O263  1  0.89287644  0.86884513  0.91133918  1
  O  O264  1  0.04317458  0.39617154  0.42086278  1
  O  O265  1  0.06116671  0.37737144  0.91390811  1
  O  O266  1  0.06384841  0.87745764  0.41374638  1
  O  O267  1  0.05155177  0.89120544  0.91176389  1
  O  O268  1  0.38544063  0.39017796  0.41369433  1
  O  O269  1  0.39493999  0.37518872  0.91554223  1
  O  O270  1  0.39626960  0.87441914  0.41272153  1
  O  O271  1  0.40819083  0.88564111  0.92772201  1
  O  O272  1  0.72776989  0.41005156  0.42094613  1
  O  O273  1  0.72882756  0.37634504  0.91758988  1
  O  O274  1  0.73260438  0.86866090  0.41553994  1
  O  O275  1  0.73198642  0.89034203  0.91632523  1
  O  O276  1  0.21372908  0.15957370  0.41586287  1
  O  O277  1  0.23149431  0.12747198  0.91565488  1
  O  O278  1  0.22653950  0.64094732  0.41346297  1
  O  O279  1  0.22018446  0.62828076  0.91446652  1
  O  O280  1  0.54516597  0.15142117  0.43493080  1
  O  O281  1  0.56749977  0.13231129  0.91894614  1
  O  O282  1  0.56276536  0.62689295  0.41198132  1
  O  O283  1  0.53476941  0.63272830  0.92637152  1
  O  O284  1  0.86285887  0.14853714  0.42366636  1
  O  O285  1  0.89865276  0.13142364  0.91376022  1
  O  O286  1  0.89454125  0.64013840  0.41074299  1
  O  O287  1  0.89948593  0.64558907  0.92173009  1
  O  O288  1  0.18453366  0.00961248  0.08237868  1
  O  O289  1  0.18696116  -0.00416992  0.58348184  1
  O  O290  1  0.16991669  0.49154266  0.08499882  1
  O  O291  1  0.19443551  0.50316495  0.58699842  1
  O  O292  1  0.50416505  0.00010487  0.08665405  1
  O  O293  1  0.50805345  0.00422715  0.58934253  1
  O  O294  1  0.51175457  0.50231985  0.08130536  1
  O  O295  1  0.49162006  0.49423006  0.58739828  1
  O  O296  1  0.84429012  -0.00185425  0.08110783  1
  O  O297  1  0.83158116  -0.01463027  0.57624203  1
  O  O298  1  0.83320637  0.48934148  0.07753219  1
  O  O299  1  0.84548303  0.50092788  0.58549551  1
  O  O300  1  0.00670976  0.24869281  0.08251602  1
  O  O301  1  0.01599776  0.26351543  0.57619936  1
  O  O302  1  0.01896723  0.73963143  0.07297893  1
  O  O303  1  0.01960992  0.74725275  0.58475923  1
  O  O304  1  0.35337354  0.25270220  0.08501490  1
  O  O305  1  0.33875440  0.24744913  0.58604756  1
  O  O306  1  0.32904316  0.76215497  0.07380366  1
  O  O307  1  0.35429587  0.75164757  0.58703843  1
  O  O308  1  0.67049209  0.23474433  0.06976678  1
  O  O309  1  0.66460617  0.25627026  0.58974198  1
  O  O310  1  0.66294299  0.75482246  0.08660263  1
  O  O311  1  0.65451215  0.75871193  0.58000095  1
  O  O312  1  0.17148382  -0.01086401  0.42287288  1
  O  O313  1  0.15404918  0.00141804  0.91485698  1
  O  O314  1  0.17137452  0.51156368  0.42223964  1
  O  O315  1  0.14608772  0.49954990  0.91322321  1
  O  O316  1  0.49559304  -0.01241601  0.42928528  1
  O  O317  1  0.48552210  0.00896867  0.92121724  1
  O  O318  1  0.48306837  0.50301051  0.41685600  1
  O  O319  1  0.48845436  0.49369843  0.91571013  1
  O  O320  1  0.83397960  -0.01606081  0.42166631  1
  O  O321  1  0.83002917  0.00256076  0.91264275  1
  O  O322  1  0.83985108  0.50873473  0.41220670  1
  O  O323  1  0.84076583  0.48488399  0.92323993  1
  O  O324  1  0.34231298  0.25086831  0.41298295  1
  O  O325  1  0.31100821  0.25214559  0.91759097  1
  O  O326  1  0.32930437  0.74832340  0.41564692  1
  O  O327  1  0.33312477  0.73385786  0.92311680  1
  O  O328  1  0.68038496  0.25301390  0.43518825  1
  O  O329  1  0.65833485  0.24916941  0.91497063  1
  O  O330  1  0.65517051  0.74462616  0.41418860  1
  O  O331  1  0.65578516  0.76447958  0.92432311  1
  O  O332  1  0.99272426  0.26131503  0.41920365  1
  O  O333  1  0.99849026  0.24714079  0.91412264  1
  O  O334  1  1.00101703  0.74864367  0.41283403  1
  O  O335  1  0.99922278  0.75568799  0.90997501  1
  O  O336  1  0.20986111  0.08922001  0.19363899  1
  O  O337  1  0.20297758  0.08076902  0.69144296  1
  O  O338  1  0.21246037  0.57834470  0.19280211  1
  O  O339  1  0.21092305  0.58338758  0.69625876  1
  O  O340  1  0.54069021  0.08517783  0.19588531  1
  O  O341  1  0.54568649  0.08608901  0.69719258  1
  O  O342  1  0.54533684  0.58219066  0.19079726  1
  O  O343  1  0.53649087  0.57997164  0.69341673  1
  O  O344  1  0.87629471  0.08033777  0.19073846  1
  O  O345  1  0.87835399  0.08311332  0.69829974  1
  O  O346  1  0.87944535  0.58407491  0.19972227  1
  O  O347  1  0.88159557  0.58856331  0.69091098  1
  O  O348  1  0.04254433  0.32990842  0.19464900  1
  O  O349  1  0.04347432  0.33760807  0.69279039  1
  O  O350  1  0.04647032  0.83317948  0.19783153  1
  O  O351  1  0.04449100  0.83170001  0.69361454  1
  O  O352  1  0.37428111  0.33529821  0.19578761  1
  O  O353  1  0.37443315  0.33262597  0.69633968  1
  O  O354  1  0.38118800  0.82815877  0.19193575  1
  O  O355  1  0.37977090  0.83056926  0.69815254  1
  O  O356  1  0.71293157  0.33735746  0.20009986  1
  O  O357  1  0.70888265  0.33563864  0.69710836  1
  O  O358  1  0.70900509  0.83310559  0.19586909  1
  O  O359  1  0.71040241  0.84072952  0.69371161  1
  O  O360  1  0.21202403  0.41300360  0.19486624  1
  O  O361  1  0.21100093  0.41784333  0.69561409  1
  O  O362  1  0.19824323  0.92181039  0.19058346  1
  O  O363  1  0.20277714  0.91477413  0.69365092  1
  O  O364  1  0.54017551  0.41921360  0.19162139  1
  O  O365  1  0.53893979  0.41429824  0.69759546  1
  O  O366  1  0.54194368  0.91717212  0.19692910  1
  O  O367  1  0.54399338  0.91803582  0.69804764  1
  O  O368  1  0.87882287  0.41560441  0.19220820  1
  O  O369  1  0.87670726  0.41531558  0.69578336  1
  O  O370  1  0.87638134  0.91309459  0.19072593  1
  O  O371  1  0.87706482  0.91334286  0.69165693  1
  O  O372  1  0.04087168  0.16749688  0.19249825  1
  O  O373  1  0.04710117  0.16821977  0.69866006  1
  O  O374  1  0.04787722  0.66465671  0.18959403  1
  O  O375  1  0.04503776  0.66530061  0.69444961  1
  O  O376  1  0.37283294  0.17055799  0.19558981  1
  O  O377  1  0.38426350  0.17420617  0.69646908  1
  O  O378  1  0.37535133  0.66661602  0.19820426  1
  O  O379  1  0.37532052  0.66573426  0.69756057  1
  O  O380  1  0.71269918  0.16570898  0.18875765  1
  O  O381  1  0.70970699  0.16932233  0.69460549  1
  O  O382  1  0.71038052  0.66951077  0.19294044  1
  O  O383  1  0.71380622  0.65940297  0.69651336  1
  O  O384  1  0.11732376  0.08266140  0.29818364  1
  O  O385  1  0.12533439  0.08364391  0.80439604  1
  O  O386  1  0.12628722  0.58482827  0.30427545  1
  O  O387  1  0.12131848  0.58219954  0.80386563  1
  O  O388  1  0.45668569  0.08705026  0.30362148  1
  O  O389  1  0.46870975  0.08639171  0.80923638  1
  O  O390  1  0.45569697  0.57977860  0.30381446  1
  O  O391  1  0.45313870  0.57872915  0.80714147  1
  O  O392  1  0.78855894  0.07924166  0.29673054  1
  O  O393  1  0.79123904  0.08557422  0.80424414  1
  O  O394  1  0.79007265  0.58744102  0.30265585  1
  O  O395  1  0.79006329  0.58144243  0.80197480  1
  O  O396  1  0.28905944  0.33427827  0.30664108  1
  O  O397  1  0.28875376  0.33424161  0.80586382  1
  O  O398  1  0.28681772  0.82580973  0.30368511  1
  O  O399  1  0.28696139  0.82906714  0.80216143  1
  O  O400  1  0.61922944  0.33964894  0.30156948  1
  O  O401  1  0.62396771  0.33226468  0.80622741  1
  O  O402  1  0.62562251  0.83137325  0.30572251  1
  O  O403  1  0.62022769  0.84472868  0.81144593  1
  O  O404  1  0.95520733  0.33781070  0.30611890  1
  O  O405  1  0.95993671  0.33159519  0.80399911  1
  O  O406  1  0.95875544  0.83137927  0.30294237  1
  O  O407  1  0.95666328  0.83566186  0.80124920  1
  O  O408  1  0.12233394  0.41733951  0.29773531  1
  O  O409  1  0.12298178  0.41601145  0.80402040  1
  O  O410  1  0.12621684  0.91535935  0.30602304  1
  O  O411  1  0.12179029  0.91561538  0.80576636  1
  O  O412  1  0.45687228  0.41867188  0.30668776  1
  O  O413  1  0.45462921  0.41313113  0.80601590  1
  O  O414  1  0.46957851  0.91709224  0.30990832  1
  O  O415  1  0.46396660  0.92033800  0.81330551  1
  O  O416  1  0.79145400  0.42394987  0.30506223  1
  O  O417  1  0.78932112  0.40866187  0.80863392  1
  O  O418  1  0.79223817  0.91062367  0.30574785  1
  O  O419  1  0.79203424  0.91942957  0.80313590  1
  O  O420  1  0.28822759  0.16931090  0.30719608  1
  O  O421  1  0.28534309  0.17397850  0.80630789  1
  O  O422  1  0.29001159  0.66523048  0.30355169  1
  O  O423  1  0.28687509  0.66330021  0.80622169  1
  O  O424  1  0.62182299  0.17352722  0.30549821  1
  O  O425  1  0.62714573  0.16733649  0.80643081  1
  O  O426  1  0.62835915  0.66540044  0.30326561  1
  O  O427  1  0.61464910  0.65459690  0.80568469  1
  O  O428  1  0.95004301  0.16571849  0.29690379  1
  O  O429  1  0.95859796  0.16733035  0.80413924  1
  O  O430  1  0.96117815  0.66838160  0.30192354  1
  O  O431  1  0.95913428  0.66762251  0.80456471  1
  F  F432  1  0.04198798  -0.00064556  0.19840965  1
  F  F433  1  0.04716941  -0.00223253  0.70189327  1
  F  F434  1  0.04666902  0.50050443  0.19934328  1
  F  F435  1  0.04666596  0.50021770  0.69983813  1
  F  F436  1  0.38386186  0.01149805  0.19888075  1
  F  F437  1  0.38792680  -0.00967135  0.69986717  1
  F  F438  1  0.37824206  0.49698932  0.20105698  1
  F  F439  1  0.37620213  0.49849372  0.70364876  1
  F  F440  1  0.71525452  -0.01439776  0.19308076  1
  F  F441  1  0.71176162  0.00173090  0.70198443  1
  F  F442  1  0.71203623  0.50203141  0.20056088  1
  F  F443  1  0.70314563  0.49596490  0.70130169  1
  F  F444  1  0.21082779  0.25051680  0.20348257  1
  F  F445  1  0.21334359  0.25304677  0.70095291  1
  F  F446  1  0.21278463  0.74965619  0.19872588  1
  F  F447  1  0.21045593  0.74607935  0.70010949  1
  F  F448  1  0.52812638  0.25117755  0.19376429  1
  F  F449  1  0.54656060  0.25087711  0.70502484  1
  F  F450  1  0.54753200  0.75476043  0.20128146  1
  F  F451  1  0.53114166  0.75245559  0.70316358  1
  F  F452  1  0.87813469  0.25337745  0.19913273  1
  F  F453  1  0.87868266  0.25277555  0.70148954  1
  F  F454  1  0.88008529  0.75064625  0.19973715  1
  F  F455  1  0.88095957  0.75028277  0.69888166  1
  F  F456  1  0.28164792  0.00970150  0.29940042  1
  F  F457  1  0.28045746  -0.00608935  0.80766233  1
  F  F458  1  0.28912501  0.50077353  0.29716571  1
  F  F459  1  0.28536592  0.49766720  0.79864832  1
  F  F460  1  0.62380025  -0.00346888  0.29835324  1
  F  F461  1  0.62492083  0.00377701  0.79844953  1
  F  F462  1  0.62134337  0.50345035  0.29523599  1
  F  F463  1  0.61781267  0.49447023  0.80047151  1
  F  F464  1  0.95215917  -0.00530920  0.29343480  1
  F  F465  1  0.95617584  -0.00100901  0.79624380  1
  F  F466  1  0.95757814  0.50087397  0.29646400  1
  F  F467  1  0.96384393  0.49904021  0.79947902  1
  F  F468  1  0.11798396  0.25062140  0.29737641  1
  F  F469  1  0.12274686  0.25363707  0.79805357  1
  F  F470  1  0.12369617  0.74629257  0.29516332  1
  F  F471  1  0.11959071  0.74936876  0.79673317  1
  F  F472  1  0.45280257  0.25407477  0.29818221  1
  F  F473  1  0.45574120  0.25164774  0.80171156  1
  F  F474  1  0.45407692  0.75547820  0.30279746  1
  F  F475  1  0.45312164  0.74864014  0.80314283  1
  F  F476  1  0.79569138  0.25092476  0.29984992  1
  F  F477  1  0.79058543  0.24848326  0.79727976  1
  F  F478  1  0.79014973  0.74911954  0.29572283  1
  F  F479  1  0.80446446  0.75225553  0.80126165  1
