# generated using pymatgen
data_K24Na3Li5Mg64Fe17Si79(O5F)48
_symmetry_space_group_name_H-M   'P 1'
_cell_length_a   16.07919788
_cell_length_b   18.58281203
_cell_length_c   20.54733764
_cell_angle_alpha   89.98411635
_cell_angle_beta   100.00941687
_cell_angle_gamma   90.02278091
_symmetry_Int_Tables_number   1
_chemical_formula_structural   K24Na3Li5Mg64Fe17Si79(O5F)48
_chemical_formula_sum   'K24 Na3 Li5 Mg64 Fe17 Si79 O240 F48'
_cell_volume   6046.02855835
_cell_formula_units_Z   1
loop_
 _symmetry_equiv_pos_site_id
 _symmetry_equiv_pos_as_xyz
  1  'x, y, z'
loop_
 _atom_site_type_symbol
 _atom_site_label
 _atom_site_symmetry_multiplicity
 _atom_site_fract_x
 _atom_site_fract_y
 _atom_site_fract_z
 _atom_site_occupancy
  K  K0  1  -0.00013596  0.00110125  0.00237265  1
  K  K1  1  -0.00041361  0.00123916  0.49262759  1
  K  K2  1  0.00038581  0.49997658  0.00394594  1
  K  K3  1  0.00392512  0.49935534  0.49864001  1
  K  K4  1  0.33903021  -0.00417391  0.00058145  1
  K  K5  1  0.33213742  -0.00301211  0.49760813  1
  K  K6  1  0.33599020  0.49956570  -0.00218160  1
  K  K7  1  0.32764740  0.50210082  0.50622326  1
  K  K8  1  0.66875878  0.00349226  -0.00151770  1
  K  K9  1  0.66385406  -0.00599598  0.49413926  1
  K  K10  1  0.67185254  0.49695736  0.00010414  1
  K  K11  1  0.66581738  0.49923813  0.50159641  1
  K  K12  1  0.15995608  0.24749308  0.00132266  1
  K  K13  1  0.16741293  0.25896198  0.49805867  1
  K  K14  1  0.16433697  0.75269386  0.00710202  1
  K  K15  1  0.16857188  0.74981512  0.49629156  1
  K  K16  1  0.51580481  0.25905958  0.00174305  1
  K  K17  1  0.50822378  0.25583726  0.50271503  1
  K  K18  1  0.50555877  0.75057231  0.00389018  1
  K  K19  1  0.50420660  0.75122895  0.49804076  1
  K  K20  1  0.82495233  0.24639874  0.00354027  1
  K  K21  1  0.83210190  0.24943523  0.49500895  1
  K  K22  1  0.82772114  0.75302443  0.00293603  1
  K  K23  1  0.82505520  0.75263332  0.49926952  1
  Na  Na24  1  0.66912447  0.24931045  0.25018642  1
  Na  Na25  1  0.83084459  0.83218149  0.24350799  1
  Na  Na26  1  0.83051648  0.83058389  0.75304803  1
  Li  Li27  1  0.50976075  0.49189924  0.74984271  1
  Li  Li28  1  -0.00284693  0.25192499  0.74865736  1
  Li  Li29  1  -0.00327976  0.07951504  0.24606821  1
  Li  Li30  1  0.65727093  0.41780805  0.75201478  1
  Li  Li31  1  0.50671958  0.34237249  0.75234600  1
  Mg  Mg32  1  0.33425778  0.74890491  0.74945122  1
  Mg  Mg33  1  0.66829895  0.74637983  0.75038939  1
  Mg  Mg34  1  -0.00151152  0.74920953  0.74961911  1
  Mg  Mg35  1  0.33466959  0.25281607  0.74805031  1
  Mg  Mg36  1  0.83623573  -0.00149280  0.24942813  1
  Mg  Mg37  1  0.00049776  0.24655535  0.24550821  1
  Mg  Mg38  1  0.49869200  0.00156598  0.75554610  1
  Mg  Mg39  1  0.66190734  0.25680254  0.75274726  1
  Mg  Mg40  1  0.49955888  0.50034308  0.25292450  1
  Mg  Mg41  1  -0.00125787  0.75142162  0.24793794  1
  Mg  Mg42  1  0.66432407  0.75085998  0.25010134  1
  Mg  Mg43  1  0.17121475  0.49866235  0.74482557  1
  Mg  Mg44  1  0.50201110  0.00022227  0.25311792  1
  Mg  Mg45  1  0.33199731  0.75039643  0.25335859  1
  Mg  Mg46  1  0.83001687  0.00107235  0.75530671  1
  Mg  Mg47  1  0.16445157  0.49964224  0.25026461  1
  Mg  Mg48  1  0.16556158  -0.00113433  0.24908691  1
  Mg  Mg49  1  0.33427379  0.24935341  0.25076765  1
  Mg  Mg50  1  0.83293768  0.49793908  0.74646715  1
  Mg  Mg51  1  0.16388291  0.00082344  0.75124171  1
  Mg  Mg52  1  0.83232257  0.49918553  0.24798604  1
  Mg  Mg53  1  0.66650997  0.91416988  0.25096609  1
  Mg  Mg54  1  0.83269431  0.33439662  0.75003747  1
  Mg  Mg55  1  0.66727340  0.08776853  0.75698248  1
  Mg  Mg56  1  -0.00015308  0.91756332  0.24697361  1
  Mg  Mg57  1  -0.00361646  0.08633994  0.75092797  1
  Mg  Mg58  1  0.16559285  0.33230994  0.24867368  1
  Mg  Mg59  1  0.50189209  0.83405347  0.75488349  1
  Mg  Mg60  1  0.33519581  0.91451381  0.25170021  1
  Mg  Mg61  1  0.33419429  0.08357536  0.25121467  1
  Mg  Mg62  1  0.66510220  0.57786921  0.74540097  1
  Mg  Mg63  1  0.16664956  0.83371684  0.24978781  1
  Mg  Mg64  1  0.66742184  0.58506613  0.25201213  1
  Mg  Mg65  1  0.00146029  0.58264298  0.74551240  1
  Mg  Mg66  1  0.50098683  0.66097789  0.74672837  1
  Mg  Mg67  1  0.50281602  0.16696569  0.25175062  1
  Mg  Mg68  1  0.83322728  0.17013006  0.75357769  1
  Mg  Mg69  1  0.66943504  0.41601224  0.25149451  1
  Mg  Mg70  1  0.50206609  0.17147570  0.75482041  1
  Mg  Mg71  1  0.33661536  0.41644798  0.74398157  1
  Mg  Mg72  1  0.16786744  0.66498866  0.74690912  1
  Mg  Mg73  1  0.33465239  0.41549435  0.25263705  1
  Mg  Mg74  1  0.33356752  0.08553883  0.75375160  1
  Mg  Mg75  1  0.49917524  0.66503733  0.25569710  1
  Mg  Mg76  1  -0.00496228  0.91654337  0.75306730  1
  Mg  Mg77  1  -0.00113181  0.58486940  0.25007396  1
  Mg  Mg78  1  0.16547301  0.33312847  0.74591599  1
  Mg  Mg79  1  0.66713592  0.91544684  0.75405430  1
  Mg  Mg80  1  0.83136120  0.66394687  0.74655366  1
  Mg  Mg81  1  0.00125210  0.41270119  0.74605690  1
  Mg  Mg82  1  0.83156921  0.66573201  0.24956510  1
  Mg  Mg83  1  0.50286779  0.83521056  0.25199291  1
  Mg  Mg84  1  0.83404735  0.33265467  0.24777437  1
  Mg  Mg85  1  0.16549715  0.66490388  0.25193614  1
  Mg  Mg86  1  0.16282981  0.16351422  0.24682611  1
  Mg  Mg87  1  0.16241791  0.16839109  0.75015258  1
  Mg  Mg88  1  0.16467972  0.83422615  0.75208263  1
  Mg  Mg89  1  0.33431843  0.91609220  0.75380065  1
  Mg  Mg90  1  0.83468919  0.16449005  0.24868678  1
  Mg  Mg91  1  0.33489660  0.58132732  0.74562945  1
  Mg  Mg92  1  0.33321847  0.58348344  0.25461034  1
  Mg  Mg93  1  0.00045958  0.41353124  0.24549114  1
  Mg  Mg94  1  0.66783444  0.08343732  0.25104997  1
  Mg  Mg95  1  0.50429712  0.33386274  0.25322449  1
  Fe  Fe96  1  0.64745148  0.83443978  0.39326141  1
  Fe  Fe97  1  0.13433084  0.58400275  0.38913784  1
  Fe  Fe98  1  0.69181453  0.83348752  0.10450316  1
  Fe  Fe99  1  0.46864250  0.58118084  0.39265952  1
  Fe  Fe100  1  0.80814380  0.91566431  0.89381649  1
  Fe  Fe101  1  0.80544706  0.58446952  0.38899506  1
  Fe  Fe102  1  0.03065514  0.83564437  0.10771782  1
  Fe  Fe103  1  0.47416171  0.91503256  0.89290971  1
  Fe  Fe104  1  0.64219298  0.17611839  0.89409097  1
  Fe  Fe105  1  0.02953931  0.32951433  0.10696091  1
  Fe  Fe106  1  0.19122060  0.58992450  0.60673760  1
  Fe  Fe107  1  0.64574979  0.16456216  0.39286573  1
  Fe  Fe108  1  0.18850858  0.41337680  0.60538074  1
  Fe  Fe109  1  0.30890190  0.83476858  0.39078580  1
  Fe  Fe110  1  0.69205129  0.66332425  0.60713887  1
  Fe  Fe111  1  0.52666056  0.91945760  0.11011457  1
  Fe  Fe112  1  0.69321698  0.33565246  0.10914020  1
  Si  Si113  1  0.30234576  0.16709115  0.88548669  1
  Si  Si114  1  0.52422072  0.42006431  0.11436941  1
  Si  Si115  1  0.52580853  0.08625625  0.61857074  1
  Si  Si116  1  0.02365541  0.16014194  0.10963030  1
  Si  Si117  1  0.47304085  0.08753711  0.38865688  1
  Si  Si118  1  0.02113620  0.32575365  0.61031268  1
  Si  Si119  1  0.35973569  0.32945540  0.60986443  1
  Si  Si120  1  0.85429215  0.92221011  0.61715201  1
  Si  Si121  1  0.35860634  0.17253456  0.11574723  1
  Si  Si122  1  0.47156216  0.41967697  0.88298727  1
  Si  Si123  1  0.81479036  0.41723876  0.38745116  1
  Si  Si124  1  0.64466729  0.34448485  0.88819905  1
  Si  Si125  1  0.20319427  0.91799583  0.11155463  1
  Si  Si126  1  0.85915952  0.41349682  0.61254029  1
  Si  Si127  1  0.13501400  0.91776445  0.88675933  1
  Si  Si128  1  0.64404756  0.65872326  0.88345596  1
  Si  Si129  1  0.97630867  0.16713759  0.38161266  1
  Si  Si130  1  0.29962826  0.83308508  0.88886806  1
  Si  Si131  1  0.02500566  0.67420682  0.61272425  1
  Si  Si132  1  0.68532785  0.66235522  0.11044895  1
  Si  Si133  1  0.64706365  0.33669208  0.38854630  1
  Si  Si134  1  0.86473320  0.92064241  0.10978181  1
  Si  Si135  1  0.14372614  0.41271119  0.38559952  1
  Si  Si136  1  0.81419166  0.91963002  0.38728049  1
  Si  Si137  1  0.97526216  0.33043322  0.38260780  1
  Si  Si138  1  0.13895794  0.91898726  0.38848562  1
  Si  Si139  1  0.35449783  0.66651508  0.11662328  1
  Si  Si140  1  0.86314058  0.41820300  0.10856071  1
  Si  Si141  1  0.52538021  0.92184428  0.61737078  1
  Si  Si142  1  0.97717757  0.83528821  0.38339308  1
  Si  Si143  1  0.47141013  0.08876049  0.89119354  1
  Si  Si144  1  0.69142286  0.17110290  0.61788288  1
  Si  Si145  1  0.18940067  0.91441087  0.61630374  1
  Si  Si146  1  0.63757253  0.66467925  0.38941501  1
  Si  Si147  1  0.19035131  0.08115624  0.61540561  1
  Si  Si148  1  0.85591726  0.58277340  0.11362160  1
  Si  Si149  1  0.36338519  0.33616952  0.11743620  1
  Si  Si150  1  0.14340271  0.57983022  0.88351480  1
  Si  Si151  1  0.30468649  0.16344699  0.38499402  1
  Si  Si152  1  0.13748323  0.08428907  0.88615149  1
  Si  Si153  1  0.02245448  0.16026907  0.61501284  1
  Si  Si154  1  0.51967137  0.58322125  0.11605113  1
  Si  Si155  1  0.19597759  0.08331078  0.11310264  1
  Si  Si156  1  0.52525952  0.57712907  0.61173439  1
  Si  Si157  1  0.47235900  0.58481439  0.88377445  1
  Si  Si158  1  0.14022252  0.08396948  0.38343597  1
  Si  Si159  1  0.69103904  0.33612613  0.61637538  1
  Si  Si160  1  0.36586883  0.67013124  0.61064590  1
  Si  Si161  1  0.86675459  0.58045895  0.61055987  1
  Si  Si162  1  0.52399147  0.41325948  0.61721014  1
  Si  Si163  1  0.35731393  0.16392167  0.61552422  1
  Si  Si164  1  0.81400171  0.08668531  0.89244250  1
  Si  Si165  1  0.19925774  0.41620145  0.11287832  1
  Si  Si166  1  0.19172065  0.58120285  0.11481480  1
  Si  Si167  1  0.97660448  0.33572339  0.88384041  1
  Si  Si168  1  0.97757936  0.82775451  0.88752997  1
  Si  Si169  1  0.85354195  0.08442150  0.61625477  1
  Si  Si170  1  0.30973737  0.33241399  0.88445238  1
  Si  Si171  1  0.97473027  0.17090827  0.88500360  1
  Si  Si172  1  0.35984627  0.83653286  0.61639413  1
  Si  Si173  1  0.63883505  0.82427577  0.88969947  1
  Si  Si174  1  0.47787878  0.41124901  0.39028111  1
  Si  Si175  1  0.81615584  0.08102080  0.38817264  1
  Si  Si176  1  0.69003668  0.16116787  0.11329984  1
  Si  Si177  1  0.51896956  0.08610788  0.11355343  1
  Si  Si178  1  0.02277189  0.66380133  0.11086112  1
  Si  Si179  1  0.14340362  0.41515293  0.88354319  1
  Si  Si180  1  0.68580697  0.83551672  0.61401075  1
  Si  Si181  1  0.96868000  0.67243548  0.38808294  1
  Si  Si182  1  0.30349253  0.66649269  0.38976820  1
  Si  Si183  1  0.98023776  0.66387992  0.88428762  1
  Si  Si184  1  0.85452427  0.08152695  0.11371891  1
  Si  Si185  1  0.36435268  0.82942333  0.11509494  1
  Si  Si186  1  0.47490247  0.92188052  0.39165488  1
  Si  Si187  1  0.81424819  0.41977161  0.88456123  1
  Si  Si188  1  0.30895555  0.32842654  0.38518691  1
  Si  Si189  1  0.01788441  0.83824867  0.61586997  1
  Si  Si190  1  0.81429041  0.58257852  0.88361616  1
  Si  Si191  1  0.30771231  0.66722190  0.88518867  1
  O  O192  1  0.27251647  0.12656509  0.08448890  1
  O  O193  1  0.26948984  0.11815283  0.58630985  1
  O  O194  1  0.27101551  0.61756539  0.08458323  1
  O  O195  1  0.28289021  0.62999960  0.57321700  1
  O  O196  1  0.60551487  0.11054193  0.08611020  1
  O  O197  1  0.60252128  0.12758036  0.58959486  1
  O  O198  1  0.60166861  0.60883117  0.08397089  1
  O  O199  1  0.60244827  0.60091848  0.57507044  1
  O  O200  1  0.93898078  0.11019912  0.08469287  1
  O  O201  1  0.93629729  0.11384619  0.58620581  1
  O  O202  1  0.93673593  0.61540286  0.08306558  1
  O  O203  1  0.95065064  0.61536612  0.58548925  1
  O  O204  1  0.12668243  0.36381594  0.07530532  1
  O  O205  1  0.09351068  0.35421510  0.57160175  1
  O  O206  1  0.12541323  0.87096926  0.07363620  1
  O  O207  1  0.10050575  0.87183851  0.58706164  1
  O  O208  1  0.44469194  0.36447838  0.08676789  1
  O  O209  1  0.44548388  0.35918042  0.58443697  1
  O  O210  1  0.44435366  0.84723089  0.08100021  1
  O  O211  1  0.43292249  0.88403450  0.58883638  1
  O  O212  1  0.78664880  0.36729758  0.07281884  1
  O  O213  1  0.76794432  0.37454575  0.58442967  1
  O  O214  1  0.79544188  0.86018451  0.08085238  1
  O  O215  1  0.76897636  0.87557816  0.59041844  1
  O  O216  1  0.28762770  0.39224640  0.08744433  1
  O  O217  1  0.27946016  0.37234703  0.56952686  1
  O  O218  1  0.28819099  0.88660733  0.08614801  1
  O  O219  1  0.26757059  0.87551871  0.58775337  1
  O  O220  1  0.60020279  0.39782092  0.07685953  1
  O  O221  1  0.60519512  0.38063813  0.58478445  1
  O  O222  1  0.61256635  0.89947225  0.06476866  1
  O  O223  1  0.60112519  0.88555108  0.58484096  1
  O  O224  1  0.94740533  0.39884777  0.07789001  1
  O  O225  1  0.93029926  0.36697511  0.58210399  1
  O  O226  1  0.94837173  0.90389937  0.07702139  1
  O  O227  1  0.93596982  0.88926734  0.58686771  1
  O  O228  1  0.10496994  0.12048757  0.08207595  1
  O  O229  1  0.10165086  0.12281847  0.58410165  1
  O  O230  1  0.10312558  0.62218975  0.08388488  1
  O  O231  1  0.10669200  0.66017194  0.57985281  1
  O  O232  1  0.44220917  0.14632054  0.08705323  1
  O  O233  1  0.43533991  0.12480405  0.58675930  1
  O  O234  1  0.43659049  0.63450670  0.08696022  1
  O  O235  1  0.44682031  0.63359739  0.58440916  1
  O  O236  1  0.77214408  0.13116593  0.08161785  1
  O  O237  1  0.76976338  0.13324156  0.58733303  1
  O  O238  1  0.76855886  0.62651536  0.08399873  1
  O  O239  1  0.78642957  0.62556612  0.57499843  1
  O  O240  1  0.06088728  0.11960287  0.41300158  1
  O  O241  1  0.05894254  0.12124309  0.91543590  1
  O  O242  1  0.03815412  0.61364314  0.42176655  1
  O  O243  1  0.06348112  0.61341979  0.91427860  1
  O  O244  1  0.38350222  0.11052614  0.41459384  1
  O  O245  1  0.38153212  0.11555509  0.91520766  1
  O  O246  1  0.36540002  0.60030412  0.41911287  1
  O  O247  1  0.39825121  0.62855611  0.91635322  1
  O  O248  1  0.74045937  0.10528269  0.42632343  1
  O  O249  1  0.73599971  0.11707515  0.92499405  1
  O  O250  1  0.70174433  0.59873673  0.41658975  1
  O  O251  1  0.73088244  0.61221921  0.91213563  1
  O  O252  1  0.22542626  0.35843185  0.41221631  1
  O  O253  1  0.23076414  0.37109216  0.91406254  1
  O  O254  1  0.21568485  0.87070449  0.42677205  1
  O  O255  1  0.21518258  0.86582336  0.91512654  1
  O  O256  1  0.56133008  0.36095075  0.41846870  1
  O  O257  1  0.56449053  0.38629866  0.91495905  1
  O  O258  1  0.55353350  0.87236662  0.42596351  1
  O  O259  1  0.55173119  0.84114505  0.91662668  1
  O  O260  1  0.89323237  0.35900160  0.41313920  1
  O  O261  1  0.89841393  0.37041082  0.91618909  1
  O  O262  1  0.89426317  0.86391589  0.41271398  1
  O  O263  1  0.89682798  0.84795628  0.91957337  1
  O  O264  1  0.06110809  0.37670315  0.41224499  1
  O  O265  1  0.06417106  0.38077324  0.91425047  1
  O  O266  1  0.05298684  0.89204487  0.41556924  1
  O  O267  1  0.05574474  0.88458190  0.91690165  1
  O  O268  1  0.39526712  0.37221722  0.41567758  1
  O  O269  1  0.39731491  0.37539702  0.91596911  1
  O  O270  1  0.39211780  0.90244090  0.42389755  1
  O  O271  1  0.37704541  0.88114880  0.92421053  1
  O  O272  1  0.72840633  0.39097946  0.41508166  1
  O  O273  1  0.73076536  0.39443508  0.91426067  1
  O  O274  1  0.73961946  0.89600907  0.42678649  1
  O  O275  1  0.71376160  0.87675556  0.92481143  1
  O  O276  1  0.22350959  0.13306725  0.41576821  1
  O  O277  1  0.22104283  0.13305621  0.91505904  1
  O  O278  1  0.21368652  0.65602942  0.41524541  1
  O  O279  1  0.23124092  0.62350100  0.91351610  1
  O  O280  1  0.54472023  0.14172913  0.42541825  1
  O  O281  1  0.54197429  0.14691173  0.92220625  1
  O  O282  1  0.54931568  0.65251216  0.41769746  1
  O  O283  1  0.56511005  0.62144081  0.91432989  1
  O  O284  1  0.89912619  0.13386696  0.41518618  1
  O  O285  1  0.89555570  0.14241319  0.91754937  1
  O  O286  1  0.88215453  0.65920756  0.41716655  1
  O  O287  1  0.89814265  0.63264507  0.91392336  1
  O  O288  1  0.19504773  0.00197670  0.08267968  1
  O  O289  1  0.18065971  -0.00241993  0.58702356  1
  O  O290  1  0.18188921  0.49925675  0.08438764  1
  O  O291  1  0.16024699  0.50239689  0.56862969  1
  O  O292  1  0.48345165  0.01143312  0.08013921  1
  O  O293  1  0.51769794  0.00446466  0.58783452  1
  O  O294  1  0.49135398  0.50194224  0.08816836  1
  O  O295  1  0.49887926  0.49414938  0.58565520  1
  O  O296  1  0.83139759  0.00187262  0.08165460  1
  O  O297  1  0.83617381  0.00337014  0.58495403  1
  O  O298  1  0.83834236  0.50191911  0.08302001  1
  O  O299  1  0.85954161  0.49578719  0.58373699  1
  O  O300  1  0.00865827  0.23626709  0.07046887  1
  O  O301  1  0.00391165  0.24084709  0.58488933  1
  O  O302  1  0.01105073  0.74044044  0.07350236  1
  O  O303  1  -0.00697284  0.75714940  0.58855900  1
  O  O304  1  0.33760762  0.25519920  0.08800670  1
  O  O305  1  0.34746267  0.24392724  0.58288075  1
  O  O306  1  0.33150646  0.74757259  0.08764219  1
  O  O307  1  0.36108249  0.75594939  0.58562334  1
  O  O308  1  0.66690796  0.24011931  0.08202005  1
  O  O309  1  0.68026688  0.25258637  0.58599501  1
  O  O310  1  0.66560853  0.73736426  0.07197071  1
  O  O311  1  0.67294964  0.75931353  0.57625627  1
  O  O312  1  0.15400213  0.00338027  0.41666366  1
  O  O313  1  0.15150115  0.00123201  0.91498801  1
  O  O314  1  0.16573636  0.48958523  0.41963627  1
  O  O315  1  0.15785593  0.49766144  0.91345746  1
  O  O316  1  0.49853736  0.00632882  0.41612008  1
  O  O317  1  0.49469873  0.00995325  0.92303667  1
  O  O318  1  0.49686239  0.48778005  0.42595821  1
  O  O319  1  0.47115864  0.50261344  0.91409255  1
  O  O320  1  0.84918393  0.00033191  0.41549003  1
  O  O321  1  0.84430865  0.00879135  0.92349241  1
  O  O322  1  0.84551226  0.49277602  0.42200325  1
  O  O323  1  0.83652618  0.50184341  0.91513821  1
  O  O324  1  0.32371722  0.24552307  0.41393803  1
  O  O325  1  0.31625007  0.24961828  0.91493625  1
  O  O326  1  0.34471637  0.74272557  0.41981554  1
  O  O327  1  0.30798093  0.74875767  0.91598744  1
  O  O328  1  0.67563283  0.25943964  0.42135442  1
  O  O329  1  0.66117671  0.26973075  0.92950153  1
  O  O330  1  0.67742429  0.74065706  0.42050821  1
  O  O331  1  0.66311944  0.73954078  0.91345593  1
  O  O332  1  0.99472143  0.24870199  0.41290439  1
  O  O333  1  0.99587936  0.25334892  0.91256540  1
  O  O334  1  1.00266248  0.75481789  0.41380384  1
  O  O335  1  1.00683646  0.74460960  0.91295690  1
  O  O336  1  0.21251286  0.08401669  0.19345527  1
  O  O337  1  0.20765349  0.08240047  0.69579245  1
  O  O338  1  0.21159114  0.58169413  0.19483954  1
  O  O339  1  0.21234996  0.58503907  0.69950012  1
  O  O340  1  0.53776814  0.08466185  0.19438446  1
  O  O341  1  0.54053972  0.08470415  0.69857171  1
  O  O342  1  0.54085059  0.58366870  0.19597931  1
  O  O343  1  0.54477209  0.58343360  0.69176001  1
  O  O344  1  0.87259759  0.08315211  0.19345222  1
  O  O345  1  0.87373773  0.08534791  0.69661083  1
  O  O346  1  0.87749653  0.58208310  0.19375094  1
  O  O347  1  0.88078378  0.58081599  0.69174457  1
  O  O348  1  0.04749110  0.33042437  0.19870621  1
  O  O349  1  0.04388506  0.33280217  0.69037169  1
  O  O350  1  0.04812276  0.83365515  0.19910074  1
  O  O351  1  0.04148040  0.83734198  0.69632058  1
  O  O352  1  0.37785018  0.33456738  0.19775378  1
  O  O353  1  0.36802086  0.33065372  0.68949529  1
  O  O354  1  0.37901212  0.83167853  0.19579549  1
  O  O355  1  0.37394512  0.83470933  0.69667335  1
  O  O356  1  0.71704996  0.34245913  0.19893232  1
  O  O357  1  0.71253304  0.33213244  0.69560528  1
  O  O358  1  0.69552125  0.83259297  0.19382050  1
  O  O359  1  0.69629965  0.83273040  0.69362541  1
  O  O360  1  0.21192643  0.41501159  0.19376997  1
  O  O361  1  0.21124395  0.41410969  0.69805406  1
  O  O362  1  0.21283315  0.91877978  0.19209411  1
  O  O363  1  0.20747132  0.91653357  0.69686225  1
  O  O364  1  0.54162555  0.41779979  0.19517488  1
  O  O365  1  0.54390347  0.41419714  0.69529783  1
  O  O366  1  0.54132767  0.91976354  0.20199002  1
  O  O367  1  0.54288939  0.91931335  0.69759616  1
  O  O368  1  0.87875454  0.41623357  0.19020283  1
  O  O369  1  0.87862715  0.41425643  0.69287566  1
  O  O370  1  0.88335472  0.92500331  0.18996293  1
  O  O371  1  0.87953709  0.92625035  0.69622349  1
  O  O372  1  0.04637554  0.16746220  0.18945170  1
  O  O373  1  0.04476474  0.15951273  0.69446159  1
  O  O374  1  0.04239954  0.66545949  0.19140811  1
  O  O375  1  0.04463789  0.66939041  0.69414052  1
  O  O376  1  0.37387367  0.16779210  0.19610507  1
  O  O377  1  0.37356632  0.16445104  0.69575289  1
  O  O378  1  0.37230349  0.66529047  0.19655239  1
  O  O379  1  0.37709096  0.66866960  0.69187187  1
  O  O380  1  0.71460039  0.15715345  0.19287832  1
  O  O381  1  0.71141680  0.16889096  0.69774817  1
  O  O382  1  0.70343958  0.66470992  0.19086694  1
  O  O383  1  0.71097505  0.66422311  0.69878107  1
  O  O384  1  0.12917937  0.08312797  0.30419829  1
  O  O385  1  0.12142771  0.08354974  0.80576653  1
  O  O386  1  0.11919293  0.58142255  0.29700943  1
  O  O387  1  0.12370790  0.58225102  0.80356988  1
  O  O388  1  0.45398815  0.08691435  0.30746050  1
  O  O389  1  0.45362234  0.08601777  0.80903768  1
  O  O390  1  0.45288741  0.58057492  0.30032711  1
  O  O391  1  0.45157815  0.58875383  0.80457640  1
  O  O392  1  0.79387322  0.08391261  0.30769589  1
  O  O393  1  0.79312086  0.08773088  0.81034303  1
  O  O394  1  0.78898048  0.58125507  0.29702984  1
  O  O395  1  0.79779810  0.58059157  0.80385595  1
  O  O396  1  0.29069041  0.33080812  0.30449410  1
  O  O397  1  0.28997821  0.33143982  0.80460197  1
  O  O398  1  0.28685886  0.83429389  0.29862772  1
  O  O399  1  0.28606795  0.83361019  0.80757078  1
  O  O400  1  0.62126349  0.34166575  0.30885761  1
  O  O401  1  0.62652607  0.33456938  0.80955570  1
  O  O402  1  0.62124601  0.83262743  0.30242656  1
  O  O403  1  0.62374633  0.82948915  0.80791842  1
  O  O404  1  0.95832558  0.33223745  0.30238717  1
  O  O405  1  0.95734472  0.33725858  0.80431185  1
  O  O406  1  0.96548188  0.83453491  0.30425066  1
  O  O407  1  0.96813673  0.83067797  0.80763490  1
  O  O408  1  0.12587782  0.41417357  0.30457286  1
  O  O409  1  0.12385056  0.41552253  0.80361900  1
  O  O410  1  0.12750819  0.91853552  0.30799753  1
  O  O411  1  0.12096928  0.91872047  0.80605793  1
  O  O412  1  0.45691596  0.41437207  0.30885497  1
  O  O413  1  0.44971445  0.41731914  0.80443530  1
  O  O414  1  0.45549879  0.91875223  0.31009989  1
  O  O415  1  0.45309545  0.91729518  0.80053172  1
  O  O416  1  0.79582502  0.41751794  0.30657846  1
  O  O417  1  0.80089184  0.41817241  0.80530451  1
  O  O418  1  0.78809785  0.92329808  0.30792666  1
  O  O419  1  0.78305051  0.92416909  0.80354932  1
  O  O420  1  0.28788365  0.16554687  0.30454784  1
  O  O421  1  0.28460472  0.16662897  0.80493134  1
  O  O422  1  0.28855977  0.66605335  0.30704228  1
  O  O423  1  0.29043726  0.66838738  0.80504070  1
  O  O424  1  0.61842206  0.15841100  0.30313806  1
  O  O425  1  0.62270051  0.17029983  0.80246012  1
  O  O426  1  0.62085870  0.66511707  0.30695808  1
  O  O427  1  0.62164599  0.66121890  0.80359540  1
  O  O428  1  0.95902969  0.16761876  0.30223190  1
  O  O429  1  0.95629254  0.16592104  0.80538632  1
  O  O430  1  0.95662470  0.66806128  0.30638350  1
  O  O431  1  0.96102848  0.66282500  0.80401617  1
  F  F432  1  0.05138348  -0.00214523  0.19988541  1
  F  F433  1  0.04416153  0.00047643  0.70306483  1
  F  F434  1  0.04564037  0.49714179  0.19795772  1
  F  F435  1  0.04719028  0.49836353  0.69996790  1
  F  F436  1  0.37856038  0.00104860  0.20525695  1
  F  F437  1  0.37407109  0.00285177  0.70298445  1
  F  F438  1  0.37632792  0.49678666  0.20250090  1
  F  F439  1  0.37028030  0.50079410  0.69593222  1
  F  F440  1  0.71218611  -0.00027001  0.20438249  1
  F  F441  1  0.70847961  0.00667099  0.70359893  1
  F  F442  1  0.70921755  0.49956353  0.20033839  1
  F  F443  1  0.71831064  0.50247304  0.69680434  1
  F  F444  1  0.21383310  0.24863187  0.20132849  1
  F  F445  1  0.21121432  0.24653804  0.69964837  1
  F  F446  1  0.21094423  0.74629626  0.20055568  1
  F  F447  1  0.21219842  0.75364049  0.70250881  1
  F  F448  1  0.53012465  0.25203144  0.19976348  1
  F  F449  1  0.54463464  0.24660645  0.69950383  1
  F  F450  1  0.53943030  0.74539995  0.20333760  1
  F  F451  1  0.54291776  0.75030220  0.70420966  1
  F  F452  1  0.88034659  0.24895228  0.19765345  1
  F  F453  1  0.87437781  0.24996724  0.70209868  1
  F  F454  1  0.88339777  0.73751611  0.19626219  1
  F  F455  1  0.88361317  0.74119338  0.69930927  1
  F  F456  1  0.28693793  0.00111233  0.29761500  1
  F  F457  1  0.28409788  0.00070001  0.79922045  1
  F  F458  1  0.28603605  0.49663373  0.29776280  1
  F  F459  1  0.28955922  0.50008036  0.79979998  1
  F  F460  1  0.62207920  0.00194938  0.30055035  1
  F  F461  1  0.61937284  0.00197311  0.80039702  1
  F  F462  1  0.62099011  0.49967704  0.29667480  1
  F  F463  1  0.62722388  0.50346820  0.80058744  1
  F  F464  1  0.95640575  -0.00205157  0.29810572  1
  F  F465  1  0.95658023  0.00276241  0.80057880  1
  F  F466  1  0.95604101  0.49705807  0.29372063  1
  F  F467  1  0.95853610  0.49899123  0.79429767  1
  F  F468  1  0.12419338  0.24629956  0.29800446  1
  F  F469  1  0.12489487  0.25101468  0.79761299  1
  F  F470  1  0.12163218  0.74836511  0.29667921  1
  F  F471  1  0.12273396  0.74876580  0.79719705  1
  F  F472  1  0.45233284  0.25066116  0.30094252  1
  F  F473  1  0.44746342  0.24654267  0.80041314  1
  F  F474  1  0.45268293  0.75057308  0.29887181  1
  F  F475  1  0.45259573  0.74835790  0.79747403  1
  F  F476  1  0.80544953  0.24851948  0.30068538  1
  F  F477  1  0.78885264  0.25290957  0.80090942  1
  F  F478  1  0.78204008  0.74077567  0.29697954  1
  F  F479  1  0.78585131  0.73737655  0.80319131  1
