# generated using pymatgen
data_K24Na3Li5Mg64Fe17Si79(O5F)48
_symmetry_space_group_name_H-M   'P 1'
_cell_length_a   16.09965412
_cell_length_b   18.58804836
_cell_length_c   20.55151267
_cell_angle_alpha   89.99270433
_cell_angle_beta   100.00652399
_cell_angle_gamma   90.01085457
_symmetry_Int_Tables_number   1
_chemical_formula_structural   K24Na3Li5Mg64Fe17Si79(O5F)48
_chemical_formula_sum   'K24 Na3 Li5 Mg64 Fe17 Si79 O240 F48'
_cell_volume   6056.71110769
_cell_formula_units_Z   1
loop_
 _symmetry_equiv_pos_site_id
 _symmetry_equiv_pos_as_xyz
  1  'x, y, z'
loop_
 _atom_site_type_symbol
 _atom_site_label
 _atom_site_symmetry_multiplicity
 _atom_site_fract_x
 _atom_site_fract_y
 _atom_site_fract_z
 _atom_site_occupancy
  K  K0  1  -0.01147829  -0.00179129  -0.00286302  1
  K  K1  1  -0.00097678  0.00233081  0.49643310  1
  K  K2  1  -0.00708111  0.49650554  -0.00545947  1
  K  K3  1  -0.00470754  0.50462743  0.50200840  1
  K  K4  1  0.34429477  0.00714187  0.00429222  1
  K  K5  1  0.33798591  -0.00270278  0.49709429  1
  K  K6  1  0.33838537  0.50061196  -0.00029082  1
  K  K7  1  0.34257102  0.49495002  0.50682702  1
  K  K8  1  0.67026732  0.00942504  -0.00284770  1
  K  K9  1  0.66093620  0.00515764  0.49429119  1
  K  K10  1  0.67216504  0.49630662  0.00416497  1
  K  K11  1  0.66039208  0.50471588  0.49446814  1
  K  K12  1  0.17125520  0.24890989  0.00446717  1
  K  K13  1  0.17555031  0.25025719  0.49870238  1
  K  K14  1  0.16882144  0.73861460  -0.00220901  1
  K  K15  1  0.17578337  0.75447780  0.50595540  1
  K  K16  1  0.51515670  0.24287563  0.00632933  1
  K  K17  1  0.48635943  0.24741044  0.49363039  1
  K  K18  1  0.49795540  0.74986638  0.00244335  1
  K  K19  1  0.50081703  0.75045925  0.49833418  1
  K  K20  1  0.82251516  0.25102853  0.00377313  1
  K  K21  1  0.82560904  0.24407944  0.49176539  1
  K  K22  1  0.82684619  0.75702759  -0.00945854  1
  K  K23  1  0.82409437  0.74603250  0.50079389  1
  Na  Na24  1  0.49776823  0.49868212  0.74276446  1
  Na  Na25  1  0.83238014  0.16910882  0.24926347  1
  Na  Na26  1  0.66585612  0.41877938  0.24267405  1
  Li  Li27  1  0.33030998  0.24699388  0.24848576  1
  Li  Li28  1  0.83419391  -0.00244242  0.75666117  1
  Li  Li29  1  0.83735773  0.66918384  0.75910633  1
  Li  Li30  1  0.49956592  0.66566128  0.24875423  1
  Li  Li31  1  0.17326744  0.17032387  0.25206732  1
  Mg  Mg32  1  0.50015710  0.50290135  0.24757551  1
  Mg  Mg33  1  0.66622714  0.25205801  0.75153067  1
  Mg  Mg34  1  0.66207398  0.74858716  0.25079618  1
  Mg  Mg35  1  0.33349315  0.74907694  0.74233499  1
  Mg  Mg36  1  0.66892892  0.25098540  0.25028343  1
  Mg  Mg37  1  0.16697354  0.00390138  0.25536986  1
  Mg  Mg38  1  0.83319528  0.50287189  0.75582537  1
  Mg  Mg39  1  0.00490053  0.24884421  0.25394038  1
  Mg  Mg40  1  0.16486494  0.50049255  0.74688611  1
  Mg  Mg41  1  0.16781809  0.49881017  0.24850767  1
  Mg  Mg42  1  0.16682507  -0.00174864  0.74547497  1
  Mg  Mg43  1  0.83384300  0.50046090  0.24886935  1
  Mg  Mg44  1  0.33248071  0.24991625  0.74590544  1
  Mg  Mg45  1  0.83171151  0.00191761  0.25071582  1
  Mg  Mg46  1  -0.00331441  0.74967816  0.75139080  1
  Mg  Mg47  1  0.49799583  0.00269597  0.25115946  1
  Mg  Mg48  1  0.67138798  0.74964289  0.75318627  1
  Mg  Mg49  1  0.00120987  0.75143438  0.25270159  1
  Mg  Mg50  1  0.33633638  0.74842380  0.24973831  1
  Mg  Mg51  1  0.49994809  -0.00089429  0.74997092  1
  Mg  Mg52  1  -0.00185664  0.25029793  0.75409756  1
  Mg  Mg53  1  0.49972068  0.83321888  0.74796749  1
  Mg  Mg54  1  0.00186431  0.08558753  0.25482793  1
  Mg  Mg55  1  0.33456365  0.41443171  0.24854067  1
  Mg  Mg56  1  0.66525717  0.91633487  0.25136202  1
  Mg  Mg57  1  0.17079562  0.32910687  0.25025211  1
  Mg  Mg58  1  0.33254787  0.08980074  0.25118619  1
  Mg  Mg59  1  0.66437764  0.08644371  0.25254830  1
  Mg  Mg60  1  0.83630341  0.83526325  0.75685436  1
  Mg  Mg61  1  0.00146320  0.58501504  0.24998963  1
  Mg  Mg62  1  0.83264115  0.33296991  0.24839743  1
  Mg  Mg63  1  0.83424396  0.16435313  0.75464008  1
  Mg  Mg64  1  -0.00135970  0.41535370  0.75423796  1
  Mg  Mg65  1  -0.00275465  0.58553093  0.75149633  1
  Mg  Mg66  1  0.32958213  0.41488035  0.74170931  1
  Mg  Mg67  1  0.83537225  0.33531954  0.75426785  1
  Mg  Mg68  1  0.16879688  0.66604889  0.24803626  1
  Mg  Mg69  1  0.83281645  0.83359300  0.25349052  1
  Mg  Mg70  1  0.00111118  0.41534200  0.24969027  1
  Mg  Mg71  1  0.67066475  0.08260096  0.75435764  1
  Mg  Mg72  1  0.66816547  0.41835554  0.75019740  1
  Mg  Mg73  1  0.66252874  0.58496322  0.24867463  1
  Mg  Mg74  1  0.49968624  0.66434773  0.74514486  1
  Mg  Mg75  1  0.33203964  0.91386922  0.74511460  1
  Mg  Mg76  1  0.00238856  0.91743089  0.25451084  1
  Mg  Mg77  1  0.16521975  0.16530963  0.74871309  1
  Mg  Mg78  1  0.49787786  0.16762332  0.25109348  1
  Mg  Mg79  1  0.32977802  0.58219957  0.74193143  1
  Mg  Mg80  1  -0.00255697  0.08162357  0.75249080  1
  Mg  Mg81  1  -0.00113620  0.91654944  0.75328354  1
  Mg  Mg82  1  0.16406999  0.33403262  0.74761028  1
  Mg  Mg83  1  0.16861822  0.83632018  0.25360252  1
  Mg  Mg84  1  0.49881081  0.83179498  0.25057214  1
  Mg  Mg85  1  0.33360546  0.91733109  0.25246995  1
  Mg  Mg86  1  0.83210869  0.66564938  0.25243914  1
  Mg  Mg87  1  0.33626526  0.58451154  0.24876938  1
  Mg  Mg88  1  0.67108181  0.58473252  0.75195557  1
  Mg  Mg89  1  0.16552883  0.83395214  0.74496673  1
  Mg  Mg90  1  0.49999160  0.16460171  0.74998097  1
  Mg  Mg91  1  0.49859285  0.33339011  0.24663687  1
  Mg  Mg92  1  0.33389564  0.08318568  0.74718256  1
  Mg  Mg93  1  0.16395603  0.66504304  0.74674968  1
  Mg  Mg94  1  0.67130093  0.91724400  0.75225738  1
  Mg  Mg95  1  0.49703727  0.33486123  0.74526571  1
  Fe  Fe96  1  0.46973463  0.08656324  0.39220588  1
  Fe  Fe97  1  0.47485124  0.08162833  0.88859876  1
  Fe  Fe98  1  0.80999495  0.08293683  0.39231665  1
  Fe  Fe99  1  0.18403842  0.58292250  0.60596511  1
  Fe  Fe100  1  0.18605181  0.91737341  0.60518523  1
  Fe  Fe101  1  0.80551184  0.41840288  0.89281991  1
  Fe  Fe102  1  0.69434011  0.16328086  0.10730554  1
  Fe  Fe103  1  0.52201126  0.08047067  0.11030748  1
  Fe  Fe104  1  0.36374891  0.83344268  0.60456337  1
  Fe  Fe105  1  0.97892521  0.33027144  0.89557950  1
  Fe  Fe106  1  0.97930126  0.66827193  0.89209831  1
  Fe  Fe107  1  0.14188304  0.91693282  0.39412146  1
  Fe  Fe108  1  0.80648456  0.91711736  0.89365723  1
  Fe  Fe109  1  0.69158968  0.33586479  0.10498743  1
  Fe  Fe110  1  0.35358202  0.66578914  0.10911140  1
  Fe  Fe111  1  0.63963689  0.66400569  0.38909211  1
  Fe  Fe112  1  0.35925084  0.33366724  0.60394851  1
  Si  Si113  1  0.64369475  0.33580412  0.38317888  1
  Si  Si114  1  0.47295667  0.91136033  0.88565212  1
  Si  Si115  1  0.14644888  0.91856202  0.88432490  1
  Si  Si116  1  0.35600526  0.17090774  0.11235234  1
  Si  Si117  1  0.46780419  0.58188722  0.88015485  1
  Si  Si118  1  0.14431110  0.42009029  0.38526355  1
  Si  Si119  1  0.14591764  0.58082556  0.88594927  1
  Si  Si120  1  0.02003897  0.33103408  0.61504291  1
  Si  Si121  1  0.53582569  0.58495211  0.61266469  1
  Si  Si122  1  0.01991199  0.16847047  0.61656537  1
  Si  Si123  1  0.52155205  0.90905724  0.11459237  1
  Si  Si124  1  0.02596523  0.32947329  0.11703683  1
  Si  Si125  1  0.64156319  0.83407379  0.38758541  1
  Si  Si126  1  0.01905984  0.83078922  0.61420158  1
  Si  Si127  1  0.53808056  0.91675056  0.61338917  1
  Si  Si128  1  0.30828082  0.33663939  0.38402063  1
  Si  Si129  1  0.98172912  0.16176590  0.88956274  1
  Si  Si130  1  0.69686274  0.66891349  0.61754751  1
  Si  Si131  1  0.81489043  0.41497940  0.38398446  1
  Si  Si132  1  0.18606807  0.57651655  0.11121054  1
  Si  Si133  1  0.52973823  0.08247302  0.61602189  1
  Si  Si134  1  0.19223654  0.92400407  0.11644051  1
  Si  Si135  1  0.31031664  0.82656020  0.38640616  1
  Si  Si136  1  0.63536842  0.82734693  0.88771690  1
  Si  Si137  1  0.35115326  0.83451293  0.11367778  1
  Si  Si138  1  0.69412993  0.16713286  0.61677525  1
  Si  Si139  1  0.30201364  0.17108165  0.38711197  1
  Si  Si140  1  0.03025541  0.83423945  0.11679772  1
  Si  Si141  1  0.46897991  0.57843634  0.38699229  1
  Si  Si142  1  0.30768408  0.66728977  0.88130392  1
  Si  Si143  1  0.30605513  0.83118511  0.88265118  1
  Si  Si144  1  0.18710526  0.41254419  0.11445277  1
  Si  Si145  1  0.47676600  0.41502122  0.38450709  1
  Si  Si146  1  0.53573508  0.41606008  0.60887911  1
  Si  Si147  1  0.97555859  0.66486620  0.38642094  1
  Si  Si148  1  0.35728335  0.16078741  0.60980720  1
  Si  Si149  1  0.46329563  0.41469218  0.88024032  1
  Si  Si150  1  0.64005704  0.17240282  0.39279612  1
  Si  Si151  1  0.47415797  0.91393700  0.38744935  1
  Si  Si152  1  0.81181404  0.57922659  0.38858345  1
  Si  Si153  1  0.98481616  0.83755311  0.89316525  1
  Si  Si154  1  0.98071718  0.33556857  0.38706081  1
  Si  Si155  1  0.69828957  0.33191887  0.61402735  1
  Si  Si156  1  0.85786174  0.58062089  0.61709145  1
  Si  Si157  1  0.02744983  0.16513805  0.11906341  1
  Si  Si158  1  0.51543636  0.42073274  0.10850820  1
  Si  Si159  1  0.14147632  0.08682451  0.39077723  1
  Si  Si160  1  0.86102165  0.91115707  0.11708015  1
  Si  Si161  1  0.18108168  0.41266278  0.60758009  1
  Si  Si162  1  0.85877879  0.08239996  0.61871309  1
  Si  Si163  1  0.01688504  0.66907914  0.61183743  1
  Si  Si164  1  0.64329654  0.17417570  0.88638567  1
  Si  Si165  1  0.96875653  0.83000141  0.38918913  1
  Si  Si166  1  0.36182710  0.65911910  0.60505199  1
  Si  Si167  1  0.80691972  0.58843379  0.89137880  1
  Si  Si168  1  0.30243020  0.16675939  0.88417807  1
  Si  Si169  1  0.86028095  0.41772498  0.61530286  1
  Si  Si170  1  0.70203735  0.83360509  0.61757752  1
  Si  Si171  1  0.98051253  0.17113108  0.39092053  1
  Si  Si172  1  0.14194124  0.08067767  0.88288550  1
  Si  Si173  1  0.69482208  0.66450789  0.11473113  1
  Si  Si174  1  0.80712358  0.91382587  0.38800398  1
  Si  Si175  1  0.86337544  0.91807313  0.61902015  1
  Si  Si176  1  0.14163306  0.58499662  0.38446123  1
  Si  Si177  1  0.02857339  0.66983278  0.11539930  1
  Si  Si178  1  0.35455440  0.33690369  0.11271295  1
  Si  Si179  1  0.19287175  0.08766061  0.11779731  1
  Si  Si180  1  0.63114776  0.33993949  0.88376112  1
  Si  Si181  1  0.52542205  0.58574983  0.11002319  1
  Si  Si182  1  0.63546262  0.66154390  0.88500559  1
  Si  Si183  1  0.69222128  0.83048736  0.11652196  1
  Si  Si184  1  0.86386473  0.58863966  0.11567148  1
  Si  Si185  1  0.86914831  0.07579051  0.11418912  1
  Si  Si186  1  0.18423771  0.08786970  0.61182448  1
  Si  Si187  1  0.30300868  0.33174803  0.88216400  1
  Si  Si188  1  0.80918890  0.08997851  0.89044082  1
  Si  Si189  1  0.14480384  0.41890902  0.88585291  1
  Si  Si190  1  0.30700828  0.66244509  0.38426388  1
  Si  Si191  1  0.86665943  0.42241482  0.11279193  1
  O  O192  1  0.26813215  0.12428484  0.08427058  1
  O  O193  1  0.26869701  0.11597265  0.58337769  1
  O  O194  1  0.26088671  0.60381782  0.07457298  1
  O  O195  1  0.28323252  0.60707279  0.57427295  1
  O  O196  1  0.60671616  0.10597826  0.06614973  1
  O  O197  1  0.60436700  0.12706177  0.58690767  1
  O  O198  1  0.61211852  0.61650558  0.08386041  1
  O  O199  1  0.61099265  0.62641558  0.58171166  1
  O  O200  1  0.95243310  0.10934116  0.08657430  1
  O  O201  1  0.93919323  0.11602136  0.58745391  1
  O  O202  1  0.93549789  0.63630927  0.08683292  1
  O  O203  1  0.93604593  0.61455789  0.58484892  1
  O  O204  1  0.10822404  0.35850576  0.08645308  1
  O  O205  1  0.10240794  0.35389854  0.58364866  1
  O  O206  1  0.10458351  0.87834713  0.08770730  1
  O  O207  1  0.09893753  0.84878380  0.57953712  1
  O  O208  1  0.42704012  0.37619146  0.07747470  1
  O  O209  1  0.44963662  0.37893375  0.57103648  1
  O  O210  1  0.43893771  0.85678687  0.08726426  1
  O  O211  1  0.46060978  0.87036401  0.57517797  1
  O  O212  1  0.78067267  0.38810770  0.07509735  1
  O  O213  1  0.77937832  0.36618240  0.58530648  1
  O  O214  1  0.77164772  0.86899318  0.08823285  1
  O  O215  1  0.78241904  0.86689864  0.58809068  1
  O  O216  1  0.26760640  0.38330962  0.08307679  1
  O  O217  1  0.25880998  0.38450208  0.57324521  1
  O  O218  1  0.27393186  0.89312834  0.08671121  1
  O  O219  1  0.27698632  0.89319242  0.56655660  1
  O  O220  1  0.59054457  0.38809362  0.07510799  1
  O  O221  1  0.61650882  0.37935801  0.57988099  1
  O  O222  1  0.60302679  0.87062323  0.08703527  1
  O  O223  1  0.62249033  0.88512003  0.58689518  1
  O  O224  1  0.94805477  0.38333145  0.08763643  1
  O  O225  1  0.94144020  0.38530755  0.58528138  1
  O  O226  1  0.93694175  0.86826497  0.08777644  1
  O  O227  1  0.94274866  0.88852697  0.58599763  1
  O  O228  1  0.10991951  0.13711807  0.08863612  1
  O  O229  1  0.10596619  0.14673534  0.58826284  1
  O  O230  1  0.09963361  0.62442019  0.08507996  1
  O  O231  1  0.09328946  0.64699531  0.57389030  1
  O  O232  1  0.42767142  0.13887210  0.07452873  1
  O  O233  1  0.43679473  0.11655097  0.58623525  1
  O  O234  1  0.45038541  0.63826483  0.07479553  1
  O  O235  1  0.44626275  0.62260663  0.58031117  1
  O  O236  1  0.78942322  0.12070668  0.07837762  1
  O  O237  1  0.77224632  0.12775805  0.58814011  1
  O  O238  1  0.77377641  0.62733880  0.08541453  1
  O  O239  1  0.77439160  0.62966952  0.58790083  1
  O  O240  1  0.06171173  0.12041088  0.42258207  1
  O  O241  1  0.05610295  0.09954512  0.91224627  1
  O  O242  1  0.06070591  0.61739512  0.41354356  1
  O  O243  1  0.07045505  0.60326561  0.92426618  1
  O  O244  1  0.37949986  0.12508176  0.42856103  1
  O  O245  1  0.37723647  0.11510853  0.91883327  1
  O  O246  1  0.38188120  0.60591752  0.41346590  1
  O  O247  1  0.39070590  0.61867013  0.91259053  1
  O  O248  1  0.72022604  0.12401453  0.42790451  1
  O  O249  1  0.73313371  0.13484345  0.91713541  1
  O  O250  1  0.73743219  0.60871748  0.42459354  1
  O  O251  1  0.71742619  0.61394179  0.91673959  1
  O  O252  1  0.23218179  0.37782340  0.41545174  1
  O  O253  1  0.22273491  0.36238910  0.91297098  1
  O  O254  1  0.23143772  0.85138114  0.41966026  1
  O  O255  1  0.22581958  0.86460238  0.91297199  1
  O  O256  1  0.56652883  0.37486654  0.41488449  1
  O  O257  1  0.54301127  0.36287727  0.91010683  1
  O  O258  1  0.55783559  0.86415789  0.41490960  1
  O  O259  1  0.54701905  0.85182918  0.91217568  1
  O  O260  1  0.89917243  0.36733745  0.41744962  1
  O  O261  1  0.88646768  0.35322698  0.93270472  1
  O  O262  1  0.87834188  0.84997045  0.41244016  1
  O  O263  1  0.90774749  0.86722972  0.92768879  1
  O  O264  1  0.06436504  0.38623336  0.41575830  1
  O  O265  1  0.06718048  0.39862952  0.92228478  1
  O  O266  1  0.04308811  0.88237421  0.42359917  1
  O  O267  1  0.06502587  0.89535992  0.91679160  1
  O  O268  1  0.39919916  0.37556712  0.41414368  1
  O  O269  1  0.38302728  0.38379509  0.91217857  1
  O  O270  1  0.39508796  0.87377535  0.41465871  1
  O  O271  1  0.38849035  0.87983367  0.91272769  1
  O  O272  1  0.73089224  0.38335111  0.41040866  1
  O  O273  1  0.70083276  0.39628204  0.91760448  1
  O  O274  1  0.71987716  0.89008352  0.41456766  1
  O  O275  1  0.71414302  0.87322251  0.92614134  1
  O  O276  1  0.21636761  0.14609167  0.41513354  1
  O  O277  1  0.21480566  0.14039767  0.91038085  1
  O  O278  1  0.22268412  0.63577826  0.41351311  1
  O  O279  1  0.22772963  0.63470603  0.91135094  1
  O  O280  1  0.55961820  0.14808203  0.42605240  1
  O  O281  1  0.56748006  0.14096933  0.91873607  1
  O  O282  1  0.54651698  0.62699343  0.42375573  1
  O  O283  1  0.55425785  0.62550366  0.91240579  1
  O  O284  1  0.90162053  0.14532682  0.42415738  1
  O  O285  1  0.89761708  0.13478834  0.91796874  1
  O  O286  1  0.89918800  0.62608028  0.41645770  1
  O  O287  1  0.87789920  0.64742158  0.92260394  1
  O  O288  1  0.17509566  0.00557016  0.08609392  1
  O  O289  1  0.15051182  0.01243639  0.57972713  1
  O  O290  1  0.16053535  0.49343516  0.08585786  1
  O  O291  1  0.14667574  0.48988941  0.57714783  1
  O  O292  1  0.49884738  -0.01512258  0.07892760  1
  O  O293  1  0.53085411  0.00097021  0.58642803  1
  O  O294  1  0.50222618  0.50447733  0.07905321  1
  O  O295  1  0.53518384  0.50158690  0.58494327  1
  O  O296  1  0.85885840  -0.00861759  0.08487760  1
  O  O297  1  0.84346134  0.00033313  0.58981393  1
  O  O298  1  0.86906138  0.50743735  0.08710283  1
  O  O299  1  0.84146883  0.49891932  0.58391339  1
  O  O300  1  0.00584835  0.24734324  0.08910980  1
  O  O301  1  -0.00813460  0.24949982  0.58816489  1
  O  O302  1  0.03097139  0.75215329  0.08725811  1
  O  O303  1  -0.01817290  0.75046128  0.58888099  1
  O  O304  1  0.33638453  0.25475912  0.08413356  1
  O  O305  1  0.34935403  0.23761086  0.57230423  1
  O  O306  1  0.31944150  0.75932395  0.07838815  1
  O  O307  1  0.34854906  0.73811265  0.57151451  1
  O  O308  1  0.68059836  0.24935271  0.06069797  1
  O  O309  1  0.68755471  0.24894976  0.58553171  1
  O  O310  1  0.68468489  0.74776868  0.08575412  1
  O  O311  1  0.68847731  0.75148702  0.58697238  1
  O  O312  1  0.16786885  0.01019076  0.42701704  1
  O  O313  1  0.17447005  0.00057413  0.91114679  1
  O  O314  1  0.15759056  0.50313883  0.41367285  1
  O  O315  1  0.18116529  0.49957270  0.90992859  1
  O  O316  1  0.48949964  -0.00911938  0.42405489  1
  O  O317  1  0.49794022  -0.01257580  0.92118795  1
  O  O318  1  0.48395735  0.49565894  0.41750975  1
  O  O319  1  0.47821440  0.49832179  0.90776243  1
  O  O320  1  0.83879304  -0.01193261  0.42479066  1
  O  O321  1  0.81807485  0.01248812  0.92674779  1
  O  O322  1  0.83377828  0.49618159  0.41597909  1
  O  O323  1  0.83312639  0.51150754  0.92680300  1
  O  O324  1  0.31482542  0.25578158  0.41471149  1
  O  O325  1  0.32010730  0.25001345  0.91156935  1
  O  O326  1  0.33382862  0.74291220  0.41188254  1
  O  O327  1  0.32328156  0.74907049  0.91253708  1
  O  O328  1  0.66158758  0.25725642  0.41896614  1
  O  O329  1  0.65598596  0.25829839  0.91048496  1
  O  O330  1  0.66568458  0.75753939  0.42336825  1
  O  O331  1  0.64802007  0.74325572  0.91543157  1
  O  O332  1  1.00306722  0.25538336  0.41801686  1
  O  O333  1  1.01795408  0.23609823  0.92349218  1
  O  O334  1  0.98960491  0.74625277  0.41600542  1
  O  O335  1  1.01756873  0.76028274  0.92440808  1
  O  O336  1  0.21203249  0.08166777  0.19709804  1
  O  O337  1  0.20732697  0.08563010  0.69303401  1
  O  O338  1  0.20656975  0.58135771  0.19227747  1
  O  O339  1  0.20671317  0.58349047  0.69791295  1
  O  O340  1  0.54392590  0.08282984  0.20211285  1
  O  O341  1  0.54733557  0.08372027  0.69621201  1
  O  O342  1  0.54333548  0.58162763  0.18987899  1
  O  O343  1  0.55239206  0.59048538  0.69182615  1
  O  O344  1  0.88567318  0.07331702  0.19394861  1
  O  O345  1  0.87846194  0.08691946  0.69811246  1
  O  O346  1  0.88047961  0.58800135  0.19626732  1
  O  O347  1  0.87785651  0.57713862  0.69614099  1
  O  O348  1  0.04661404  0.33425662  0.19715389  1
  O  O349  1  0.04059803  0.33252875  0.69535683  1
  O  O350  1  0.04480310  0.83263634  0.19708705  1
  O  O351  1  0.04062115  0.83368763  0.69533936  1
  O  O352  1  0.37607102  0.33898237  0.19202272  1
  O  O353  1  0.37586268  0.33122786  0.69533181  1
  O  O354  1  0.37131709  0.83459804  0.19464029  1
  O  O355  1  0.37966292  0.83262466  0.69742132  1
  O  O356  1  0.71760029  0.32589314  0.19490542  1
  O  O357  1  0.71236532  0.33180153  0.69415404  1
  O  O358  1  0.71115909  0.83103561  0.19690853  1
  O  O359  1  0.71309132  0.83258178  0.69732249  1
  O  O360  1  0.20817017  0.41579371  0.19468403  1
  O  O361  1  0.20287370  0.41347175  0.68940296  1
  O  O362  1  0.21010588  0.91894444  0.19655702  1
  O  O363  1  0.21050011  0.91616553  0.69790506  1
  O  O364  1  0.52848227  0.41955228  0.18845881  1
  O  O365  1  0.55080163  0.40806979  0.68836307  1
  O  O366  1  0.54175245  0.91324234  0.19548591  1
  O  O367  1  0.54798757  0.91610813  0.69442113  1
  O  O368  1  0.88125993  0.42111164  0.19375291  1
  O  O369  1  0.87811732  0.41710146  0.69507985  1
  O  O370  1  0.87875398  0.91180359  0.19747579  1
  O  O371  1  0.88142764  0.91536036  0.69838111  1
  O  O372  1  0.04183282  0.16631078  0.19848591  1
  O  O373  1  0.03977065  0.16684752  0.69705905  1
  O  O374  1  0.04503201  0.66804709  0.19608884  1
  O  O375  1  0.04126015  0.66576132  0.69239242  1
  O  O376  1  0.37611958  0.16669396  0.19195160  1
  O  O377  1  0.37398091  0.16579387  0.69071237  1
  O  O378  1  0.37295832  0.66623641  0.19949927  1
  O  O379  1  0.37722741  0.66346743  0.68692212  1
  O  O380  1  0.69812367  0.16632215  0.19716736  1
  O  O381  1  0.71089615  0.16734342  0.69696712  1
  O  O382  1  0.71341925  0.66749807  0.19478244  1
  O  O383  1  0.70989297  0.66838346  0.69688730  1
  O  O384  1  0.12021708  0.07946236  0.31092771  1
  O  O385  1  0.12380190  0.08186314  0.80232263  1
  O  O386  1  0.12386612  0.58427188  0.30381545  1
  O  O387  1  0.12293748  0.58313034  0.80518782  1
  O  O388  1  0.45194581  0.08433979  0.30117652  1
  O  O389  1  0.45386805  0.08249902  0.79663556  1
  O  O390  1  0.45294331  0.57740646  0.30715324  1
  O  O391  1  0.44836850  0.58855932  0.80093984  1
  O  O392  1  0.78293134  0.07492450  0.30270040  1
  O  O393  1  0.78966800  0.08808182  0.80997758  1
  O  O394  1  0.79409764  0.58306245  0.30780154  1
  O  O395  1  0.78939472  0.58355871  0.81058958  1
  O  O396  1  0.28819285  0.34073316  0.30496619  1
  O  O397  1  0.28518193  0.33192376  0.80166507  1
  O  O398  1  0.29054500  0.83091613  0.30533638  1
  O  O399  1  0.28831989  0.83042664  0.80263763  1
  O  O400  1  0.61826909  0.33096871  0.30453991  1
  O  O401  1  0.61815578  0.33648963  0.80251888  1
  O  O402  1  0.62396711  0.83302465  0.30650220  1
  O  O403  1  0.62226893  0.83160728  0.80679164  1
  O  O404  1  0.96145774  0.33672011  0.30704464  1
  O  O405  1  0.95641258  0.33241633  0.80244265  1
  O  O406  1  0.95644068  0.83094145  0.30777248  1
  O  O407  1  0.96242133  0.83593661  0.81173241  1
  O  O408  1  0.12444585  0.41937784  0.30499509  1
  O  O409  1  0.12413820  0.41592922  0.80453774  1
  O  O410  1  0.12260539  0.91596178  0.30216009  1
  O  O411  1  0.12518141  0.91672838  0.80409478  1
  O  O412  1  0.45722988  0.41689053  0.30443321  1
  O  O413  1  0.44644952  0.41091483  0.80099635  1
  O  O414  1  0.45599711  0.91601427  0.30628625  1
  O  O415  1  0.45611985  0.91529065  0.80460771  1
  O  O416  1  0.80427588  0.41900857  0.30507164  1
  O  O417  1  0.78905246  0.41684273  0.79994316  1
  O  O418  1  0.79001613  0.91437924  0.30670373  1
  O  O419  1  0.78770912  0.91562037  0.80348642  1
  O  O420  1  0.29171863  0.16636036  0.30820191  1
  O  O421  1  0.28758337  0.16644479  0.80295904  1
  O  O422  1  0.28636603  0.66347498  0.30393668  1
  O  O423  1  0.29035966  0.66803663  0.80111005  1
  O  O424  1  0.62285741  0.16965904  0.31194843  1
  O  O425  1  0.62463378  0.16847994  0.80515557  1
  O  O426  1  0.62419392  0.66649729  0.29891384  1
  O  O427  1  0.62081678  0.66511979  0.80483125  1
  O  O428  1  0.96756874  0.16907097  0.31113430  1
  O  O429  1  0.95956511  0.16517900  0.80839631  1
  O  O430  1  0.95786442  0.66610556  0.30570416  1
  O  O431  1  0.96092754  0.66714247  0.80159702  1
  F  F432  1  0.04593498  0.00004807  0.20405937  1
  F  F433  1  0.04343136  0.00027824  0.70214400  1
  F  F434  1  0.04599591  0.50141652  0.20183306  1
  F  F435  1  0.04225477  0.49854711  0.70399100  1
  F  F436  1  0.37560025  -0.00178649  0.20235238  1
  F  F437  1  0.37882132  -0.00190280  0.69844156  1
  F  F438  1  0.37547882  0.50012327  0.20098801  1
  F  F439  1  0.36335606  0.49838810  0.69124307  1
  F  F440  1  0.71159038  -0.00735411  0.19988265  1
  F  F441  1  0.70666962  0.00264447  0.70226251  1
  F  F442  1  0.72009838  0.51379064  0.19770378  1
  F  F443  1  0.71430423  0.50285094  0.69978787  1
  F  F444  1  0.20963683  0.25267159  0.19958546  1
  F  F445  1  0.20886518  0.24890939  0.70002698  1
  F  F446  1  0.20974129  0.75126902  0.20271950  1
  F  F447  1  0.21080214  0.74867385  0.69827385  1
  F  F448  1  0.54390234  0.25055664  0.20099691  1
  F  F449  1  0.54591607  0.24789206  0.70096603  1
  F  F450  1  0.54671483  0.75694677  0.19843433  1
  F  F451  1  0.54895018  0.75066029  0.70216642  1
  F  F452  1  0.89058550  0.26059356  0.20134093  1
  F  F453  1  0.87693749  0.24768501  0.70402139  1
  F  F454  1  0.88004988  0.74956420  0.20414571  1
  F  F455  1  0.87894061  0.75777593  0.70456630  1
  F  F456  1  0.28880900  -0.00063441  0.30051381  1
  F  F457  1  0.28869164  0.00078368  0.79509905  1
  F  F458  1  0.28657321  0.50027839  0.29619833  1
  F  F459  1  0.28705994  0.49665272  0.79391840  1
  F  F460  1  0.61983671  -0.00387338  0.29943262  1
  F  F461  1  0.62017426  -0.00035246  0.79997050  1
  F  F462  1  0.61690630  0.50780828  0.29910240  1
  F  F463  1  0.62960912  0.50101759  0.79786240  1
  F  F464  1  0.95394361  -0.00199571  0.30052155  1
  F  F465  1  0.96191762  0.00025506  0.80250344  1
  F  F466  1  0.95836466  0.50251326  0.29767348  1
  F  F467  1  0.95589828  0.49964845  0.80083713  1
  F  F468  1  0.12170487  0.25848485  0.30394432  1
  F  F469  1  0.12194664  0.24942936  0.79648525  1
  F  F470  1  0.12195464  0.74789146  0.29890578  1
  F  F471  1  0.12292159  0.75028109  0.79430953  1
  F  F472  1  0.45534243  0.25316930  0.29656684  1
  F  F473  1  0.45333667  0.24775427  0.79525549  1
  F  F474  1  0.45252312  0.75552085  0.30040252  1
  F  F475  1  0.45416068  0.74641891  0.79440715  1
  F  F476  1  0.78727759  0.26153907  0.30649636  1
  F  F477  1  0.78702543  0.25027608  0.79883685  1
  F  F478  1  0.78843294  0.74863141  0.29880954  1
  F  F479  1  0.78641465  0.75505476  0.80458269  1
