# generated using pymatgen
data_K24Na3Li5Mg64Fe17Si79(O5F)48
_symmetry_space_group_name_H-M   'P 1'
_cell_length_a   16.08321891
_cell_length_b   18.58412440
_cell_length_c   20.55306064
_cell_angle_alpha   90.00705482
_cell_angle_beta   100.02310340
_cell_angle_gamma   90.00497812
_symmetry_Int_Tables_number   1
_chemical_formula_structural   K24Na3Li5Mg64Fe17Si79(O5F)48
_chemical_formula_sum   'K24 Na3 Li5 Mg64 Fe17 Si79 O240 F48'
_cell_volume   6049.39744783
_cell_formula_units_Z   1
loop_
 _symmetry_equiv_pos_site_id
 _symmetry_equiv_pos_as_xyz
  1  'x, y, z'
loop_
 _atom_site_type_symbol
 _atom_site_label
 _atom_site_symmetry_multiplicity
 _atom_site_fract_x
 _atom_site_fract_y
 _atom_site_fract_z
 _atom_site_occupancy
  K  K0  1  -0.01269824  -0.00620618  -0.00352345  1
  K  K1  1  -0.00502958  0.01026329  0.50325961  1
  K  K2  1  0.00562156  0.49148688  0.00510491  1
  K  K3  1  -0.00542201  0.49591974  0.50462146  1
  K  K4  1  0.33807312  -0.00063986  0.00098434  1
  K  K5  1  0.34009793  0.00557958  0.50327985  1
  K  K6  1  0.33101022  0.48661472  0.00539280  1
  K  K7  1  0.32388714  0.48838647  0.50227919  1
  K  K8  1  0.67504962  0.00855679  0.00198786  1
  K  K9  1  0.65965271  0.01100858  0.49764048  1
  K  K10  1  0.66695757  0.48834193  0.01474295  1
  K  K11  1  0.66486505  0.50579157  0.49921641  1
  K  K12  1  0.16804850  0.25379504  -0.00074860  1
  K  K13  1  0.16799074  0.25240705  0.50087150  1
  K  K14  1  0.16843147  0.76105266  -0.00355233  1
  K  K15  1  0.16850209  0.74651856  0.50515606  1
  K  K16  1  0.50747250  0.24953374  0.01720283  1
  K  K17  1  0.50281449  0.24714773  0.49631269  1
  K  K18  1  0.49504804  0.75614035  -0.00015600  1
  K  K19  1  0.49548355  0.75322439  0.50196020  1
  K  K20  1  0.83170225  0.24277720  0.01554654  1
  K  K21  1  0.83035873  0.24208715  0.49195780  1
  K  K22  1  0.83871498  0.75577295  -0.00618070  1
  K  K23  1  0.84072308  0.75368193  0.50481492  1
  Na  Na24  1  -0.00030332  0.25070358  0.74457204  1
  Na  Na25  1  0.49903923  0.17088408  0.74873623  1
  Na  Na26  1  0.82714264  0.33005608  0.26266434  1
  Li  Li27  1  0.67088196  0.25482828  0.26451227  1
  Li  Li28  1  0.50418306  0.00611586  0.25048155  1
  Li  Li29  1  0.66453170  0.40045480  0.26046712  1
  Li  Li30  1  0.32859594  0.41284199  0.74331653  1
  Li  Li31  1  0.51667396  0.32418390  0.24932136  1
  Mg  Mg32  1  0.83450683  0.50087618  0.75163231  1
  Mg  Mg33  1  0.33491042  0.25026643  0.24698776  1
  Mg  Mg34  1  0.50148987  0.00124134  0.75118558  1
  Mg  Mg35  1  0.00033116  0.75270304  0.75030006  1
  Mg  Mg36  1  0.16834541  0.00067110  0.24593294  1
  Mg  Mg37  1  0.66771918  0.75116391  0.75338825  1
  Mg  Mg38  1  0.33440023  0.25240745  0.74654393  1
  Mg  Mg39  1  0.17006187  0.49761758  0.74798986  1
  Mg  Mg40  1  -0.00547832  0.24940186  0.24957975  1
  Mg  Mg41  1  0.83362688  0.00008421  0.25181798  1
  Mg  Mg42  1  0.16653997  0.49745648  0.24599408  1
  Mg  Mg43  1  0.33700959  0.75134891  0.24221332  1
  Mg  Mg44  1  0.33301531  0.75167807  0.74726231  1
  Mg  Mg45  1  0.50248656  0.49223506  0.25177500  1
  Mg  Mg46  1  0.00298835  0.75008897  0.24832348  1
  Mg  Mg47  1  0.66639705  0.74846532  0.24906042  1
  Mg  Mg48  1  0.49667094  0.49963686  0.75088033  1
  Mg  Mg49  1  0.16668839  0.00265361  0.74615590  1
  Mg  Mg50  1  0.83075021  0.49786395  0.25162846  1
  Mg  Mg51  1  0.83483694  -0.00158629  0.75380396  1
  Mg  Mg52  1  0.66688619  0.25173285  0.75483203  1
  Mg  Mg53  1  0.83487504  0.66511779  0.25049266  1
  Mg  Mg54  1  0.16554694  0.16615974  0.24733171  1
  Mg  Mg55  1  0.83397227  0.33428942  0.75295513  1
  Mg  Mg56  1  0.49950182  0.83500679  0.75100503  1
  Mg  Mg57  1  0.66625356  0.58443863  0.75166317  1
  Mg  Mg58  1  0.83286752  0.16481261  0.25199622  1
  Mg  Mg59  1  -0.00182609  0.58476403  0.74933346  1
  Mg  Mg60  1  0.17068920  0.83496397  0.24443072  1
  Mg  Mg61  1  0.16734597  0.33426974  0.74586004  1
  Mg  Mg62  1  0.50076213  0.66321721  0.24626456  1
  Mg  Mg63  1  0.83420391  0.16663899  0.75371398  1
  Mg  Mg64  1  0.33059213  0.58157157  0.74768339  1
  Mg  Mg65  1  -0.00173588  0.41406301  0.25155661  1
  Mg  Mg66  1  0.66633288  0.08632581  0.25236104  1
  Mg  Mg67  1  0.33305593  0.08536367  0.74702939  1
  Mg  Mg68  1  0.16359284  0.33531125  0.24753448  1
  Mg  Mg69  1  -0.00169555  0.08465196  0.24983097  1
  Mg  Mg70  1  0.49781592  0.66612651  0.75043496  1
  Mg  Mg71  1  0.49652647  0.33597649  0.75095683  1
  Mg  Mg72  1  0.33166030  0.91678900  0.74471702  1
  Mg  Mg73  1  0.16600727  0.16699680  0.74663963  1
  Mg  Mg74  1  -0.00008574  0.41643668  0.74790573  1
  Mg  Mg75  1  0.50013406  0.83656318  0.24358525  1
  Mg  Mg76  1  -0.00096348  0.08484133  0.74917661  1
  Mg  Mg77  1  0.66582735  0.41683125  0.75429334  1
  Mg  Mg78  1  0.33410441  0.58200080  0.24354319  1
  Mg  Mg79  1  0.66783942  0.08524685  0.75765349  1
  Mg  Mg80  1  0.00104945  0.91620167  0.24708053  1
  Mg  Mg81  1  0.16442691  0.66603950  0.74668822  1
  Mg  Mg82  1  0.33308671  0.41199475  0.24635508  1
  Mg  Mg83  1  0.33895095  0.91785918  0.24252266  1
  Mg  Mg84  1  0.00256233  0.58337487  0.24975295  1
  Mg  Mg85  1  0.16955066  0.66553559  0.24557114  1
  Mg  Mg86  1  0.67003904  0.91639340  0.75448083  1
  Mg  Mg87  1  0.83658963  0.83680706  0.75420957  1
  Mg  Mg88  1  0.50310612  0.16911927  0.24834933  1
  Mg  Mg89  1  0.66981062  0.57727998  0.25251962  1
  Mg  Mg90  1  0.83391051  0.83286968  0.24868422  1
  Mg  Mg91  1  0.16375364  0.83655363  0.74684060  1
  Mg  Mg92  1  0.33760471  0.08288766  0.24796265  1
  Mg  Mg93  1  0.83459039  0.66592659  0.75365529  1
  Mg  Mg94  1  0.66477462  0.91716916  0.24772972  1
  Mg  Mg95  1  -0.00140078  0.91443667  0.75239482  1
  Fe  Fe96  1  0.19051395  0.08743096  0.60655559  1
  Fe  Fe97  1  0.85401274  0.91770859  0.60972302  1
  Fe  Fe98  1  0.80608003  0.91977622  0.89731691  1
  Fe  Fe99  1  0.97880122  0.16148097  0.39200233  1
  Fe  Fe100  1  0.13946510  0.42115145  0.38781226  1
  Fe  Fe101  1  0.02633394  0.83503088  0.60793806  1
  Fe  Fe102  1  0.98008618  0.82957593  0.89648350  1
  Fe  Fe103  1  0.85565186  0.07930965  0.11011386  1
  Fe  Fe104  1  0.63934055  0.17172950  0.39031037  1
  Fe  Fe105  1  0.85285316  0.58475448  0.61191513  1
  Fe  Fe106  1  0.18872084  0.41249523  0.60828140  1
  Fe  Fe107  1  0.79603385  0.42372441  0.39484922  1
  Fe  Fe108  1  0.36342970  0.83601455  0.60906819  1
  Fe  Fe109  1  0.97202467  0.33448414  0.39421209  1
  Fe  Fe110  1  0.36189680  0.83703640  0.10246599  1
  Fe  Fe111  1  0.18864340  0.41137186  0.10510321  1
  Fe  Fe112  1  0.01643794  0.16815136  0.60790144  1
  Si  Si113  1  0.02643483  0.83327098  0.11296044  1
  Si  Si114  1  0.69235310  0.16877481  0.11304533  1
  Si  Si115  1  0.47281230  0.58103747  0.38242403  1
  Si  Si116  1  0.36103785  0.66337308  0.10738060  1
  Si  Si117  1  0.14499023  0.41487256  0.88449341  1
  Si  Si118  1  0.63930582  0.66415029  0.88814983  1
  Si  Si119  1  0.85660621  0.90905427  0.11331326  1
  Si  Si120  1  0.98031461  0.67144499  0.38405447  1
  Si  Si121  1  0.47001263  0.08390792  0.38469723  1
  Si  Si122  1  0.46331737  0.41657878  0.38490822  1
  Si  Si123  1  0.53697480  0.91834058  0.10815714  1
  Si  Si124  1  0.30617218  0.16479090  0.38129174  1
  Si  Si125  1  0.19070843  0.58449304  0.10814889  1
  Si  Si126  1  0.69117046  0.66194910  0.11531151  1
  Si  Si127  1  0.19206762  0.08681747  0.11171775  1
  Si  Si128  1  0.47172491  0.91690535  0.88594889  1
  Si  Si129  1  0.69335861  0.33253089  0.62069186  1
  Si  Si130  1  0.31008317  0.33161098  0.88293425  1
  Si  Si131  1  0.63807114  0.66714992  0.38348597  1
  Si  Si132  1  0.68520625  0.67104294  0.61612448  1
  Si  Si133  1  0.80787463  0.41533673  0.89036569  1
  Si  Si134  1  0.02534086  0.66757444  0.11237699  1
  Si  Si135  1  0.01545872  0.33019560  0.10939024  1
  Si  Si136  1  0.30349154  0.32874533  0.38440851  1
  Si  Si137  1  0.31240448  0.83368395  0.37961380  1
  Si  Si138  1  0.19301932  0.91765505  0.60881950  1
  Si  Si139  1  0.69238257  0.17017836  0.62141967  1
  Si  Si140  1  0.53072965  0.41654980  0.61722867  1
  Si  Si141  1  0.36420798  0.16576516  0.61095943  1
  Si  Si142  1  0.97677148  0.16993397  0.88736207  1
  Si  Si143  1  0.35933481  0.32747913  0.10945473  1
  Si  Si144  1  0.84784942  0.08260343  0.61582721  1
  Si  Si145  1  0.52526877  0.58118664  0.61658290  1
  Si  Si146  1  0.63129709  0.33844792  0.39535197  1
  Si  Si147  1  0.14868844  0.91486722  0.38087562  1
  Si  Si148  1  0.63534514  0.83104092  0.89090251  1
  Si  Si149  1  0.64035468  0.17077647  0.88976164  1
  Si  Si150  1  0.85990306  0.58343736  0.11435847  1
  Si  Si151  1  0.47300118  0.41884430  0.88623900  1
  Si  Si152  1  0.14443601  0.08791855  0.88683386  1
  Si  Si153  1  0.80401351  0.07575387  0.39063236  1
  Si  Si154  1  0.47537677  0.91879922  0.38064120  1
  Si  Si155  1  0.35830704  0.66398222  0.61210702  1
  Si  Si156  1  0.47122437  0.58388586  0.88642421  1
  Si  Si157  1  0.14793247  0.59002546  0.38363828  1
  Si  Si158  1  0.36201113  0.16121056  0.11234547  1
  Si  Si159  1  0.63862985  0.33621394  0.89055807  1
  Si  Si160  1  0.01524805  0.33756851  0.61149095  1
  Si  Si161  1  0.69207395  0.83090757  0.61771187  1
  Si  Si162  1  0.14584498  0.07757399  0.38304269  1
  Si  Si163  1  0.19075360  0.58426089  0.61239814  1
  Si  Si164  1  0.53332943  0.08227112  0.61899210  1
  Si  Si165  1  0.52587731  0.41206249  0.11750146  1
  Si  Si166  1  0.53480285  0.91874746  0.61503156  1
  Si  Si167  1  0.30535853  0.83519128  0.88318842  1
  Si  Si168  1  0.68944145  0.33371426  0.12154602  1
  Si  Si169  1  0.85523034  0.41843616  0.11646245  1
  Si  Si170  1  0.52662082  0.57662210  0.11396612  1
  Si  Si171  1  0.02611201  0.16443853  0.11077135  1
  Si  Si172  1  0.14447705  0.57927473  0.88414031  1
  Si  Si173  1  0.36618133  0.33131576  0.61103567  1
  Si  Si174  1  0.14546026  0.92296529  0.88866097  1
  Si  Si175  1  0.69483303  0.82618084  0.11374858  1
  Si  Si176  1  0.53045577  0.08412923  0.11472679  1
  Si  Si177  1  0.97912095  0.65852129  0.89118856  1
  Si  Si178  1  0.31173881  0.16831838  0.88551320  1
  Si  Si179  1  0.02485844  0.66435462  0.61250053  1
  Si  Si180  1  0.80855810  0.90967445  0.38417520  1
  Si  Si181  1  0.81224574  0.59301869  0.38920565  1
  Si  Si182  1  0.63833442  0.83217823  0.38285895  1
  Si  Si183  1  0.80648787  0.58124722  0.88959100  1
  Si  Si184  1  0.98086633  0.83609644  0.38271721  1
  Si  Si185  1  0.85120538  0.41680698  0.61623915  1
  Si  Si186  1  0.97608822  0.33774060  0.88661226  1
  Si  Si187  1  0.30590835  0.66853249  0.88344468  1
  Si  Si188  1  0.31185671  0.67064809  0.37911475  1
  Si  Si189  1  0.80996861  0.09317648  0.89360195  1
  Si  Si190  1  0.18862963  0.92130083  0.10808121  1
  Si  Si191  1  0.47465435  0.08150915  0.88670160  1
  O  O192  1  0.27382593  0.11739465  0.08136379  1
  O  O193  1  0.28947954  0.11589825  0.57240446  1
  O  O194  1  0.27170518  0.62072709  0.08038350  1
  O  O195  1  0.27653509  0.61261291  0.58534683  1
  O  O196  1  0.59754307  0.13369806  0.08238185  1
  O  O197  1  0.61448991  0.11610263  0.59035844  1
  O  O198  1  0.60650855  0.61448286  0.08508485  1
  O  O199  1  0.60511210  0.61608897  0.58790972  1
  O  O200  1  0.95235439  0.11066556  0.07645739  1
  O  O201  1  0.92871512  0.10043249  0.58216285  1
  O  O202  1  0.93773874  0.62273012  0.08366884  1
  O  O203  1  0.95566530  0.60307152  0.58371765  1
  O  O204  1  0.08494557  0.36586511  0.07054737  1
  O  O205  1  0.09352809  0.35709759  0.57400582  1
  O  O206  1  0.10261877  0.87215587  0.08278271  1
  O  O207  1  0.13069971  0.85125247  0.58040847  1
  O  O208  1  0.43988796  0.36802432  0.08333253  1
  O  O209  1  0.45121683  0.36619543  0.58537434  1
  O  O210  1  0.45196977  0.88015540  0.06864665  1
  O  O211  1  0.46145812  0.86640115  0.57767764  1
  O  O212  1  0.76368435  0.37951898  0.08984627  1
  O  O213  1  0.77827838  0.35445639  0.59223159  1
  O  O214  1  0.78228778  0.84824604  0.08835000  1
  O  O215  1  0.77340767  0.84228120  0.58361191  1
  O  O216  1  0.27497825  0.36557301  0.06796638  1
  O  O217  1  0.28585337  0.37774434  0.57634463  1
  O  O218  1  0.26182846  0.88990257  0.07134746  1
  O  O219  1  0.28194161  0.90524899  0.58072367  1
  O  O220  1  0.60188256  0.37541634  0.08395587  1
  O  O221  1  0.61560387  0.38778116  0.59087144  1
  O  O222  1  0.61826955  0.87958065  0.08057171  1
  O  O223  1  0.62268196  0.89411950  0.59041443  1
  O  O224  1  0.92491987  0.37349198  0.08229522  1
  O  O225  1  0.93836641  0.39851370  0.58923476  1
  O  O226  1  0.94022839  0.87736252  0.08605953  1
  O  O227  1  0.94415780  0.89827293  0.56745487  1
  O  O228  1  0.11428149  0.14139744  0.08304387  1
  O  O229  1  0.10899213  0.15088301  0.56821520  1
  O  O230  1  0.10513268  0.63456673  0.08227426  1
  O  O231  1  0.11626523  0.64429565  0.58872440  1
  O  O232  1  0.43583119  0.11678653  0.08261770  1
  O  O233  1  0.45334457  0.13408946  0.59048219  1
  O  O234  1  0.43890692  0.61869171  0.08173109  1
  O  O235  1  0.44016275  0.62613555  0.58581903  1
  O  O236  1  0.75919162  0.13195461  0.07177586  1
  O  O237  1  0.77604668  0.14733876  0.59242753  1
  O  O238  1  0.77165194  0.62782178  0.08517138  1
  O  O239  1  0.76362393  0.65071264  0.58043912  1
  O  O240  1  0.06600604  0.09236808  0.41713042  1
  O  O241  1  0.06632133  0.12702894  0.91726475  1
  O  O242  1  0.06492938  0.62385230  0.41191469  1
  O  O243  1  0.06231695  0.60549899  0.91569198  1
  O  O244  1  0.38241375  0.10938876  0.41138361  1
  O  O245  1  0.39781683  0.12180832  0.91727158  1
  O  O246  1  0.39484011  0.62217073  0.41056857  1
  O  O247  1  0.39605972  0.62816281  0.91481393  1
  O  O248  1  0.72537276  0.10498225  0.42281687  1
  O  O249  1  0.73318566  0.13805559  0.92172199  1
  O  O250  1  0.73080826  0.63452752  0.41426295  1
  O  O251  1  0.72970070  0.62386308  0.91847215  1
  O  O252  1  0.22379592  0.35132048  0.41748630  1
  O  O253  1  0.23067720  0.36822905  0.91355909  1
  O  O254  1  0.22853248  0.86068932  0.40876312  1
  O  O255  1  0.23349611  0.87657009  0.91589786  1
  O  O256  1  0.54126951  0.36666093  0.41951871  1
  O  O257  1  0.56510531  0.38216101  0.91982919  1
  O  O258  1  0.56374842  0.87570503  0.41206076  1
  O  O259  1  0.55129940  0.86500628  0.91646150  1
  O  O260  1  0.87553623  0.35488319  0.42768248  1
  O  O261  1  0.89894007  0.37607984  0.91989362  1
  O  O262  1  0.89738929  0.86507920  0.41047481  1
  O  O263  1  0.89799249  0.86775822  0.93909009  1
  O  O264  1  0.04455429  0.40939709  0.42389674  1
  O  O265  1  0.06476593  0.38162750  0.91599669  1
  O  O266  1  0.06475931  0.88586716  0.40953498  1
  O  O267  1  0.07604162  0.88802739  0.92681303  1
  O  O268  1  0.38117405  0.38488168  0.41393089  1
  O  O269  1  0.39639132  0.37761326  0.91498863  1
  O  O270  1  0.39595179  0.88121681  0.41040447  1
  O  O271  1  0.39240686  0.87884868  0.91356747  1
  O  O272  1  0.69895474  0.39905030  0.42918072  1
  O  O273  1  0.73147010  0.37350249  0.92031601  1
  O  O274  1  0.73190021  0.86594656  0.41197925  1
  O  O275  1  0.71496615  0.87393983  0.92968973  1
  O  O276  1  0.22328158  0.13457026  0.40960037  1
  O  O277  1  0.23170875  0.13372015  0.91577926  1
  O  O278  1  0.22659708  0.64816742  0.40747108  1
  O  O279  1  0.22859279  0.62910754  0.91340350  1
  O  O280  1  0.54609357  0.13066357  0.42475137  1
  O  O281  1  0.56416251  0.12437826  0.91581360  1
  O  O282  1  0.56229026  0.62344230  0.41196918  1
  O  O283  1  0.56284317  0.62170088  0.91682113  1
  O  O284  1  0.88848911  0.11786499  0.42407536  1
  O  O285  1  0.89829608  0.13882042  0.92131117  1
  O  O286  1  0.89623902  0.64624991  0.41270681  1
  O  O287  1  0.89765772  0.61881009  0.91853095  1
  O  O288  1  0.16774700  0.00512353  0.08268252  1
  O  O289  1  0.15326885  -0.00607597  0.57986428  1
  O  O290  1  0.17408492  0.50749933  0.07231202  1
  O  O291  1  0.16562829  0.50832078  0.57733788  1
  O  O292  1  0.53586848  0.00282835  0.08283374  1
  O  O293  1  0.51574669  0.00154710  0.58621897  1
  O  O294  1  0.51688878  0.49479935  0.08363739  1
  O  O295  1  0.51324415  0.49881524  0.58767693  1
  O  O296  1  0.82992539  -0.01580292  0.07806768  1
  O  O297  1  0.80301182  0.00799585  0.58688574  1
  O  O298  1  0.84896744  0.50157283  0.08302475  1
  O  O299  1  0.81219738  0.49229939  0.58587428  1
  O  O300  1  0.00119414  0.24637579  0.08222441  1
  O  O301  1  -0.02815508  0.26102513  0.58891145  1
  O  O302  1  0.01274432  0.75056994  0.08439897  1
  O  O303  1  -0.00591547  0.74041493  0.57854956  1
  O  O304  1  0.35820710  0.24282172  0.08098271  1
  O  O305  1  0.35905566  0.24873154  0.58090619  1
  O  O306  1  0.35435154  0.74076775  0.07106612  1
  O  O307  1  0.34211285  0.74091733  0.57554297  1
  O  O308  1  0.68450370  0.25352882  0.08602393  1
  O  O309  1  0.66394522  0.25159251  0.59470656  1
  O  O310  1  0.67253213  0.74381657  0.08497981  1
  O  O311  1  0.64813961  0.75187600  0.59341264  1
  O  O312  1  0.17976206  -0.00517309  0.40710747  1
  O  O313  1  0.16244196  0.00646460  0.91772697  1
  O  O314  1  0.17878701  0.51518939  0.41751418  1
  O  O315  1  0.16457938  0.49724529  0.91364484  1
  O  O316  1  0.48425574  -0.00074406  0.41217474  1
  O  O317  1  0.48439979  -0.00132884  0.91826316  1
  O  O318  1  0.47940484  0.50054384  0.41491284  1
  O  O319  1  0.47495356  0.50181153  0.91662925  1
  O  O320  1  0.81760024  -0.01088344  0.41613223  1
  O  O321  1  0.81703058  0.01602196  0.92938909  1
  O  O322  1  0.82937783  0.51918656  0.42869950  1
  O  O323  1  0.81025474  0.49844186  0.91980573  1
  O  O324  1  0.33165840  0.24570265  0.41028756  1
  O  O325  1  0.32437830  0.25046189  0.91625214  1
  O  O326  1  0.33504761  0.75210652  0.40774656  1
  O  O327  1  0.31413438  0.75170618  0.91242827  1
  O  O328  1  0.65315306  0.26131857  0.43373103  1
  O  O329  1  0.63709194  0.25377283  0.91966384  1
  O  O330  1  0.63559050  0.74986687  0.41210252  1
  O  O331  1  0.64132258  0.74587988  0.91784342  1
  O  O332  1  1.01329293  0.24815667  0.43095205  1
  O  O333  1  0.99069583  0.25451306  0.91399968  1
  O  O334  1  1.00215722  0.75424264  0.41116875  1
  O  O335  1  0.99860945  0.73316539  0.93034979  1
  O  O336  1  0.21106817  0.08351651  0.19207069  1
  O  O337  1  0.21389596  0.08389055  0.69974658  1
  O  O338  1  0.20986248  0.58492694  0.18927599  1
  O  O339  1  0.21027144  0.58403537  0.69385271  1
  O  O340  1  0.54547073  0.08325485  0.19372500  1
  O  O341  1  0.55170713  0.07671660  0.69839926  1
  O  O342  1  0.54405010  0.58127712  0.19388804  1
  O  O343  1  0.54290675  0.58328635  0.69738759  1
  O  O344  1  0.87834561  0.07732372  0.20113129  1
  O  O345  1  0.87104057  0.08376569  0.69792148  1
  O  O346  1  0.87980864  0.58743700  0.19427818  1
  O  O347  1  0.87512579  0.58447719  0.70440901  1
  O  O348  1  0.03973946  0.33242133  0.18933318  1
  O  O349  1  0.04579260  0.34423834  0.69171968  1
  O  O350  1  0.04626534  0.83226755  0.19350352  1
  O  O351  1  0.04506963  0.83418896  0.70107900  1
  O  O352  1  0.36576588  0.33089987  0.18835034  1
  O  O353  1  0.38179534  0.33129811  0.69136063  1
  O  O354  1  0.37983269  0.83341613  0.19411779  1
  O  O355  1  0.38106241  0.83271836  0.70129987  1
  O  O356  1  0.69971504  0.33174001  0.19877834  1
  O  O357  1  0.70963407  0.33651862  0.70147420  1
  O  O358  1  0.71031084  0.82875157  0.19427245  1
  O  O359  1  0.70892804  0.83159382  0.69906767  1
  O  O360  1  0.21220974  0.41625617  0.19597507  1
  O  O361  1  0.21107287  0.41743892  0.69919610  1
  O  O362  1  0.21008225  0.91739800  0.18900715  1
  O  O363  1  0.21051012  0.91695518  0.69185388  1
  O  O364  1  0.54100231  0.41726887  0.19576336  1
  O  O365  1  0.54520756  0.41957461  0.69782697  1
  O  O366  1  0.54953391  0.91001512  0.18766676  1
  O  O367  1  0.54641500  0.91633755  0.69639243  1
  O  O368  1  0.88100611  0.42562469  0.19466088  1
  O  O369  1  0.87208443  0.41759388  0.69793533  1
  O  O370  1  0.87733347  0.91164414  0.19429426  1
  O  O371  1  0.87796682  0.91732326  0.70227984  1
  O  O372  1  0.04585391  0.16298602  0.19125834  1
  O  O373  1  0.04909872  0.15725798  0.69787506  1
  O  O374  1  0.04437617  0.66763193  0.19288237  1
  O  O375  1  0.04203876  0.66645594  0.69484176  1
  O  O376  1  0.37441845  0.16313156  0.19188297  1
  O  O377  1  0.36881471  0.16780439  0.69058477  1
  O  O378  1  0.37853267  0.66539694  0.18863070  1
  O  O379  1  0.37728677  0.66647515  0.69355301  1
  O  O380  1  0.71540748  0.15646737  0.19134230  1
  O  O381  1  0.70804497  0.16805584  0.70204710  1
  O  O382  1  0.71054737  0.66617115  0.19545470  1
  O  O383  1  0.70650839  0.66624869  0.69752816  1
  O  O384  1  0.12648651  0.07973249  0.30162043  1
  O  O385  1  0.12541355  0.08475627  0.80740374  1
  O  O386  1  0.12633610  0.58819039  0.30227575  1
  O  O387  1  0.12487566  0.58318545  0.80414687  1
  O  O388  1  0.45407399  0.08529158  0.30462351  1
  O  O389  1  0.45360035  0.07765892  0.80765380  1
  O  O390  1  0.45514481  0.58378079  0.30206231  1
  O  O391  1  0.45579166  0.58483272  0.80622547  1
  O  O392  1  0.78810290  0.07487322  0.30928797  1
  O  O393  1  0.79035078  0.08832273  0.81288111  1
  O  O394  1  0.79270429  0.58983708  0.30797563  1
  O  O395  1  0.78656966  0.58210768  0.80948966  1
  O  O396  1  0.28838087  0.33058635  0.30355180  1
  O  O397  1  0.29169831  0.33143146  0.80398732  1
  O  O398  1  0.29213350  0.83396556  0.29918857  1
  O  O399  1  0.28800668  0.83410309  0.80329751  1
  O  O400  1  0.61945773  0.33209984  0.31644595  1
  O  O401  1  0.62317977  0.33736642  0.81059829  1
  O  O402  1  0.62216252  0.83155773  0.30232792  1
  O  O403  1  0.62150129  0.83163362  0.80983585  1
  O  O404  1  0.96643891  0.33254511  0.30335444  1
  O  O405  1  0.95249922  0.34280308  0.80778015  1
  O  O406  1  0.96062109  0.83310948  0.30203925  1
  O  O407  1  0.95667037  0.83043962  0.80502737  1
  O  O408  1  0.12046519  0.41966604  0.29547882  1
  O  O409  1  0.12303175  0.41637607  0.80508469  1
  O  O410  1  0.12719321  0.91372298  0.30014448  1
  O  O411  1  0.12733573  0.92017248  0.80812796  1
  O  O412  1  0.44723737  0.42139173  0.30556202  1
  O  O413  1  0.46213832  0.41958231  0.80710223  1
  O  O414  1  0.45768480  0.91433172  0.30118622  1
  O  O415  1  0.45755303  0.91794608  0.80595382  1
  O  O416  1  0.77933465  0.43226702  0.30572676  1
  O  O417  1  0.78867186  0.41767923  0.81023489  1
  O  O418  1  0.78998329  0.91067739  0.30349593  1
  O  O419  1  0.78766092  0.91632338  0.80535781  1
  O  O420  1  0.28832630  0.16454440  0.30065879  1
  O  O421  1  0.29585392  0.16762408  0.80579904  1
  O  O422  1  0.29408238  0.66820922  0.29836833  1
  O  O423  1  0.29056858  0.66742223  0.80335441  1
  O  O424  1  0.61900884  0.16519310  0.30020226  1
  O  O425  1  0.62988985  0.17058173  0.81073061  1
  O  O426  1  0.62208765  0.66673968  0.30296700  1
  O  O427  1  0.62218574  0.66453998  0.80774165  1
  O  O428  1  0.95889686  0.16476072  0.29995036  1
  O  O429  1  0.95333459  0.16221623  0.80866932  1
  O  O430  1  0.96065932  0.66933282  0.30316788  1
  O  O431  1  0.95889922  0.66434487  0.81071034  1
  F  F432  1  0.04672198  -0.00272213  0.19970288  1
  F  F433  1  0.04450689  -0.00170516  0.70637784  1
  F  F434  1  0.04482286  0.50661380  0.19665602  1
  F  F435  1  0.04545505  0.50243123  0.70489864  1
  F  F436  1  0.37445929  0.00112500  0.19529335  1
  F  F437  1  0.38246317  0.00036158  0.70140208  1
  F  F438  1  0.38005028  0.50007952  0.19760185  1
  F  F439  1  0.38215043  0.50531667  0.70055282  1
  F  F440  1  0.71412484  -0.00448374  0.20124624  1
  F  F441  1  0.71113063  0.00324648  0.70984403  1
  F  F442  1  0.71944417  0.51696875  0.19210708  1
  F  F443  1  0.71000275  0.50015930  0.70712545  1
  F  F444  1  0.21106024  0.24878870  0.19851974  1
  F  F445  1  0.21439686  0.25100244  0.69959264  1
  F  F446  1  0.21320306  0.74995750  0.19625443  1
  F  F447  1  0.21270673  0.74948997  0.70214508  1
  F  F448  1  0.52853747  0.24584404  0.18950310  1
  F  F449  1  0.55286043  0.26342308  0.70282087  1
  F  F450  1  0.54652947  0.74724565  0.19841989  1
  F  F451  1  0.54566316  0.74890769  0.70643425  1
  F  F452  1  0.87905219  0.24043856  0.19543301  1
  F  F453  1  0.86181408  0.25093086  0.70428369  1
  F  F454  1  0.88026889  0.74890046  0.20128769  1
  F  F455  1  0.87630957  0.74746544  0.70683347  1
  F  F456  1  0.28920547  -0.00313516  0.29330483  1
  F  F457  1  0.29074252  -0.00231394  0.79747293  1
  F  F458  1  0.28856565  0.50439399  0.29340526  1
  F  F459  1  0.28713166  0.50890538  0.80287820  1
  F  F460  1  0.62417790  -0.00433001  0.29700031  1
  F  F461  1  0.62089656  -0.00109029  0.80471861  1
  F  F462  1  0.61545151  0.50999270  0.30323172  1
  F  F463  1  0.61996948  0.50221211  0.80190868  1
  F  F464  1  0.95812468  -0.00720830  0.29856546  1
  F  F465  1  0.95686297  0.00229429  0.80248801  1
  F  F466  1  0.95549854  0.50547068  0.29674275  1
  F  F467  1  0.95593431  0.49948969  0.80137296  1
  F  F468  1  0.12172176  0.24854964  0.29230692  1
  F  F469  1  0.13585342  0.25184635  0.80057075  1
  F  F470  1  0.12607415  0.75070462  0.29355380  1
  F  F471  1  0.12514500  0.74779674  0.79916990  1
  F  F472  1  0.44876352  0.24488466  0.29686589  1
  F  F473  1  0.45091598  0.26084165  0.80315568  1
  F  F474  1  0.45703388  0.74768670  0.29388851  1
  F  F475  1  0.45489618  0.74721335  0.80135730  1
  F  F476  1  0.78723889  0.23216659  0.30834569  1
  F  F477  1  0.78715818  0.25401182  0.80582027  1
  F  F478  1  0.78919612  0.74975039  0.29719399  1
  F  F479  1  0.78617378  0.74647992  0.80307745  1
