# generated using pymatgen
data_K24Na3Li5Mg64Fe17Si79(O5F)48
_symmetry_space_group_name_H-M   'P 1'
_cell_length_a   16.08536357
_cell_length_b   18.57579213
_cell_length_c   20.55120726
_cell_angle_alpha   90.01086257
_cell_angle_beta   99.99951050
_cell_angle_gamma   89.99141910
_symmetry_Int_Tables_number   1
_chemical_formula_structural   K24Na3Li5Mg64Fe17Si79(O5F)48
_chemical_formula_sum   'K24 Na3 Li5 Mg64 Fe17 Si79 O240 F48'
_cell_volume   6047.38565421
_cell_formula_units_Z   1
loop_
 _symmetry_equiv_pos_site_id
 _symmetry_equiv_pos_as_xyz
  1  'x, y, z'
loop_
 _atom_site_type_symbol
 _atom_site_label
 _atom_site_symmetry_multiplicity
 _atom_site_fract_x
 _atom_site_fract_y
 _atom_site_fract_z
 _atom_site_occupancy
  K  K0  1  -0.00175486  0.01128326  -0.01055417  1
  K  K1  1  0.00592859  0.00488182  0.50734141  1
  K  K2  1  -0.00362789  0.49017984  -0.01282533  1
  K  K3  1  -0.00504091  0.49620414  0.50726942  1
  K  K4  1  0.32958979  0.00385054  -0.01521278  1
  K  K5  1  0.33921590  0.00031091  0.50722358  1
  K  K6  1  0.33684749  0.48950063  -0.01211227  1
  K  K7  1  0.34683742  0.50042873  0.50784203  1
  K  K8  1  0.66935365  0.00304806  -0.01617880  1
  K  K9  1  0.66253272  0.00807551  0.50804376  1
  K  K10  1  0.66258100  0.49132736  -0.01872566  1
  K  K11  1  0.66792012  0.49618645  0.51035521  1
  K  K12  1  0.16573086  0.24833605  -0.02351151  1
  K  K13  1  0.16343118  0.25141235  0.51143173  1
  K  K14  1  0.17127674  0.75345444  -0.00060852  1
  K  K15  1  0.16575044  0.75637072  0.50204265  1
  K  K16  1  0.49760730  0.25396279  -0.02200757  1
  K  K17  1  0.49714554  0.24929709  0.50953820  1
  K  K18  1  0.49292066  0.75238039  -0.01359058  1
  K  K19  1  0.49357907  0.74663667  0.50549264  1
  K  K20  1  0.82384016  0.24979655  -0.03382665  1
  K  K21  1  0.83915561  0.23775594  0.52502516  1
  K  K22  1  0.82876000  0.75180828  -0.00633056  1
  K  K23  1  0.84277983  0.74849268  0.50424846  1
  Na  Na24  1  -0.00395079  0.24791355  0.74989758  1
  Na  Na25  1  0.49673773  0.83142306  0.74318425  1
  Na  Na26  1  0.83662680  0.32267731  0.75467979  1
  Li  Li27  1  0.33435397  0.75141380  0.26229687  1
  Li  Li28  1  0.17395334  0.00744478  0.74705885  1
  Li  Li29  1  0.32728093  0.08099729  0.74759533  1
  Li  Li30  1  0.83743798  0.16266575  0.75040137  1
  Li  Li31  1  0.16073411  0.32390013  0.74906847  1
  Mg  Mg32  1  0.66641815  0.75108177  0.74870258  1
  Mg  Mg33  1  0.33025398  0.24898338  0.74918967  1
  Mg  Mg34  1  0.83565886  0.49856361  0.75119127  1
  Mg  Mg35  1  0.16748232  0.49555625  0.74824196  1
  Mg  Mg36  1  0.66939854  0.24816597  0.75858689  1
  Mg  Mg37  1  0.49686981  -0.00025830  0.74776152  1
  Mg  Mg38  1  0.83578387  0.00099805  0.75362955  1
  Mg  Mg39  1  0.49504496  0.00041100  0.25162261  1
  Mg  Mg40  1  0.83267545  0.50030872  0.24719772  1
  Mg  Mg41  1  0.66630756  0.24940479  0.25015137  1
  Mg  Mg42  1  -0.00173040  0.75245940  0.25125691  1
  Mg  Mg43  1  0.83099987  -0.00102981  0.25188862  1
  Mg  Mg44  1  -0.00143649  0.24894096  0.25083861  1
  Mg  Mg45  1  0.16730512  0.50314980  0.24902769  1
  Mg  Mg46  1  0.33240184  0.25071861  0.25134195  1
  Mg  Mg47  1  0.00338586  0.75043768  0.75021748  1
  Mg  Mg48  1  0.33551516  0.75018534  0.74867756  1
  Mg  Mg49  1  0.49907266  0.49989683  0.25122327  1
  Mg  Mg50  1  0.16501688  -0.00141534  0.25219876  1
  Mg  Mg51  1  0.50024397  0.49686296  0.74924172  1
  Mg  Mg52  1  0.66352501  0.75071964  0.24790260  1
  Mg  Mg53  1  0.33412159  0.91370211  0.25190723  1
  Mg  Mg54  1  0.83443224  0.83402242  0.75274781  1
  Mg  Mg55  1  0.66488149  0.58433793  0.24618978  1
  Mg  Mg56  1  0.33599242  0.41739064  0.25087193  1
  Mg  Mg57  1  0.00138080  0.58599088  0.24998608  1
  Mg  Mg58  1  0.16799888  0.16603231  0.75021792  1
  Mg  Mg59  1  0.00034719  0.41674340  0.24852823  1
  Mg  Mg60  1  0.66938483  0.41300220  0.75262835  1
  Mg  Mg61  1  0.33426368  0.08406276  0.25154184  1
  Mg  Mg62  1  0.83394178  0.33373667  0.24888700  1
  Mg  Mg63  1  0.00029703  0.08429303  0.25346710  1
  Mg  Mg64  1  0.49893410  0.16552840  0.25067475  1
  Mg  Mg65  1  0.83493979  0.66558739  0.75148469  1
  Mg  Mg66  1  0.33195601  0.41233195  0.74969534  1
  Mg  Mg67  1  0.66609387  0.41541608  0.24867210  1
  Mg  Mg68  1  0.33072240  0.92069394  0.74652982  1
  Mg  Mg69  1  0.16698509  0.66570832  0.74882072  1
  Mg  Mg70  1  0.66831489  0.08397426  0.75409118  1
  Mg  Mg71  1  0.83337378  0.66677740  0.24870006  1
  Mg  Mg72  1  0.66298290  0.91528501  0.25016767  1
  Mg  Mg73  1  0.49486320  0.83376694  0.25007341  1
  Mg  Mg74  1  0.33564649  0.58783349  0.25121512  1
  Mg  Mg75  1  -0.00026797  0.58342565  0.75035001  1
  Mg  Mg76  1  0.16674582  0.16583920  0.25195943  1
  Mg  Mg77  1  0.17067196  0.66973094  0.24960997  1
  Mg  Mg78  1  0.16880987  0.83356186  0.25296995  1
  Mg  Mg79  1  0.83403686  0.16483608  0.25095909  1
  Mg  Mg80  1  0.49556353  0.16457904  0.75195198  1
  Mg  Mg81  1  0.00097622  0.91524175  0.25291934  1
  Mg  Mg82  1  0.00162904  0.08268600  0.75180626  1
  Mg  Mg83  1  0.66563767  0.91746752  0.75143321  1
  Mg  Mg84  1  0.49766685  0.66560290  0.74934203  1
  Mg  Mg85  1  0.66820233  0.58377141  0.75101485  1
  Mg  Mg86  1  0.16691181  0.33543464  0.24903557  1
  Mg  Mg87  1  0.83368274  0.83453386  0.25136862  1
  Mg  Mg88  1  0.49709661  0.66700450  0.24854029  1
  Mg  Mg89  1  0.66460369  0.08370850  0.25023911  1
  Mg  Mg90  1  0.00086230  0.41403112  0.75072838  1
  Mg  Mg91  1  0.50047171  0.33484729  0.25070608  1
  Mg  Mg92  1  0.16954918  0.83815144  0.74867215  1
  Mg  Mg93  1  0.00443199  0.91772466  0.75209006  1
  Mg  Mg94  1  0.33385983  0.58329665  0.74961455  1
  Mg  Mg95  1  0.49903030  0.33280824  0.75122408  1
  Fe  Fe96  1  0.35165973  0.83198458  0.60570134  1
  Fe  Fe97  1  0.81714528  0.08312419  0.89179037  1
  Fe  Fe98  1  0.52970733  0.92047472  0.60847884  1
  Fe  Fe99  1  0.97307354  0.16641201  0.39092910  1
  Fe  Fe100  1  0.47234335  0.41928178  0.89194346  1
  Fe  Fe101  1  0.48107130  0.41497161  0.39049832  1
  Fe  Fe102  1  0.47417566  0.91633357  0.39099663  1
  Fe  Fe103  1  0.97140020  0.83418299  0.39252452  1
  Fe  Fe104  1  0.14447199  0.91877022  0.39158677  1
  Fe  Fe105  1  0.86019150  0.58450583  0.61134964  1
  Fe  Fe106  1  0.02364070  0.16388475  0.61037792  1
  Fe  Fe107  1  0.35636324  0.65932601  0.60886260  1
  Fe  Fe108  1  0.47561278  0.08899238  0.39173381  1
  Fe  Fe109  1  0.64407227  0.33187424  0.89451840  1
  Fe  Fe110  1  0.81647567  0.42025263  0.89412356  1
  Fe  Fe111  1  0.31111207  0.66665167  0.38935599  1
  Fe  Fe112  1  0.35263920  0.33678112  0.60850071  1
  Si  Si113  1  0.79697277  0.91488449  0.38602960  1
  Si  Si114  1  0.64890038  0.32934818  0.38545606  1
  Si  Si115  1  0.64085069  0.67095620  0.88675405  1
  Si  Si116  1  0.13947484  0.41969785  0.38192442  1
  Si  Si117  1  0.52407820  0.58310947  0.11094461  1
  Si  Si118  1  0.35706877  0.16711909  0.11248976  1
  Si  Si119  1  0.69701196  0.32861524  0.61861238  1
  Si  Si120  1  0.30186444  0.17169875  0.38614895  1
  Si  Si121  1  0.14418207  0.41760848  0.88606341  1
  Si  Si122  1  0.48383882  0.58329546  0.38691723  1
  Si  Si123  1  0.18885129  0.58034523  0.61510188  1
  Si  Si124  1  0.30549577  0.67045889  0.88606433  1
  Si  Si125  1  0.19014740  0.92142450  0.61295188  1
  Si  Si126  1  0.14395222  0.58235654  0.88680099  1
  Si  Si127  1  0.14159181  0.91694011  0.88731732  1
  Si  Si128  1  0.47379768  0.58898087  0.88878003  1
  Si  Si129  1  0.98343230  0.16565723  0.89154286  1
  Si  Si130  1  0.52404797  0.08316106  0.11241935  1
  Si  Si131  1  0.30682241  0.83408440  0.38643558  1
  Si  Si132  1  0.03094306  0.66974860  0.61365283  1
  Si  Si133  1  0.19141272  0.58406536  0.11142518  1
  Si  Si134  1  0.30342782  0.33740120  0.38495683  1
  Si  Si135  1  0.35774822  0.83283710  0.11246720  1
  Si  Si136  1  0.35594836  0.16725256  0.61485523  1
  Si  Si137  1  0.13848949  0.58356436  0.38464404  1
  Si  Si138  1  0.69716423  0.83464461  0.61557382  1
  Si  Si139  1  0.53408336  0.58054733  0.61446414  1
  Si  Si140  1  0.85764335  0.08266577  0.11429962  1
  Si  Si141  1  0.69441776  0.67131730  0.61535631  1
  Si  Si142  1  0.69046635  0.83383687  0.11213679  1
  Si  Si143  1  0.47119203  0.91697560  0.88477337  1
  Si  Si144  1  0.52333784  0.09000532  0.61499658  1
  Si  Si145  1  0.97616463  0.33835137  0.38482396  1
  Si  Si146  1  0.19147959  0.41741941  0.11233717  1
  Si  Si147  1  0.98079976  0.66833965  0.88757497  1
  Si  Si148  1  0.63792034  0.15905759  0.89257377  1
  Si  Si149  1  0.81278971  0.91098171  0.89106343  1
  Si  Si150  1  0.85761032  0.91658038  0.11310919  1
  Si  Si151  1  0.98459304  0.33488923  0.89137860  1
  Si  Si152  1  0.85873471  0.58397886  0.11198482  1
  Si  Si153  1  0.86096554  0.91194819  0.61861703  1
  Si  Si154  1  0.14524056  0.08506006  0.38669263  1
  Si  Si155  1  0.85852920  0.41826593  0.61309708  1
  Si  Si156  1  0.18421089  0.42045608  0.61270267  1
  Si  Si157  1  0.53326803  0.41371359  0.61262715  1
  Si  Si158  1  0.69292026  0.16554962  0.62097262  1
  Si  Si159  1  0.80482495  0.58280427  0.38140859  1
  Si  Si160  1  0.30725218  0.16438664  0.88424368  1
  Si  Si161  1  0.02513949  0.66759326  0.11268030  1
  Si  Si162  1  0.02446404  0.83381355  0.11273793  1
  Si  Si163  1  0.97362349  0.66168336  0.38533118  1
  Si  Si164  1  0.80794394  0.41796107  0.38256372  1
  Si  Si165  1  0.64167530  0.83550843  0.88602033  1
  Si  Si166  1  0.81077282  0.59204206  0.89103651  1
  Si  Si167  1  0.85848415  0.41661537  0.11288318  1
  Si  Si168  1  0.98017603  0.83144986  0.88819817  1
  Si  Si169  1  0.30686831  0.32966458  0.88807845  1
  Si  Si170  1  0.69112695  0.66651626  0.11118985  1
  Si  Si171  1  0.35931833  0.66563294  0.11151961  1
  Si  Si172  1  0.14427425  0.08170980  0.88626586  1
  Si  Si173  1  0.47074468  0.07962738  0.88567941  1
  Si  Si174  1  0.35746639  0.33306665  0.11258436  1
  Si  Si175  1  0.63634589  0.82944554  0.38347314  1
  Si  Si176  1  0.52324299  0.91627127  0.11142030  1
  Si  Si177  1  0.52527355  0.41634697  0.11305789  1
  Si  Si178  1  0.80015956  0.08128512  0.38613279  1
  Si  Si179  1  0.64351929  0.66847304  0.38122770  1
  Si  Si180  1  0.69122145  0.16587982  0.11346379  1
  Si  Si181  1  0.19190806  0.91599911  0.11302140  1
  Si  Si182  1  0.30583055  0.83479907  0.88635795  1
  Si  Si183  1  0.64237952  0.17017624  0.38454027  1
  Si  Si184  1  0.02807575  0.83594180  0.61654191  1
  Si  Si185  1  0.02520805  0.16619560  0.11395033  1
  Si  Si186  1  0.69185627  0.33260831  0.11357986  1
  Si  Si187  1  0.02227941  0.33657639  0.61318863  1
  Si  Si188  1  0.19148581  0.08285100  0.11380373  1
  Si  Si189  1  0.85558512  0.07524697  0.61644781  1
  Si  Si190  1  0.19421712  0.08543716  0.61471636  1
  Si  Si191  1  0.02509844  0.33284292  0.11298269  1
  O  O192  1  0.26789797  0.12437687  0.08362299  1
  O  O193  1  0.28292234  0.10648795  0.58741412  1
  O  O194  1  0.26787697  0.62532501  0.08149837  1
  O  O195  1  0.27054093  0.59084389  0.58118205  1
  O  O196  1  0.60163247  0.12424672  0.08395394  1
  O  O197  1  0.60400263  0.12667318  0.58667450  1
  O  O198  1  0.60214716  0.62432662  0.08225124  1
  O  O199  1  0.61669667  0.61594324  0.58827272  1
  O  O200  1  0.93595500  0.12349015  0.08698476  1
  O  O201  1  0.92638190  0.10667415  0.57691659  1
  O  O202  1  0.93524091  0.62562392  0.08283403  1
  O  O203  1  0.95449536  0.62007919  0.57707657  1
  O  O204  1  0.10199415  0.37500197  0.08428533  1
  O  O205  1  0.10289879  0.36941815  0.58161942  1
  O  O206  1  0.10135724  0.87479837  0.08287771  1
  O  O207  1  0.10517025  0.87062291  0.58583071  1
  O  O208  1  0.43503696  0.37515030  0.08521412  1
  O  O209  1  0.44913483  0.37257458  0.57650609  1
  O  O210  1  0.43440216  0.87378228  0.08073044  1
  O  O211  1  0.44834388  0.85556151  0.57269744  1
  O  O212  1  0.76918440  0.37492926  0.08670736  1
  O  O213  1  0.77800090  0.36274883  0.58998925  1
  O  O214  1  0.76807694  0.87409074  0.08294521  1
  O  O215  1  0.78892411  0.85114907  0.59155754  1
  O  O216  1  0.26865861  0.37641605  0.08320686  1
  O  O217  1  0.26121542  0.39921047  0.57453278  1
  O  O218  1  0.26679438  0.87341169  0.08152751  1
  O  O219  1  0.26258124  0.89554406  0.57299746  1
  O  O220  1  0.60262240  0.37458682  0.08596134  1
  O  O221  1  0.61381474  0.37620746  0.58431859  1
  O  O222  1  0.60081007  0.87483183  0.08175454  1
  O  O223  1  0.63193261  0.89322908  0.57982769  1
  O  O224  1  0.93666538  0.37643439  0.08524464  1
  O  O225  1  0.93897739  0.38717552  0.58138221  1
  O  O226  1  0.93370725  0.87467303  0.08305427  1
  O  O227  1  0.94413064  0.88450332  0.58865592  1
  O  O228  1  0.10127410  0.12392405  0.08429693  1
  O  O229  1  0.11956905  0.13635775  0.57505380  1
  O  O230  1  0.10178494  0.62669646  0.08241195  1
  O  O231  1  0.11828494  0.64384481  0.58910339  1
  O  O232  1  0.43406053  0.12503990  0.08375164  1
  O  O233  1  0.44311768  0.14339454  0.58760806  1
  O  O234  1  0.43566831  0.62526555  0.07925930  1
  O  O235  1  0.45232871  0.62313021  0.57779476  1
  O  O236  1  0.76803884  0.12397031  0.08524171  1
  O  O237  1  0.76662665  0.12063675  0.59133747  1
  O  O238  1  0.76947703  0.62648317  0.08269005  1
  O  O239  1  0.77302593  0.64984017  0.57954758  1
  O  O240  1  0.05978618  0.10041730  0.41648818  1
  O  O241  1  0.07499554  0.12393176  0.92287003  1
  O  O242  1  0.04580483  0.59896222  0.40731857  1
  O  O243  1  0.06460964  0.61896884  0.91773288  1
  O  O244  1  0.37479445  0.11839877  0.42085964  1
  O  O245  1  0.39691344  0.12370452  0.91681471  1
  O  O246  1  0.40118795  0.60154187  0.41828192  1
  O  O247  1  0.39931805  0.63821799  0.91580117  1
  O  O248  1  0.71158845  0.10648064  0.40986253  1
  O  O249  1  0.72294895  0.11596732  0.92625064  1
  O  O250  1  0.72154086  0.61240276  0.40880297  1
  O  O251  1  0.73310820  0.63595441  0.91938095  1
  O  O252  1  0.21396778  0.36183196  0.40872215  1
  O  O253  1  0.22909635  0.37171649  0.91679310  1
  O  O254  1  0.21749369  0.84080443  0.41358243  1
  O  O255  1  0.23213097  0.87664548  0.91956100  1
  O  O256  1  0.56870651  0.34766603  0.41958620  1
  O  O257  1  0.56772865  0.37789037  0.93880694  1
  O  O258  1  0.55354894  0.84039689  0.41541030  1
  O  O259  1  0.56399121  0.87792823  0.91423316  1
  O  O260  1  0.89269374  0.37200428  0.41107058  1
  O  O261  1  0.91571394  0.36887257  0.93185887  1
  O  O262  1  0.86747109  0.85860386  0.41950927  1
  O  O263  1  0.89655235  0.85782021  0.91796487  1
  O  O264  1  0.05245701  0.39745781  0.40820844  1
  O  O265  1  0.07298042  0.37994788  0.92326210  1
  O  O266  1  0.04841837  0.90193144  0.42845344  1
  O  O267  1  0.06433964  0.87893828  0.92044683  1
  O  O268  1  0.37729143  0.39183576  0.41689214  1
  O  O269  1  0.38993758  0.36819669  0.92952650  1
  O  O270  1  0.36835685  0.90135838  0.41427781  1
  O  O271  1  0.39877660  0.87066308  0.91721420  1
  O  O272  1  0.72682278  0.38665605  0.41121084  1
  O  O273  1  0.74034828  0.37688517  0.93918130  1
  O  O274  1  0.70752221  0.89154143  0.40917892  1
  O  O275  1  0.73249122  0.87231346  0.92061057  1
  O  O276  1  0.21000701  0.15440513  0.40740188  1
  O  O277  1  0.23628557  0.11880623  0.91776810  1
  O  O278  1  0.20874193  0.63909034  0.41868767  1
  O  O279  1  0.23112035  0.62746531  0.91784687  1
  O  O280  1  0.55935584  0.16178231  0.41714094  1
  O  O281  1  0.56026496  0.11515592  0.92119111  1
  O  O282  1  0.55963445  0.64494661  0.41016855  1
  O  O283  1  0.56465445  0.63132747  0.91726732  1
  O  O284  1  0.87403380  0.13482598  0.41948589  1
  O  O285  1  0.91532815  0.13299606  0.93419883  1
  O  O286  1  0.88659584  0.63210649  0.41028544  1
  O  O287  1  0.89754930  0.64187726  0.91729517  1
  O  O288  1  0.18516590  -0.00025045  0.08385813  1
  O  O289  1  0.16532870  0.00350155  0.58711607  1
  O  O290  1  0.18336938  0.50039952  0.08229816  1
  O  O291  1  0.14644029  0.50237930  0.58994850  1
  O  O292  1  0.51631433  -0.00005475  0.08272829  1
  O  O293  1  0.50318187  0.01438235  0.57701997  1
  O  O294  1  0.51788548  0.49930616  0.08366122  1
  O  O295  1  0.53082449  0.49760657  0.58506086  1
  O  O296  1  0.85069149  -0.00029171  0.08436527  1
  O  O297  1  0.83268945  -0.00891160  0.58782159  1
  O  O298  1  0.85221585  0.50029576  0.08501834  1
  O  O299  1  0.83167534  0.49366200  0.57368996  1
  O  O300  1  0.01878266  0.24958586  0.08495690  1
  O  O301  1  0.00131141  0.25845455  0.57920022  1
  O  O302  1  0.01723284  0.75044364  0.08233199  1
  O  O303  1  0.01191778  0.75359850  0.58747963  1
  O  O304  1  0.34974052  0.25023946  0.08257037  1
  O  O305  1  0.32697537  0.24272877  0.57667611  1
  O  O306  1  0.35106863  0.74928920  0.08224402  1
  O  O307  1  0.31918484  0.74335420  0.56763658  1
  O  O308  1  0.68506118  0.24938312  0.08607139  1
  O  O309  1  0.68776213  0.24667498  0.58703468  1
  O  O310  1  0.68454171  0.75016912  0.08278274  1
  O  O311  1  0.66614497  0.75328382  0.58960917  1
  O  O312  1  0.19068848  0.01124842  0.41467294  1
  O  O313  1  0.15023284  -0.00128860  0.91839519  1
  O  O314  1  0.16533441  0.50034426  0.40958117  1
  O  O315  1  0.15749220  0.50098051  0.91840145  1
  O  O316  1  0.52058187  0.00294282  0.42400153  1
  O  O317  1  0.47255653  -0.00265305  0.91941251  1
  O  O318  1  0.52475967  0.50669663  0.41488902  1
  O  O319  1  0.47546441  0.51444013  0.92859077  1
  O  O320  1  0.81810108  -0.00205280  0.41208662  1
  O  O321  1  0.83193002  -0.01338823  0.92851049  1
  O  O322  1  0.82388270  0.50084374  0.40945151  1
  O  O323  1  0.82676750  0.51723992  0.93024322  1
  O  O324  1  0.32512706  0.25514298  0.41092704  1
  O  O325  1  0.30864977  0.24552321  0.91780263  1
  O  O326  1  0.35241330  0.75831266  0.41272433  1
  O  O327  1  0.30690676  0.75245517  0.91790528  1
  O  O328  1  0.68771550  0.24885594  0.40615629  1
  O  O329  1  0.64104637  0.23736370  0.92771135  1
  O  O330  1  0.67682407  0.74864739  0.40656564  1
  O  O331  1  0.64308347  0.75342654  0.91787771  1
  O  O332  1  1.00246256  0.26206208  0.41819265  1
  O  O333  1  1.00232020  0.25034243  0.91663561  1
  O  O334  1  0.99920785  0.73704928  0.42104533  1
  O  O335  1  1.00279394  0.74964873  0.91834145  1
  O  O336  1  0.20909617  0.08474669  0.19387740  1
  O  O337  1  0.20989883  0.08737153  0.69398523  1
  O  O338  1  0.20757699  0.58281049  0.19115626  1
  O  O339  1  0.20864593  0.58318232  0.69660353  1
  O  O340  1  0.54286586  0.08386769  0.19246979  1
  O  O341  1  0.54269700  0.08523568  0.69591349  1
  O  O342  1  0.54317510  0.58339884  0.19132359  1
  O  O343  1  0.54619378  0.58138147  0.69565364  1
  O  O344  1  0.87345190  0.08178098  0.19443464  1
  O  O345  1  0.88161007  0.07230051  0.69564896  1
  O  O346  1  0.87577103  0.58453172  0.19247673  1
  O  O347  1  0.87947830  0.58561341  0.70329581  1
  O  O348  1  0.04290366  0.33419671  0.19350096  1
  O  O349  1  0.04242531  0.34178791  0.69208947  1
  O  O350  1  0.03978403  0.83308025  0.19217221  1
  O  O351  1  0.04478752  0.83332832  0.69715757  1
  O  O352  1  0.37395994  0.33261020  0.19272645  1
  O  O353  1  0.37723225  0.33278469  0.69952321  1
  O  O354  1  0.37674184  0.83543409  0.19122764  1
  O  O355  1  0.36265387  0.83279214  0.69669013  1
  O  O356  1  0.70995838  0.33333850  0.19427674  1
  O  O357  1  0.70316616  0.32972956  0.69710347  1
  O  O358  1  0.70817484  0.83340977  0.19233981  1
  O  O359  1  0.71344096  0.83392751  0.69702227  1
  O  O360  1  0.20949662  0.41770416  0.19264866  1
  O  O361  1  0.21184518  0.42009616  0.69265950  1
  O  O362  1  0.20984413  0.91673442  0.19251039  1
  O  O363  1  0.20909399  0.91521515  0.69297225  1
  O  O364  1  0.54435641  0.41678138  0.19335937  1
  O  O365  1  0.54628266  0.41612905  0.69312773  1
  O  O366  1  0.54323919  0.91583697  0.19120635  1
  O  O367  1  0.55122104  0.92452592  0.69880222  1
  O  O368  1  0.87691017  0.41734897  0.19355145  1
  O  O369  1  0.88204318  0.42629715  0.69235545  1
  O  O370  1  0.87273583  0.91672712  0.19309303  1
  O  O371  1  0.87964725  0.91281373  0.69932890  1
  O  O372  1  0.04465737  0.16741216  0.19409364  1
  O  O373  1  0.04915479  0.15691547  0.69901143  1
  O  O374  1  0.04068538  0.66647535  0.19270067  1
  O  O375  1  0.04389795  0.66770532  0.69501513  1
  O  O376  1  0.37422917  0.16922818  0.19250839  1
  O  O377  1  0.37737103  0.17094847  0.69478866  1
  O  O378  1  0.38089338  0.66026481  0.19019442  1
  O  O379  1  0.37725196  0.66479095  0.70163208  1
  O  O380  1  0.70886715  0.16574957  0.19410009  1
  O  O381  1  0.70263994  0.16646334  0.69994116  1
  O  O382  1  0.70931359  0.66616952  0.19146052  1
  O  O383  1  0.71405654  0.66801892  0.69668621  1
  O  O384  1  0.12328492  0.08475386  0.30383830  1
  O  O385  1  0.12406414  0.08136630  0.80790678  1
  O  O386  1  0.12191529  0.58380916  0.30257091  1
  O  O387  1  0.12473526  0.58506859  0.80702491  1
  O  O388  1  0.45400055  0.08578012  0.29780553  1
  O  O389  1  0.45837287  0.08030977  0.80675124  1
  O  O390  1  0.46186003  0.58362983  0.30441997  1
  O  O391  1  0.45814016  0.58297117  0.80867478  1
  O  O392  1  0.78650254  0.08261175  0.30413867  1
  O  O393  1  0.78852808  0.07784663  0.80275294  1
  O  O394  1  0.78813616  0.58293105  0.30023171  1
  O  O395  1  0.79052926  0.58944410  0.81074108  1
  O  O396  1  0.28775220  0.33627986  0.30293478  1
  O  O397  1  0.29582375  0.33293437  0.80910339  1
  O  O398  1  0.28754009  0.83603886  0.30414950  1
  O  O399  1  0.28743238  0.83241184  0.80731013  1
  O  O400  1  0.62612415  0.33395920  0.30360413  1
  O  O401  1  0.61966795  0.33490550  0.80317137  1
  O  O402  1  0.62087260  0.83136857  0.30143885  1
  O  O403  1  0.63333137  0.83239942  0.80753649  1
  O  O404  1  0.95606297  0.33616538  0.30295574  1
  O  O405  1  0.96529936  0.34334249  0.81340961  1
  O  O406  1  0.95207682  0.83298113  0.29861061  1
  O  O407  1  0.96074960  0.83147439  0.80823924  1
  O  O408  1  0.12209400  0.41889511  0.30051656  1
  O  O409  1  0.12329297  0.42282136  0.80739571  1
  O  O410  1  0.12008820  0.91686652  0.29761767  1
  O  O411  1  0.12156404  0.90900482  0.80899128  1
  O  O412  1  0.45647312  0.41608073  0.29756973  1
  O  O413  1  0.45553091  0.41859499  0.80054255  1
  O  O414  1  0.45520106  0.91690491  0.29722524  1
  O  O415  1  0.45165322  0.92067031  0.80658341  1
  O  O416  1  0.78992253  0.41756186  0.30136780  1
  O  O417  1  0.78619716  0.42614266  0.80466727  1
  O  O418  1  0.78480897  0.91545299  0.30389355  1
  O  O419  1  0.79380751  0.91258972  0.81062018  1
  O  O420  1  0.28887380  0.16931821  0.30386710  1
  O  O421  1  0.29094329  0.16630639  0.80575242  1
  O  O422  1  0.28678847  0.66408433  0.29739362  1
  O  O423  1  0.28597466  0.66711117  0.80659848  1
  O  O424  1  0.62276832  0.16750277  0.30244934  1
  O  O425  1  0.61912553  0.16140655  0.81182025  1
  O  O426  1  0.62451536  0.66572348  0.29999418  1
  O  O427  1  0.62517623  0.66765897  0.80694309  1
  O  O428  1  0.95329294  0.16779029  0.29777708  1
  O  O429  1  0.95811428  0.15398938  0.81392279  1
  O  O430  1  0.95389419  0.66547146  0.30335626  1
  O  O431  1  0.96266948  0.66888353  0.80773416  1
  F  F432  1  0.04122812  0.00284774  0.19965993  1
  F  F433  1  0.04175263  -0.00338098  0.70422283  1
  F  F434  1  0.04376569  0.50128756  0.19867477  1
  F  F435  1  0.04621601  0.50336043  0.70458304  1
  F  F436  1  0.37452472  0.00206957  0.19599925  1
  F  F437  1  0.37993086  -0.00229061  0.69907217  1
  F  F438  1  0.37753032  0.50159049  0.19898788  1
  F  F439  1  0.37874088  0.50187170  0.70222885  1
  F  F440  1  0.71003012  -0.00072959  0.20001345  1
  F  F441  1  0.71458525  -0.00280879  0.70496282  1
  F  F442  1  0.71173852  0.49971790  0.19741184  1
  F  F443  1  0.71256163  0.50376702  0.70265154  1
  F  F444  1  0.21086464  0.25115468  0.20020538  1
  F  F445  1  0.21278604  0.24824164  0.70107943  1
  F  F446  1  0.19757462  0.75243871  0.19421553  1
  F  F447  1  0.20934398  0.74958052  0.70413699  1
  F  F448  1  0.54454369  0.25079184  0.20035365  1
  F  F449  1  0.54497330  0.24699721  0.70710798  1
  F  F450  1  0.54528845  0.74906995  0.19620647  1
  F  F451  1  0.55173913  0.73797184  0.69973934  1
  F  F452  1  0.87678218  0.25232847  0.19807348  1
  F  F453  1  0.86477133  0.23290305  0.69121635  1
  F  F454  1  0.87484174  0.74829092  0.19740336  1
  F  F455  1  0.88171412  0.75054138  0.70599194  1
  F  F456  1  0.28676152  0.00123512  0.29296006  1
  F  F457  1  0.28831837  -0.00697853  0.80326284  1
  F  F458  1  0.28721471  0.50050667  0.29405752  1
  F  F459  1  0.28793737  0.50111348  0.79937909  1
  F  F460  1  0.61928280  -0.00005257  0.29350771  1
  F  F461  1  0.62277347  -0.00038592  0.80313656  1
  F  F462  1  0.62386987  0.50063915  0.29342300  1
  F  F463  1  0.62107439  0.50241850  0.79940050  1
  F  F464  1  0.95079869  -0.00009840  0.29592211  1
  F  F465  1  0.95651676  -0.00660975  0.80489579  1
  F  F466  1  0.95295474  0.50091696  0.29394931  1
  F  F467  1  0.95843262  0.50313504  0.80326095  1
  F  F468  1  0.12029138  0.25295058  0.29470990  1
  F  F469  1  0.13612245  0.24489372  0.80790548  1
  F  F470  1  0.11700629  0.74843675  0.29522208  1
  F  F471  1  0.12256426  0.74884531  0.79994397  1
  F  F472  1  0.45365642  0.25150988  0.29484986  1
  F  F473  1  0.45396046  0.24766797  0.80274442  1
  F  F474  1  0.45902450  0.74826154  0.29401845  1
  F  F475  1  0.45279235  0.74108170  0.80645696  1
  F  F476  1  0.78846960  0.25094176  0.29454179  1
  F  F477  1  0.77695658  0.24577374  0.82006080  1
  F  F478  1  0.78509340  0.74850568  0.29338452  1
  F  F479  1  0.79033085  0.74977952  0.80041504  1
