# generated using pymatgen
data_K24Na3Li5Mg64Fe17Si79(O5F)48
_symmetry_space_group_name_H-M   'P 1'
_cell_length_a   16.11823271
_cell_length_b   18.59471226
_cell_length_c   20.56974614
_cell_angle_alpha   89.97755482
_cell_angle_beta   100.00232990
_cell_angle_gamma   90.03527580
_symmetry_Int_Tables_number   1
_chemical_formula_structural   K24Na3Li5Mg64Fe17Si79(O5F)48
_chemical_formula_sum   'K24 Na3 Li5 Mg64 Fe17 Si79 O240 F48'
_cell_volume   6071.33308980
_cell_formula_units_Z   1
loop_
 _symmetry_equiv_pos_site_id
 _symmetry_equiv_pos_as_xyz
  1  'x, y, z'
loop_
 _atom_site_type_symbol
 _atom_site_label
 _atom_site_symmetry_multiplicity
 _atom_site_fract_x
 _atom_site_fract_y
 _atom_site_fract_z
 _atom_site_occupancy
  K  K0  1  -0.00766452  0.00487034  -0.00620266  1
  K  K1  1  -0.01264016  0.00205506  0.50635151  1
  K  K2  1  -0.00523044  0.50165118  -0.00924951  1
  K  K3  1  0.00683822  0.50684251  0.50958606  1
  K  K4  1  0.34324560  -0.00390902  -0.00825146  1
  K  K5  1  0.34368465  0.00069611  0.50386670  1
  K  K6  1  0.34407007  0.49362805  -0.01395256  1
  K  K7  1  0.34131140  0.49625418  0.51681958  1
  K  K8  1  0.65227790  0.00408574  -0.00074709  1
  K  K9  1  0.67094521  -0.00129410  0.49787492  1
  K  K10  1  0.67133052  0.49799293  -0.00081182  1
  K  K11  1  0.65191210  0.50334370  0.49527110  1
  K  K12  1  0.16966215  0.26090877  -0.00948580  1
  K  K13  1  0.17270390  0.25646705  0.50831298  1
  K  K14  1  0.16639207  0.74707951  -0.01547184  1
  K  K15  1  0.16593594  0.74019666  0.51195085  1
  K  K16  1  0.50815072  0.24633864  0.00316563  1
  K  K17  1  0.50129553  0.25927248  0.49677567  1
  K  K18  1  0.49407719  0.74453602  -0.00647683  1
  K  K19  1  0.51903426  0.74590403  0.50320170  1
  K  K20  1  0.82062126  0.25413115  0.00085213  1
  K  K21  1  0.83032229  0.24857768  0.49801858  1
  K  K22  1  0.82811586  0.74692820  -0.00339714  1
  K  K23  1  0.83016567  0.74909544  0.50660911  1
  Na  Na24  1  0.83320044  -0.00118725  0.25529262  1
  Na  Na25  1  0.49708661  0.66653964  0.75480036  1
  Na  Na26  1  0.49957403  0.17042055  0.24689331  1
  Li  Li27  1  0.82230395  0.50167570  0.25047868  1
  Li  Li28  1  0.00125555  0.74582488  0.75186402  1
  Li  Li29  1  0.33245634  0.57422167  0.74821956  1
  Li  Li30  1  0.33613275  0.42131493  0.74269535  1
  Li  Li31  1  0.67135208  0.58060229  0.25833748  1
  Mg  Mg32  1  0.49387574  0.49858496  0.74777392  1
  Mg  Mg33  1  0.66506260  0.74644767  0.25458513  1
  Mg  Mg34  1  0.33290563  0.74476377  0.75088761  1
  Mg  Mg35  1  0.16632569  -0.00258955  0.74991671  1
  Mg  Mg36  1  0.66684850  0.25135203  0.24800592  1
  Mg  Mg37  1  0.50166908  0.50160805  0.25394431  1
  Mg  Mg38  1  -0.00366868  0.74814957  0.25025609  1
  Mg  Mg39  1  0.66718164  0.25186918  0.75040688  1
  Mg  Mg40  1  0.33310324  0.25192726  0.24919110  1
  Mg  Mg41  1  0.17248488  0.49978199  0.74734712  1
  Mg  Mg42  1  0.50072245  0.00025838  0.75126941  1
  Mg  Mg43  1  0.00055838  0.25143593  0.74912867  1
  Mg  Mg44  1  0.33396000  0.25158350  0.74728743  1
  Mg  Mg45  1  0.33206126  0.75037379  0.25104957  1
  Mg  Mg46  1  0.50100136  0.00026392  0.25028455  1
  Mg  Mg47  1  0.66830639  0.74807992  0.75263034  1
  Mg  Mg48  1  0.83707474  -0.00042196  0.74693179  1
  Mg  Mg49  1  0.16472910  0.50091591  0.24926902  1
  Mg  Mg50  1  0.16412800  0.00041950  0.24793941  1
  Mg  Mg51  1  -0.00134343  0.25089820  0.24866466  1
  Mg  Mg52  1  0.83361964  0.50068263  0.75528599  1
  Mg  Mg53  1  0.66881338  0.08476359  0.74857108  1
  Mg  Mg54  1  0.83632634  0.33588178  0.75302603  1
  Mg  Mg55  1  0.16309107  0.83100050  0.75151618  1
  Mg  Mg56  1  0.66603450  0.08343617  0.24858174  1
  Mg  Mg57  1  0.33528459  0.08302052  0.74962192  1
  Mg  Mg58  1  0.83046010  0.33782720  0.24598068  1
  Mg  Mg59  1  0.00043180  0.91311951  0.74988377  1
  Mg  Mg60  1  -0.00318800  0.91544142  0.25001424  1
  Mg  Mg61  1  0.16552237  0.33503350  0.24971808  1
  Mg  Mg62  1  0.83934593  0.83260377  0.75032807  1
  Mg  Mg63  1  0.16597598  0.16625323  0.24765987  1
  Mg  Mg64  1  0.50506378  0.66468752  0.25737558  1
  Mg  Mg65  1  0.16786771  0.66417569  0.75037863  1
  Mg  Mg66  1  0.50238038  0.83287892  0.25431461  1
  Mg  Mg67  1  0.83084003  0.83116487  0.25194750  1
  Mg  Mg68  1  0.33488401  0.41704359  0.25240875  1
  Mg  Mg69  1  0.33391982  0.58469045  0.25393554  1
  Mg  Mg70  1  0.16412508  0.66671098  0.24937308  1
  Mg  Mg71  1  -0.00178893  0.08395359  0.25079070  1
  Mg  Mg72  1  0.50013568  0.16492687  0.74889068  1
  Mg  Mg73  1  0.33359942  0.91712436  0.25095490  1
  Mg  Mg74  1  0.33418570  0.91322542  0.75214006  1
  Mg  Mg75  1  0.00203295  0.41600898  0.75212571  1
  Mg  Mg76  1  0.50212155  0.33758949  0.25151808  1
  Mg  Mg77  1  0.16415143  0.83468435  0.24869607  1
  Mg  Mg78  1  0.49739361  0.33475612  0.74885034  1
  Mg  Mg79  1  -0.00408258  0.41854152  0.24757809  1
  Mg  Mg80  1  0.66878557  0.41996334  0.25011854  1
  Mg  Mg81  1  0.17025545  0.33665647  0.74560701  1
  Mg  Mg82  1  -0.00523274  0.58234416  0.25020742  1
  Mg  Mg83  1  0.50121216  0.83283644  0.75066489  1
  Mg  Mg84  1  -0.00070957  0.08360839  0.74681280  1
  Mg  Mg85  1  0.33373593  0.08544395  0.24564791  1
  Mg  Mg86  1  0.66735765  0.91400607  0.25384805  1
  Mg  Mg87  1  0.00225359  0.58608709  0.75146019  1
  Mg  Mg88  1  0.16763749  0.16613828  0.74796903  1
  Mg  Mg89  1  0.83759440  0.66599428  0.75384208  1
  Mg  Mg90  1  0.66952008  0.91523688  0.74912501  1
  Mg  Mg91  1  0.83514554  0.16612911  0.74766217  1
  Mg  Mg92  1  0.66764552  0.58362168  0.75674351  1
  Mg  Mg93  1  0.83042262  0.16664685  0.24651857  1
  Mg  Mg94  1  0.82750297  0.65974788  0.25363558  1
  Mg  Mg95  1  0.66843379  0.41780826  0.75335818  1
  Fe  Fe96  1  0.64576107  0.83731617  0.39461417  1
  Fe  Fe97  1  0.36025671  0.32769834  0.60766899  1
  Fe  Fe98  1  0.14497789  0.92080759  0.89016875  1
  Fe  Fe99  1  0.81291121  0.08746725  0.38887525  1
  Fe  Fe100  1  0.80679035  0.41297150  0.89456459  1
  Fe  Fe101  1  0.80919854  0.58712899  0.89608850  1
  Fe  Fe102  1  0.85400254  0.08944963  0.60663685  1
  Fe  Fe103  1  0.47550558  0.57811273  0.88925983  1
  Fe  Fe104  1  0.85690651  0.91506669  0.60766016  1
  Fe  Fe105  1  0.47204850  0.08444479  0.88882586  1
  Fe  Fe106  1  0.68997252  0.33645174  0.10793529  1
  Fe  Fe107  1  0.19653462  0.58707192  0.60845562  1
  Fe  Fe108  1  0.47316018  0.41480664  0.39136848  1
  Fe  Fe109  1  0.98108443  0.67264763  0.89205178  1
  Fe  Fe110  1  0.52150921  0.07882106  0.10958442  1
  Fe  Fe111  1  0.98022602  0.32945453  0.89209591  1
  Fe  Fe112  1  0.64879923  0.66234650  0.39496589  1
  Si  Si113  1  0.03144439  0.16735623  0.61122112  1
  Si  Si114  1  0.64394957  0.83518181  0.88592862  1
  Si  Si115  1  0.53073539  0.91683189  0.61572750  1
  Si  Si116  1  0.85838582  0.58577973  0.11689597  1
  Si  Si117  1  0.64182288  0.16578399  0.38590349  1
  Si  Si118  1  0.46761141  0.58719110  0.39311946  1
  Si  Si119  1  0.14446175  0.08585794  0.88315346  1
  Si  Si120  1  0.68653380  0.17707175  0.61191025  1
  Si  Si121  1  0.30176661  0.67168280  0.38580949  1
  Si  Si122  1  0.86278762  0.08212318  0.11419198  1
  Si  Si123  1  0.30294106  0.16376352  0.38321645  1
  Si  Si124  1  0.46897623  0.92029002  0.38889514  1
  Si  Si125  1  0.69086398  0.66527372  0.11749955  1
  Si  Si126  1  0.69226168  0.66069790  0.61872226  1
  Si  Si127  1  0.52019914  0.42224642  0.11257786  1
  Si  Si128  1  0.31015230  0.82842327  0.88726445  1
  Si  Si129  1  0.51976732  0.58729993  0.11815666  1
  Si  Si130  1  0.02848335  0.83259573  0.61262864  1
  Si  Si131  1  0.02439225  0.16631455  0.11284241  1
  Si  Si132  1  0.19004329  0.08469699  0.11155609  1
  Si  Si133  1  0.30756256  0.66403429  0.88664168  1
  Si  Si134  1  0.85882439  0.58150758  0.61573327  1
  Si  Si135  1  0.35945918  0.15701023  0.60969558  1
  Si  Si136  1  0.29899646  0.32956768  0.38623080  1
  Si  Si137  1  0.85941829  0.41603623  0.61463915  1
  Si  Si138  1  0.35440233  0.33785156  0.11357743  1
  Si  Si139  1  0.14425472  0.58206871  0.88680511  1
  Si  Si140  1  0.36295688  0.83840120  0.61351992  1
  Si  Si141  1  0.52167227  0.90821815  0.11359909  1
  Si  Si142  1  0.35061864  0.17208597  0.11007684  1
  Si  Si143  1  0.63554933  0.33087592  0.88479606  1
  Si  Si144  1  0.81504981  0.91564487  0.38867977  1
  Si  Si145  1  0.64632283  0.33261434  0.38898544  1
  Si  Si146  1  0.97910403  0.33571611  0.38270632  1
  Si  Si147  1  0.30196357  0.83734914  0.38500659  1
  Si  Si148  1  0.86464874  0.41974355  0.11186963  1
  Si  Si149  1  0.64173002  0.67120122  0.89157550  1
  Si  Si150  1  0.97440951  0.66234677  0.38670649  1
  Si  Si151  1  0.80583599  0.91858129  0.88546025  1
  Si  Si152  1  0.30197965  0.17083775  0.88396256  1
  Si  Si153  1  0.52748012  0.58341620  0.61814712  1
  Si  Si154  1  0.18819741  0.58334627  0.11533951  1
  Si  Si155  1  0.02533728  0.83444892  0.11372715  1
  Si  Si156  1  0.97481938  0.84317835  0.89117828  1
  Si  Si157  1  0.98014070  0.16109205  0.88553641  1
  Si  Si158  1  0.53089542  0.08156483  0.61351191  1
  Si  Si159  1  0.19176259  0.91818619  0.11402131  1
  Si  Si160  1  0.69129500  0.34054401  0.61632246  1
  Si  Si161  1  0.35501188  0.83032056  0.11648548  1
  Si  Si162  1  0.81402809  0.41135827  0.38541503  1
  Si  Si163  1  0.02332263  0.66604388  0.61229135  1
  Si  Si164  1  0.19350465  0.07833649  0.61434510  1
  Si  Si165  1  0.46984907  0.08575467  0.38345192  1
  Si  Si166  1  0.36349774  0.67388585  0.61009136  1
  Si  Si167  1  0.64592417  0.16706264  0.88539972  1
  Si  Si168  1  0.81434416  0.57473326  0.39060828  1
  Si  Si169  1  0.14758603  0.41903004  0.88532225  1
  Si  Si170  1  0.80991958  0.08371139  0.88374580  1
  Si  Si171  1  0.47677765  0.41018777  0.88517083  1
  Si  Si172  1  0.19393225  0.91305053  0.61452243  1
  Si  Si173  1  0.97341075  0.82729623  0.38612969  1
  Si  Si174  1  0.69086876  0.82582936  0.61536387  1
  Si  Si175  1  0.52786593  0.42024945  0.61384280  1
  Si  Si176  1  0.13892354  0.42024766  0.38275560  1
  Si  Si177  1  0.13927183  0.08048715  0.38338250  1
  Si  Si178  1  0.30782118  0.33329914  0.88072547  1
  Si  Si179  1  0.02716888  0.33311407  0.11384573  1
  Si  Si180  1  0.69262957  0.82991047  0.11543580  1
  Si  Si181  1  0.69365736  0.16333830  0.10723843  1
  Si  Si182  1  0.02342577  0.66879907  0.11492913  1
  Si  Si183  1  0.85900528  0.91351189  0.11525832  1
  Si  Si184  1  0.98182500  0.17337450  0.38605288  1
  Si  Si185  1  0.47660153  0.91230708  0.88668420  1
  Si  Si186  1  0.14031321  0.58445289  0.38356831  1
  Si  Si187  1  0.13429978  0.91519655  0.38394070  1
  Si  Si188  1  0.35359600  0.66596355  0.11703823  1
  Si  Si189  1  0.18707909  0.41574563  0.60588490  1
  Si  Si190  1  0.19055569  0.41814739  0.11488259  1
  Si  Si191  1  0.02437106  0.33388372  0.61197158  1
  O  O192  1  0.26257192  0.12654063  0.08006018  1
  O  O193  1  0.27623946  0.10445668  0.58384457  1
  O  O194  1  0.26808694  0.61902230  0.08708349  1
  O  O195  1  0.28133396  0.63378650  0.56868719  1
  O  O196  1  0.61469261  0.11322168  0.07520574  1
  O  O197  1  0.60073898  0.12893231  0.58309929  1
  O  O198  1  0.59944268  0.62565206  0.09016883  1
  O  O199  1  0.60920033  0.61324727  0.58697380  1
  O  O200  1  0.94027679  0.11957777  0.08188663  1
  O  O201  1  0.95169053  0.12240303  0.57533602  1
  O  O202  1  0.93248238  0.63174287  0.08729567  1
  O  O203  1  0.93268998  0.62276255  0.58429045  1
  O  O204  1  0.10914376  0.36717766  0.08636283  1
  O  O205  1  0.09435673  0.37496007  0.57710674  1
  O  O206  1  0.10336141  0.87517280  0.08601265  1
  O  O207  1  0.11582975  0.85982214  0.58457328  1
  O  O208  1  0.43096389  0.37727881  0.08487794  1
  O  O209  1  0.45313476  0.36968901  0.57611183  1
  O  O210  1  0.43763521  0.85608216  0.08672299  1
  O  O211  1  0.43701302  0.88462768  0.58504097  1
  O  O212  1  0.78102807  0.37982182  0.07528733  1
  O  O213  1  0.77382795  0.36909868  0.58595636  1
  O  O214  1  0.76918396  0.87262774  0.08558579  1
  O  O215  1  0.76397691  0.85429911  0.57824109  1
  O  O216  1  0.26960147  0.38582645  0.08408456  1
  O  O217  1  0.25642574  0.37066146  0.57320472  1
  O  O218  1  0.27129674  0.87985193  0.08715007  1
  O  O219  1  0.27560799  0.88321290  0.58340169  1
  O  O220  1  0.59070830  0.38837828  0.07503259  1
  O  O221  1  0.61629881  0.39706740  0.58754822  1
  O  O222  1  0.60239874  0.86929645  0.08652201  1
  O  O223  1  0.60118762  0.86925774  0.58714017  1
  O  O224  1  0.94692821  0.38301127  0.08431622  1
  O  O225  1  0.93397346  0.37443468  0.58340298  1
  O  O226  1  0.93632004  0.87507191  0.08336034  1
  O  O227  1  0.95363796  0.88289620  0.57491996  1
  O  O228  1  0.10119889  0.12662057  0.08325824  1
  O  O229  1  0.11592245  0.13303364  0.58528572  1
  O  O230  1  0.10120648  0.62796526  0.08718553  1
  O  O231  1  0.09222851  0.63261613  0.57178524  1
  O  O232  1  0.42679219  0.13925309  0.07873381  1
  O  O233  1  0.43671386  0.11206343  0.58337524  1
  O  O234  1  0.43427544  0.63524618  0.08708611  1
  O  O235  1  0.44872856  0.63682418  0.58768896  1
  O  O236  1  0.77737671  0.12457987  0.08232276  1
  O  O237  1  0.76403727  0.15411168  0.57712992  1
  O  O238  1  0.76615040  0.62231088  0.08775410  1
  O  O239  1  0.77076345  0.62520250  0.58789008  1
  O  O240  1  0.06648030  0.12326182  0.41353347  1
  O  O241  1  0.05521165  0.10116559  0.90981034  1
  O  O242  1  0.05999316  0.61494017  0.41384717  1
  O  O243  1  0.06861041  0.60541988  0.92472710  1
  O  O244  1  0.39332204  0.12664968  0.41402831  1
  O  O245  1  0.37439384  0.11651341  0.91930507  1
  O  O246  1  0.38389309  0.62593027  0.41703338  1
  O  O247  1  0.38129418  0.61238563  0.92421788  1
  O  O248  1  0.71683172  0.11564915  0.42429717  1
  O  O249  1  0.73198657  0.11957898  0.91401113  1
  O  O250  1  0.73933048  0.59892935  0.42859057  1
  O  O251  1  0.71450542  0.61960653  0.93106692  1
  O  O252  1  0.21689894  0.36690743  0.41186718  1
  O  O253  1  0.23022243  0.36743174  0.91348802  1
  O  O254  1  0.22144805  0.87184418  0.41359100  1
  O  O255  1  0.23657069  0.85993880  0.92402398  1
  O  O256  1  0.57602300  0.36940472  0.42599034  1
  O  O257  1  0.54543974  0.34446575  0.91041563  1
  O  O258  1  0.54764883  0.87488646  0.42536874  1
  O  O259  1  0.56073353  0.86298288  0.91466978  1
  O  O260  1  0.89645369  0.35914453  0.41367722  1
  O  O261  1  0.88766961  0.34644213  0.93072750  1
  O  O262  1  0.89295434  0.85629734  0.41572318  1
  O  O263  1  0.88540987  0.86855159  0.91803642  1
  O  O264  1  0.05518961  0.39300173  0.41101258  1
  O  O265  1  0.07274560  0.39222426  0.92303569  1
  O  O266  1  0.05809135  0.87613426  0.41377750  1
  O  O267  1  0.04445588  0.90389996  0.92234394  1
  O  O268  1  0.38438821  0.36594500  0.42272666  1
  O  O269  1  0.39022977  0.38163445  0.91089061  1
  O  O270  1  0.38235438  0.88825938  0.41402503  1
  O  O271  1  0.39809885  0.87369714  0.91477263  1
  O  O272  1  0.73686512  0.37470067  0.41711245  1
  O  O273  1  0.70274544  0.38828317  0.92019534  1
  O  O274  1  0.73642787  0.89969867  0.42588467  1
  O  O275  1  0.72241978  0.89018811  0.91483869  1
  O  O276  1  0.23142190  0.11614410  0.41248123  1
  O  O277  1  0.21042526  0.15287966  0.90691764  1
  O  O278  1  0.21933585  0.63777308  0.41211214  1
  O  O279  1  0.22162944  0.63843138  0.91456432  1
  O  O280  1  0.55356261  0.13437113  0.40918307  1
  O  O281  1  0.57022626  0.13774260  0.92035393  1
  O  O282  1  0.54849313  0.63390899  0.42555143  1
  O  O283  1  0.55395633  0.65329805  0.91675796  1
  O  O284  1  0.90467121  0.15109945  0.42132846  1
  O  O285  1  0.89647330  0.12795640  0.91298752  1
  O  O286  1  0.90003618  0.62522218  0.41948687  1
  O  O287  1  0.89313261  0.64888645  0.93443750  1
  O  O288  1  0.18155765  0.00070554  0.08487869  1
  O  O289  1  0.17246296  -0.00415847  0.58562112  1
  O  O290  1  0.17319918  0.50078198  0.08715614  1
  O  O291  1  0.17894880  0.49445642  0.57094932  1
  O  O292  1  0.50185795  -0.01638545  0.07574555  1
  O  O293  1  0.53363473  -0.00122990  0.58509542  1
  O  O294  1  0.50238494  0.50650647  0.08622230  1
  O  O295  1  0.50805951  0.50292739  0.58532342  1
  O  O296  1  0.85475946  -0.00265201  0.08827841  1
  O  O297  1  0.82571880  0.00238104  0.56713059  1
  O  O298  1  0.86252211  0.50465733  0.08755632  1
  O  O299  1  0.85009185  0.49863294  0.58438232  1
  O  O300  1  0.01458547  0.24977559  0.08581350  1
  O  O301  1  0.02097250  0.25102879  0.58302184  1
  O  O302  1  0.02084914  0.75153073  0.08629366  1
  O  O303  1  0.00880819  0.74987462  0.58485040  1
  O  O304  1  0.33491890  0.25663382  0.08307846  1
  O  O305  1  0.34673362  0.23214267  0.57080070  1
  O  O306  1  0.33260098  0.74826066  0.08887959  1
  O  O307  1  0.36051689  0.75881486  0.57956036  1
  O  O308  1  0.68333397  0.24228371  0.07276570  1
  O  O309  1  0.66151327  0.26047144  0.58690236  1
  O  O310  1  0.68727059  0.74755148  0.08484643  1
  O  O311  1  0.67193398  0.74215889  0.58996535  1
  O  O312  1  0.14365039  -0.00224143  0.41218541  1
  O  O313  1  0.18516177  0.01354878  0.91841493  1
  O  O314  1  0.16110781  0.50225371  0.41043390  1
  O  O315  1  0.17712498  0.50045369  0.91216757  1
  O  O316  1  0.47671550  0.00456378  0.41702720  1
  O  O317  1  0.49285112  -0.00984463  0.92140475  1
  O  O318  1  0.47300705  0.50773191  0.42596804  1
  O  O319  1  0.50456066  0.48404621  0.92501285  1
  O  O320  1  0.85570426  -0.00596890  0.40923239  1
  O  O321  1  0.82340381  0.00150880  0.91403066  1
  O  O322  1  0.84027362  0.49118554  0.41671105  1
  O  O323  1  0.83930533  0.49913479  0.93483527  1
  O  O324  1  0.29716089  0.24509266  0.41154172  1
  O  O325  1  0.32531917  0.25219713  0.91335741  1
  O  O326  1  0.31338460  0.75490972  0.41339791  1
  O  O327  1  0.32918682  0.74657627  0.91673018  1
  O  O328  1  0.65654727  0.24866121  0.41643286  1
  O  O329  1  0.66848260  0.24960346  0.91051530  1
  O  O330  1  0.67395351  0.75058179  0.43580477  1
  O  O331  1  0.66852869  0.75604194  0.91697688  1
  O  O332  1  1.01231774  0.25617293  0.41035157  1
  O  O333  1  1.01180306  0.23464854  0.92277928  1
  O  O334  1  0.99388604  0.74500319  0.41460891  1
  O  O335  1  1.00624034  0.76718048  0.92560047  1
  O  O336  1  0.20703288  0.08348504  0.19231371  1
  O  O337  1  0.21174578  0.08043890  0.69464782  1
  O  O338  1  0.20754462  0.58455686  0.19596337  1
  O  O339  1  0.20889852  0.58413229  0.69815046  1
  O  O340  1  0.54629095  0.07546509  0.19946149  1
  O  O341  1  0.54739252  0.08242866  0.69369247  1
  O  O342  1  0.53062235  0.58474533  0.19725239  1
  O  O343  1  0.55015661  0.57818708  0.69679127  1
  O  O344  1  0.88473916  0.08883045  0.19321524  1
  O  O345  1  0.87776599  0.08508102  0.69902567  1
  O  O346  1  0.87835466  0.58755532  0.19645927  1
  O  O347  1  0.87769020  0.57976971  0.69534010  1
  O  O348  1  0.04522341  0.33320697  0.19447041  1
  O  O349  1  0.04374478  0.33380012  0.69204135  1
  O  O350  1  0.04298449  0.83373931  0.19440290  1
  O  O351  1  0.04550286  0.83614113  0.69234706  1
  O  O352  1  0.37007679  0.33591817  0.19369209  1
  O  O353  1  0.38092548  0.32741423  0.69758459  1
  O  O354  1  0.37207991  0.83317103  0.19704526  1
  O  O355  1  0.37845116  0.83715684  0.69348943  1
  O  O356  1  0.71041597  0.33568212  0.19938887  1
  O  O357  1  0.71119716  0.33490067  0.69626543  1
  O  O358  1  0.71130465  0.83047884  0.19538291  1
  O  O359  1  0.71063690  0.83278061  0.69584031  1
  O  O360  1  0.20888446  0.41799992  0.19544687  1
  O  O361  1  0.20050033  0.41531406  0.68597011  1
  O  O362  1  0.20823494  0.91721485  0.19469246  1
  O  O363  1  0.21392555  0.91518452  0.69445206  1
  O  O364  1  0.54040117  0.42020356  0.19317241  1
  O  O365  1  0.54570869  0.41518689  0.69414347  1
  O  O366  1  0.53712599  0.91200802  0.19416596  1
  O  O367  1  0.54541366  0.91855590  0.69598541  1
  O  O368  1  0.88144427  0.41403262  0.19187297  1
  O  O369  1  0.87833822  0.41708904  0.69435395  1
  O  O370  1  0.88079070  0.90720655  0.19443632  1
  O  O371  1  0.87882851  0.91648881  0.70003835  1
  O  O372  1  0.04420045  0.16614553  0.19344234  1
  O  O373  1  0.04577032  0.16697742  0.69209379  1
  O  O374  1  0.04290457  0.66798110  0.19563591  1
  O  O375  1  0.04627620  0.66143157  0.69170450  1
  O  O376  1  0.36083745  0.17013758  0.19010285  1
  O  O377  1  0.37614677  0.16254615  0.69014754  1
  O  O378  1  0.37046911  0.66662036  0.19742309  1
  O  O379  1  0.36898799  0.67602285  0.68803409  1
  O  O380  1  0.70964646  0.16760181  0.18823813  1
  O  O381  1  0.70698791  0.16954043  0.69273337  1
  O  O382  1  0.71148181  0.66988172  0.19655386  1
  O  O383  1  0.71082324  0.66429329  0.69845171  1
  O  O384  1  0.12370539  0.08272275  0.30267987  1
  O  O385  1  0.12503046  0.08386745  0.80195683  1
  O  O386  1  0.12204039  0.58509020  0.30304686  1
  O  O387  1  0.12322341  0.58225179  0.80634465  1
  O  O388  1  0.44642209  0.07764384  0.30455181  1
  O  O389  1  0.45573178  0.08279909  0.79718276  1
  O  O390  1  0.45127234  0.58591094  0.31113465  1
  O  O391  1  0.44939382  0.57258431  0.80212921  1
  O  O392  1  0.78476940  0.09344010  0.29904049  1
  O  O393  1  0.78981093  0.08371995  0.80346615  1
  O  O394  1  0.79590191  0.58185050  0.31147611  1
  O  O395  1  0.79075994  0.58348470  0.80345867  1
  O  O396  1  0.28465710  0.33338812  0.30509727  1
  O  O397  1  0.28569184  0.32745113  0.80179688  1
  O  O398  1  0.28523162  0.83553862  0.30427428  1
  O  O399  1  0.28971738  0.83295488  0.80645398  1
  O  O400  1  0.62436774  0.33530468  0.30841192  1
  O  O401  1  0.62230419  0.33155661  0.80366348  1
  O  O402  1  0.62074384  0.83191594  0.30164908  1
  O  O403  1  0.62564382  0.83620736  0.80559279  1
  O  O404  1  0.95955910  0.33499720  0.30233904  1
  O  O405  1  0.95795770  0.33220157  0.79943303  1
  O  O406  1  0.95844144  0.83004669  0.30543340  1
  O  O407  1  0.95527675  0.84058065  0.81089020  1
  O  O408  1  0.12205831  0.41835655  0.30213126  1
  O  O409  1  0.12526411  0.41516666  0.80460319  1
  O  O410  1  0.12130255  0.91516497  0.30337332  1
  O  O411  1  0.12321022  0.91687127  0.79860301  1
  O  O412  1  0.45288218  0.41854280  0.29958648  1
  O  O413  1  0.46417475  0.41421381  0.80559598  1
  O  O414  1  0.45250788  0.91716058  0.30763471  1
  O  O415  1  0.45882148  0.91662697  0.80570974  1
  O  O416  1  0.79281247  0.41347989  0.30609136  1
  O  O417  1  0.79020675  0.41548616  0.80165735  1
  O  O418  1  0.78833442  0.90445165  0.30898180  1
  O  O419  1  0.78838177  0.91867347  0.80530005  1
  O  O420  1  0.28641320  0.16491690  0.30268453  1
  O  O421  1  0.28985957  0.16674258  0.80280641  1
  O  O422  1  0.28492792  0.66987041  0.30495331  1
  O  O423  1  0.28909899  0.66910690  0.80714907  1
  O  O424  1  0.63234380  0.16926321  0.30633122  1
  O  O425  1  0.62595752  0.16459648  0.80433519  1
  O  O426  1  0.62245491  0.66656944  0.30394089  1
  O  O427  1  0.63554132  0.66951425  0.81166830  1
  O  O428  1  0.96235272  0.16887139  0.30503359  1
  O  O429  1  0.95955782  0.16664511  0.80472976  1
  O  O430  1  0.95738382  0.66493602  0.30630240  1
  O  O431  1  0.95632671  0.66466037  0.80142806  1
  F  F432  1  0.04560124  -0.00131378  0.19858631  1
  F  F433  1  0.04631730  0.00226603  0.69902115  1
  F  F434  1  0.04619862  0.50212562  0.19913884  1
  F  F435  1  0.04493031  0.49867432  0.70322826  1
  F  F436  1  0.37400657  -0.00201498  0.20027308  1
  F  F437  1  0.37893679  -0.00356958  0.70045518  1
  F  F438  1  0.37249750  0.50374320  0.20315261  1
  F  F439  1  0.38333713  0.49383856  0.68942278  1
  F  F440  1  0.70044521  -0.00579937  0.20050138  1
  F  F441  1  0.71185680  0.00049565  0.70115000  1
  F  F442  1  0.70863634  0.50054016  0.20238874  1
  F  F443  1  0.71232432  0.50004612  0.70283637  1
  F  F444  1  0.20896269  0.25157379  0.20105900  1
  F  F445  1  0.21174056  0.24715058  0.69737516  1
  F  F446  1  0.20923720  0.75123108  0.20132282  1
  F  F447  1  0.21225744  0.75221451  0.70158861  1
  F  F448  1  0.54819368  0.26316575  0.19896381  1
  F  F449  1  0.54668409  0.24744481  0.70194806  1
  F  F450  1  0.53819230  0.74841513  0.20263497  1
  F  F451  1  0.55196305  0.75953604  0.70095154  1
  F  F452  1  0.88148625  0.25063316  0.19971568  1
  F  F453  1  0.87836966  0.24980294  0.70006065  1
  F  F454  1  0.87851735  0.74745695  0.20338061  1
  F  F455  1  0.87210430  0.74935385  0.70084422  1
  F  F456  1  0.28341698  0.00076649  0.29591834  1
  F  F457  1  0.29000820  -0.00095161  0.79668945  1
  F  F458  1  0.28349473  0.50131728  0.29899097  1
  F  F459  1  0.28567371  0.49028809  0.79596926  1
  F  F460  1  0.61907535  -0.00470836  0.30214772  1
  F  F461  1  0.62361455  0.00050864  0.79717675  1
  F  F462  1  0.61782976  0.49509909  0.30222364  1
  F  F463  1  0.62125822  0.49852151  0.79943776  1
  F  F464  1  0.97207367  -0.00092030  0.30096389  1
  F  F465  1  0.95747521  0.00227722  0.79818634  1
  F  F466  1  0.96536110  0.49964222  0.30011213  1
  F  F467  1  0.95670417  0.49870410  0.79873977  1
  F  F468  1  0.12125695  0.24936643  0.29613579  1
  F  F469  1  0.12241667  0.25057846  0.79278000  1
  F  F470  1  0.11999549  0.75101273  0.29737590  1
  F  F471  1  0.12478352  0.74791754  0.79790337  1
  F  F472  1  0.44679618  0.26063564  0.30004928  1
  F  F473  1  0.45526231  0.24450439  0.79708238  1
  F  F474  1  0.44902913  0.75085661  0.29991869  1
  F  F475  1  0.44877155  0.76262866  0.80126292  1
  F  F476  1  0.79212801  0.25157615  0.29461937  1
  F  F477  1  0.78881707  0.24772778  0.79593466  1
  F  F478  1  0.79056006  0.74687859  0.29993586  1
  F  F479  1  0.78905555  0.75304977  0.79937951  1
