# generated using pymatgen
data_K24Na3Li5Mg64Fe17Si79(O5F)48
_symmetry_space_group_name_H-M   'P 1'
_cell_length_a   16.09947042
_cell_length_b   18.59644811
_cell_length_c   20.57043526
_cell_angle_alpha   90.00436561
_cell_angle_beta   100.00788190
_cell_angle_gamma   89.98417778
_symmetry_Int_Tables_number   1
_chemical_formula_structural   K24Na3Li5Mg64Fe17Si79(O5F)48
_chemical_formula_sum   'K24 Na3 Li5 Mg64 Fe17 Si79 O240 F48'
_cell_volume   6064.93258599
_cell_formula_units_Z   1
loop_
 _symmetry_equiv_pos_site_id
 _symmetry_equiv_pos_as_xyz
  1  'x, y, z'
loop_
 _atom_site_type_symbol
 _atom_site_label
 _atom_site_symmetry_multiplicity
 _atom_site_fract_x
 _atom_site_fract_y
 _atom_site_fract_z
 _atom_site_occupancy
  K  K0  1  0.01220663  -0.00243999  0.01123463  1
  K  K1  1  -0.00226959  0.00901552  0.48485315  1
  K  K2  1  0.01444455  0.49692765  0.01322156  1
  K  K3  1  0.01548385  0.48643843  0.49094390  1
  K  K4  1  0.33019365  0.00420326  0.00183143  1
  K  K5  1  0.34017779  -0.00163104  0.49748423  1
  K  K6  1  0.32249239  0.48366666  0.00493608  1
  K  K7  1  0.32096014  0.49139072  0.48618268  1
  K  K8  1  0.66577147  0.00288264  0.00070481  1
  K  K9  1  0.65990859  0.01583228  0.48830472  1
  K  K10  1  0.67139928  0.48768852  0.00478327  1
  K  K11  1  0.65010222  0.49498507  0.49014587  1
  K  K12  1  0.16599470  0.25892660  0.00802244  1
  K  K13  1  0.14528312  0.25242414  0.49087177  1
  K  K14  1  0.16142446  0.75158853  0.00249529  1
  K  K15  1  0.16262209  0.72949192  0.49191826  1
  K  K16  1  0.48775346  0.26129059  0.00514700  1
  K  K17  1  0.50484227  0.25952954  0.48301104  1
  K  K18  1  0.50180680  0.74824503  0.00114249  1
  K  K19  1  0.49769103  0.75082464  0.49815789  1
  K  K20  1  0.84400802  0.25366853  0.01398245  1
  K  K21  1  0.83753937  0.25606504  0.49116267  1
  K  K22  1  0.84277553  0.75351925  0.00669727  1
  K  K23  1  0.83950940  0.75143970  0.49263490  1
  Na  Na24  1  0.50017878  0.49913223  0.75326569  1
  Na  Na25  1  -0.00455630  0.08113276  0.23889862  1
  Na  Na26  1  0.66490609  0.41762651  0.24875452  1
  Li  Li27  1  0.50005612  -0.00105679  0.75219680  1
  Li  Li28  1  0.17337499  0.49586561  0.25999731  1
  Li  Li29  1  0.16999790  0.66642346  0.75467052  1
  Li  Li30  1  0.33105965  0.41739915  0.26318698  1
  Li  Li31  1  0.66730484  0.91880649  0.25083421  1
  Mg  Mg32  1  0.00115862  0.25136020  0.74654846  1
  Mg  Mg33  1  0.82911177  -0.00061149  0.24522619  1
  Mg  Mg34  1  0.50525251  0.00030345  0.25368651  1
  Mg  Mg35  1  0.66504533  0.75073069  0.75278704  1
  Mg  Mg36  1  0.00140127  0.74946139  0.75206144  1
  Mg  Mg37  1  0.66746183  0.75200863  0.25098176  1
  Mg  Mg38  1  0.33247037  0.74916266  0.75166319  1
  Mg  Mg39  1  0.83154351  -0.00011430  0.75013397  1
  Mg  Mg40  1  0.00208886  0.74980416  0.24769065  1
  Mg  Mg41  1  0.66477012  0.24947565  0.74801421  1
  Mg  Mg42  1  0.33619051  0.25223112  0.25560827  1
  Mg  Mg43  1  0.33360927  0.75023678  0.25352380  1
  Mg  Mg44  1  0.16707815  0.50282026  0.75222571  1
  Mg  Mg45  1  0.33144980  0.25096789  0.75134217  1
  Mg  Mg46  1  0.16617589  -0.00294420  0.75201092  1
  Mg  Mg47  1  -0.00098339  0.24997920  0.24488421  1
  Mg  Mg48  1  0.83324762  0.49970614  0.24589404  1
  Mg  Mg49  1  0.83353423  0.49930963  0.74609046  1
  Mg  Mg50  1  0.66540504  0.24989060  0.24922559  1
  Mg  Mg51  1  0.16678184  0.00229759  0.24456494  1
  Mg  Mg52  1  0.49598473  0.49942153  0.25336862  1
  Mg  Mg53  1  0.82933034  0.16604925  0.24441830  1
  Mg  Mg54  1  0.83345252  0.66591970  0.74964019  1
  Mg  Mg55  1  0.16766862  0.83139262  0.75329724  1
  Mg  Mg56  1  0.83412789  0.33429877  0.74525758  1
  Mg  Mg57  1  0.33596433  0.08089036  0.74998673  1
  Mg  Mg58  1  0.83027357  0.33525402  0.24813562  1
  Mg  Mg59  1  0.83095924  0.83522845  0.24605309  1
  Mg  Mg60  1  0.50137708  0.66602316  0.75221875  1
  Mg  Mg61  1  0.16559432  0.33687534  0.74978932  1
  Mg  Mg62  1  0.83447612  0.66668363  0.24870375  1
  Mg  Mg63  1  0.50197531  0.83606927  0.75290575  1
  Mg  Mg64  1  0.49948517  0.66616992  0.25342121  1
  Mg  Mg65  1  0.00449459  0.58569876  0.75144383  1
  Mg  Mg66  1  0.50413096  0.16585552  0.25314981  1
  Mg  Mg67  1  -0.00021503  0.41774829  0.24532155  1
  Mg  Mg68  1  0.66671257  0.58273231  0.75106762  1
  Mg  Mg69  1  0.66261501  0.91697193  0.75313492  1
  Mg  Mg70  1  0.33661298  0.91676741  0.25188348  1
  Mg  Mg71  1  0.49791676  0.33369091  0.75072081  1
  Mg  Mg72  1  0.66552439  0.41557965  0.74846224  1
  Mg  Mg73  1  0.66609200  0.58372832  0.25036315  1
  Mg  Mg74  1  0.83150694  0.83481517  0.75254915  1
  Mg  Mg75  1  0.66724409  0.08253808  0.25064427  1
  Mg  Mg76  1  0.16800308  0.16478842  0.74967178  1
  Mg  Mg77  1  0.16684103  0.66367371  0.25162383  1
  Mg  Mg78  1  0.33123611  0.58081363  0.25768645  1
  Mg  Mg79  1  0.83308433  0.16617959  0.74717877  1
  Mg  Mg80  1  0.66340460  0.08273627  0.74900906  1
  Mg  Mg81  1  0.49958731  0.33685069  0.25303415  1
  Mg  Mg82  1  0.49851598  0.16301818  0.74927377  1
  Mg  Mg83  1  0.33612762  0.91562922  0.75278539  1
  Mg  Mg84  1  0.50442061  0.83457107  0.25413027  1
  Mg  Mg85  1  0.00112178  0.08344046  0.74924670  1
  Mg  Mg86  1  0.00380359  0.58167149  0.24672259  1
  Mg  Mg87  1  0.00339980  0.41611140  0.74743092  1
  Mg  Mg88  1  0.16518750  0.83535073  0.24819375  1
  Mg  Mg89  1  0.16908262  0.33671116  0.25211944  1
  Mg  Mg90  1  0.00146823  0.91462846  0.75219376  1
  Mg  Mg91  1  0.33196398  0.41611800  0.75163786  1
  Mg  Mg92  1  0.33783720  0.08465159  0.25153168  1
  Mg  Mg93  1  0.33300603  0.58420872  0.75179997  1
  Mg  Mg94  1  0.16606230  0.16800398  0.24799932  1
  Mg  Mg95  1  -0.00317612  0.91587794  0.24185014  1
  Fe  Fe96  1  0.02557376  0.33280570  0.60610408  1
  Fe  Fe97  1  0.13636811  0.42291093  0.89196765  1
  Fe  Fe98  1  0.85106423  0.08094114  0.10138642  1
  Fe  Fe99  1  0.30751169  0.33295620  0.89119494  1
  Fe  Fe100  1  0.68316925  0.16526381  0.10601038  1
  Fe  Fe101  1  0.85453877  0.41944089  0.10637518  1
  Fe  Fe102  1  0.14014351  0.91304235  0.89147890  1
  Fe  Fe103  1  0.46671690  0.42345740  0.39409147  1
  Fe  Fe104  1  0.64853598  0.17176142  0.39381669  1
  Fe  Fe105  1  0.13902260  0.40588525  0.38966519  1
  Fe  Fe106  1  0.02874594  0.83289626  0.10755550  1
  Fe  Fe107  1  0.64216647  0.83181338  0.89316081  1
  Fe  Fe108  1  0.68106645  0.33361256  0.10488985  1
  Fe  Fe109  1  0.14370242  0.57815996  0.38994822  1
  Fe  Fe110  1  0.02996117  0.16787874  0.10411963  1
  Fe  Fe111  1  0.64590477  0.34234010  0.39329022  1
  Fe  Fe112  1  0.47725599  0.07968553  0.39295086  1
  Si  Si113  1  0.02827609  0.66251501  0.11105692  1
  Si  Si114  1  0.81033594  0.57563559  0.88340366  1
  Si  Si115  1  0.96755251  0.16525027  0.37988571  1
  Si  Si116  1  0.64788594  0.66144941  0.88910612  1
  Si  Si117  1  0.31019574  0.83130705  0.88876620  1
  Si  Si118  1  0.81011554  0.07669758  0.38727678  1
  Si  Si119  1  0.52683266  0.58315711  0.61560406  1
  Si  Si120  1  0.64747490  0.66490962  0.38682215  1
  Si  Si121  1  0.85709379  0.91339358  0.61470045  1
  Si  Si122  1  0.52020687  0.58733232  0.11656661  1
  Si  Si123  1  0.14193183  0.08559500  0.88608770  1
  Si  Si124  1  0.69183743  0.33275973  0.61263907  1
  Si  Si125  1  0.64685497  0.82834763  0.38700467  1
  Si  Si126  1  0.84878574  0.91046315  0.10611722  1
  Si  Si127  1  0.14492819  0.59271828  0.88889701  1
  Si  Si128  1  0.63993228  0.16575351  0.88368536  1
  Si  Si129  1  0.63790661  0.33167939  0.88350934  1
  Si  Si130  1  0.68966213  0.66806589  0.61443520  1
  Si  Si131  1  0.81375254  0.58738213  0.38406714  1
  Si  Si132  1  0.14096996  0.92314603  0.38337371  1
  Si  Si133  1  0.68616431  0.66853693  0.11574628  1
  Si  Si134  1  0.96726275  0.33444287  0.88313138  1
  Si  Si135  1  0.47526875  0.07956180  0.88328577  1
  Si  Si136  1  0.85383747  0.59050107  0.11150007  1
  Si  Si137  1  0.51568479  0.42485976  0.11329962  1
  Si  Si138  1  0.85483644  0.42066397  0.60928640  1
  Si  Si139  1  0.52429911  0.07504322  0.11344934  1
  Si  Si140  1  0.85670749  0.07920200  0.61349309  1
  Si  Si141  1  0.35744959  0.16686782  0.61388617  1
  Si  Si142  1  0.97702990  0.83577554  0.38240086  1
  Si  Si143  1  0.35666459  0.66906043  0.11818417  1
  Si  Si144  1  0.36100472  0.83268314  0.61554629  1
  Si  Si145  1  0.47463047  0.41695776  0.88799980  1
  Si  Si146  1  0.19422312  0.58656278  0.61807109  1
  Si  Si147  1  0.02505111  0.83249907  0.61434720  1
  Si  Si148  1  0.52765771  0.41427658  0.61523836  1
  Si  Si149  1  0.80933839  0.08763797  0.88223473  1
  Si  Si150  1  0.36174559  0.33106253  0.11897710  1
  Si  Si151  1  0.68949585  0.83382937  0.61488502  1
  Si  Si152  1  0.31208679  0.16264792  0.88542295  1
  Si  Si153  1  0.85654346  0.58707495  0.61289972  1
  Si  Si154  1  0.02445526  0.66666287  0.61540534  1
  Si  Si155  1  0.19836163  0.42107055  0.61253564  1
  Si  Si156  1  0.68628454  0.83094825  0.11591025  1
  Si  Si157  1  0.81322908  0.42645009  0.38583588  1
  Si  Si158  1  0.52515787  0.91837086  0.61557398  1
  Si  Si159  1  0.30907056  0.67390584  0.39045164  1
  Si  Si160  1  0.20126630  0.41588413  0.12248371  1
  Si  Si161  1  0.97548204  0.67088959  0.38539038  1
  Si  Si162  1  0.02476166  0.15889451  0.61063289  1
  Si  Si163  1  0.20317401  0.08539684  0.11169412  1
  Si  Si164  1  0.52463284  0.08444034  0.61446408  1
  Si  Si165  1  0.52385761  0.91363750  0.11865718  1
  Si  Si166  1  0.48085214  0.90912022  0.39119809  1
  Si  Si167  1  0.36114665  0.66706771  0.61558614  1
  Si  Si168  1  0.47715569  0.58452922  0.88649173  1
  Si  Si169  1  0.69142475  0.16575787  0.61314147  1
  Si  Si170  1  0.97145547  0.66641501  0.88540469  1
  Si  Si171  1  0.30556270  0.83832355  0.38670359  1
  Si  Si172  1  0.97485144  0.16985856  0.88130266  1
  Si  Si173  1  0.20237774  0.91857462  0.11322525  1
  Si  Si174  1  0.36149600  0.33337375  0.61417252  1
  Si  Si175  1  0.13827427  0.08757558  0.38137949  1
  Si  Si176  1  0.19798444  0.58101041  0.11883422  1
  Si  Si177  1  0.80329940  0.41118362  0.88029101  1
  Si  Si178  1  0.80481128  0.92367552  0.88589106  1
  Si  Si179  1  0.30618387  0.15981421  0.38763596  1
  Si  Si180  1  0.96462686  0.83245855  0.88725087  1
  Si  Si181  1  0.19406480  0.91292868  0.61534645  1
  Si  Si182  1  0.47108856  0.91475930  0.88806922  1
  Si  Si183  1  0.36811469  0.16734642  0.11691879  1
  Si  Si184  1  0.81041137  0.91297040  0.38336878  1
  Si  Si185  1  0.31560608  0.66813045  0.88656723  1
  Si  Si186  1  0.19413436  0.07872363  0.61456077  1
  Si  Si187  1  0.47521246  0.59491166  0.39163270  1
  Si  Si188  1  0.96541300  0.32886458  0.38496869  1
  Si  Si189  1  0.30638527  0.32242307  0.39283329  1
  Si  Si190  1  0.36355896  0.83177177  0.11828014  1
  Si  Si191  1  0.02909242  0.33949330  0.10888732  1
  O  O192  1  0.28767335  0.11670458  0.08569189  1
  O  O193  1  0.26948207  0.12202692  0.58558835  1
  O  O194  1  0.27226911  0.62323365  0.08600604  1
  O  O195  1  0.26822108  0.63182951  0.58775949  1
  O  O196  1  0.60158935  0.09220188  0.07646395  1
  O  O197  1  0.60336577  0.12249724  0.58508005  1
  O  O198  1  0.60379729  0.61702680  0.08697030  1
  O  O199  1  0.60345938  0.62292826  0.58351187  1
  O  O200  1  0.94614786  0.10543419  0.06594802  1
  O  O201  1  0.93748753  0.11119381  0.58429857  1
  O  O202  1  0.93595012  0.62449722  0.08305741  1
  O  O203  1  0.93480468  0.62565225  0.58333517  1
  O  O204  1  0.11383885  0.37749667  0.08664949  1
  O  O205  1  0.11582142  0.37856881  0.57634727  1
  O  O206  1  0.12167995  0.87446281  0.07639754  1
  O  O207  1  0.10255016  0.87376107  0.58603984  1
  O  O208  1  0.43259427  0.37377710  0.08447223  1
  O  O209  1  0.44135771  0.36972889  0.58561409  1
  O  O210  1  0.44808968  0.85573932  0.08909937  1
  O  O211  1  0.43563025  0.87623902  0.58527403  1
  O  O212  1  0.76659768  0.36558131  0.06090251  1
  O  O213  1  0.76661606  0.37510667  0.58388099  1
  O  O214  1  0.76805653  0.85316516  0.08346285  1
  O  O215  1  0.77012126  0.86838321  0.58537951  1
  O  O216  1  0.27378758  0.37341598  0.08929248  1
  O  O217  1  0.28019735  0.38382142  0.58602793  1
  O  O218  1  0.28755776  0.88646970  0.08774246  1
  O  O219  1  0.26936691  0.87047599  0.58530632  1
  O  O220  1  0.59251659  0.40173501  0.07741255  1
  O  O221  1  0.60423257  0.37579617  0.58426882  1
  O  O222  1  0.60668792  0.88532059  0.08853109  1
  O  O223  1  0.60251078  0.87828753  0.58495045  1
  O  O224  1  0.95197633  0.39095153  0.07477729  1
  O  O225  1  0.92744629  0.38732167  0.57393061  1
  O  O226  1  0.92611193  0.87754878  0.07333769  1
  O  O227  1  0.93529504  0.87472083  0.58500049  1
  O  O228  1  0.12548830  0.13023475  0.07225202  1
  O  O229  1  0.10181936  0.11364138  0.58397244  1
  O  O230  1  0.10435454  0.61407072  0.08661299  1
  O  O231  1  0.10376208  0.62791658  0.58813921  1
  O  O232  1  0.44592663  0.13124715  0.08610026  1
  O  O233  1  0.43497778  0.12587604  0.58528625  1
  O  O234  1  0.44005341  0.64137974  0.08841281  1
  O  O235  1  0.43682406  0.62436187  0.58601597  1
  O  O236  1  0.76944504  0.14411350  0.06022991  1
  O  O237  1  0.76944203  0.12409791  0.58573123  1
  O  O238  1  0.77103688  0.64526630  0.08661037  1
  O  O239  1  0.77074035  0.63506489  0.58514345  1
  O  O240  1  0.05842972  0.12464955  0.40893440  1
  O  O241  1  0.05886832  0.12278393  0.91013752  1
  O  O242  1  0.05329733  0.62532470  0.42427803  1
  O  O243  1  0.06516039  0.63528263  0.91536868  1
  O  O244  1  0.37422328  0.10094530  0.42104651  1
  O  O245  1  0.39080106  0.10593104  0.91190574  1
  O  O246  1  0.40842765  0.65170877  0.41770155  1
  O  O247  1  0.39707252  0.61664319  0.91883189  1
  O  O248  1  0.74180834  0.10999619  0.42703144  1
  O  O249  1  0.72625264  0.11894112  0.90949782  1
  O  O250  1  0.73037502  0.61479026  0.41513236  1
  O  O251  1  0.72825953  0.60548934  0.91263121  1
  O  O252  1  0.22322158  0.33977156  0.42481520  1
  O  O253  1  0.21926592  0.36081495  0.93203191  1
  O  O254  1  0.23244340  0.88552401  0.41525100  1
  O  O255  1  0.22990114  0.85001890  0.92292554  1
  O  O256  1  0.56397364  0.37999894  0.43736030  1
  O  O257  1  0.56093127  0.36811817  0.91389926  1
  O  O258  1  0.56436857  0.85646175  0.41781827  1
  O  O259  1  0.54412056  0.86119599  0.92414019  1
  O  O260  1  0.88738624  0.36765936  0.41480639  1
  O  O261  1  0.87682806  0.35317787  0.90743897  1
  O  O262  1  0.89815005  0.86846484  0.41512310  1
  O  O263  1  0.88223283  0.86789414  0.91226174  1
  O  O264  1  0.04906390  0.36606969  0.42521023  1
  O  O265  1  0.03457215  0.39181705  0.91807016  1
  O  O266  1  0.06332011  0.88237782  0.41230633  1
  O  O267  1  0.04700374  0.87426842  0.92335821  1
  O  O268  1  0.38135292  0.37492295  0.42855223  1
  O  O269  1  0.40188048  0.39147045  0.92734385  1
  O  O270  1  0.39901632  0.87086830  0.41808302  1
  O  O271  1  0.38422912  0.89084520  0.91574499  1
  O  O272  1  0.73274843  0.41153606  0.42032486  1
  O  O273  1  0.71997893  0.38310370  0.90831430  1
  O  O274  1  0.73284372  0.87513022  0.41559839  1
  O  O275  1  0.72507124  0.90243105  0.91919693  1
  O  O276  1  0.21859969  0.13643139  0.41553731  1
  O  O277  1  0.22635324  0.13470763  0.91187362  1
  O  O278  1  0.24540160  0.62912957  0.42682117  1
  O  O279  1  0.22990999  0.64367738  0.91422993  1
  O  O280  1  0.56293265  0.13633587  0.43653584  1
  O  O281  1  0.55990991  0.12883938  0.91130024  1
  O  O282  1  0.56832687  0.63444948  0.41881753  1
  O  O283  1  0.56360430  0.63035194  0.91630749  1
  O  O284  1  0.90200288  0.11619135  0.41441218  1
  O  O285  1  0.89117405  0.13896826  0.90802034  1
  O  O286  1  0.88731589  0.64686912  0.41173605  1
  O  O287  1  0.89701151  0.62039421  0.91302626  1
  O  O288  1  0.19563272  0.00124826  0.08523258  1
  O  O289  1  0.19156774  -0.00449178  0.58548383  1
  O  O290  1  0.19869361  0.49850978  0.09116517  1
  O  O291  1  0.19218993  0.50578724  0.58630481  1
  O  O292  1  0.49173394  -0.00776533  0.08786620  1
  O  O293  1  0.51586078  0.00095143  0.58602966  1
  O  O294  1  0.49135786  0.50873947  0.08556263  1
  O  O295  1  0.52014138  0.49907959  0.58992459  1
  O  O296  1  0.81795853  -0.01393409  0.07247708  1
  O  O297  1  0.84382393  -0.00420782  0.58563649  1
  O  O298  1  0.82972016  0.51550457  0.07471229  1
  O  O299  1  0.83809551  0.50552668  0.58439197  1
  O  O300  1  0.01711365  0.26257013  0.07039246  1
  O  O301  1  0.01434534  0.23586280  0.57475743  1
  O  O302  1  0.02667266  0.73862301  0.07268631  1
  O  O303  1  0.01665687  0.74993098  0.58423582  1
  O  O304  1  0.35355553  0.24904731  0.08590835  1
  O  O305  1  0.34827405  0.24985416  0.58583134  1
  O  O306  1  0.33824107  0.75119129  0.08856608  1
  O  O307  1  0.35989928  0.75012707  0.58594880  1
  O  O308  1  0.63633987  0.24865857  0.06754331  1
  O  O309  1  0.68480672  0.24890410  0.58608207  1
  O  O310  1  0.65771310  0.74948274  0.08707218  1
  O  O311  1  0.67585369  0.75107293  0.58569882  1
  O  O312  1  0.14567743  0.00502427  0.41442191  1
  O  O313  1  0.15857047  0.00839229  0.92172154  1
  O  O314  1  0.15862699  0.49264015  0.43473616  1
  O  O315  1  0.15947476  0.51738845  0.92785448  1
  O  O316  1  0.49874765  -0.01585556  0.42911215  1
  O  O317  1  0.49463532  -0.00174919  0.91316506  1
  O  O318  1  0.47348397  0.52013831  0.42990706  1
  O  O319  1  0.49890522  0.50149602  0.91022909  1
  O  O320  1  0.82615200  -0.00726305  0.41643790  1
  O  O321  1  0.83370789  0.00643059  0.90944166  1
  O  O322  1  0.84665317  0.50891565  0.41346021  1
  O  O323  1  0.82666914  0.49246496  0.90914338  1
  O  O324  1  0.33540738  0.23899097  0.41794825  1
  O  O325  1  0.34102876  0.23840926  0.91872658  1
  O  O326  1  0.30298580  0.75796582  0.41787915  1
  O  O327  1  0.34318063  0.74968381  0.91444749  1
  O  O328  1  0.68094974  0.25709051  0.43673661  1
  O  O329  1  0.65361852  0.24878479  0.91086282  1
  O  O330  1  0.66856848  0.74657537  0.41792104  1
  O  O331  1  0.67414372  0.73771656  0.92403529  1
  O  O332  1  0.96807401  0.24487518  0.41430763  1
  O  O333  1  0.99147635  0.25165394  0.90892475  1
  O  O334  1  0.99200567  0.75486287  0.41388396  1
  O  O335  1  0.96578416  0.74824147  0.91314839  1
  O  O336  1  0.21521473  0.08458035  0.19257331  1
  O  O337  1  0.21020221  0.07999769  0.69492361  1
  O  O338  1  0.21698712  0.59023864  0.19742286  1
  O  O339  1  0.21143740  0.58518810  0.69757180  1
  O  O340  1  0.54307013  0.07807858  0.19373049  1
  O  O341  1  0.54442482  0.08631335  0.69390250  1
  O  O342  1  0.54172950  0.58881375  0.19660398  1
  O  O343  1  0.54902308  0.59079990  0.69469385  1
  O  O344  1  0.86100117  0.08132153  0.19210872  1
  O  O345  1  0.87544104  0.08108093  0.69399398  1
  O  O346  1  0.87532541  0.58876852  0.19234715  1
  O  O347  1  0.87541942  0.58639621  0.69338825  1
  O  O348  1  0.04231183  0.33433286  0.18972874  1
  O  O349  1  0.04351791  0.33203401  0.69783367  1
  O  O350  1  0.04648695  0.83153667  0.19927011  1
  O  O351  1  0.04051760  0.83239533  0.69426186  1
  O  O352  1  0.38057402  0.32718109  0.19781125  1
  O  O353  1  0.37871116  0.33177911  0.69448594  1
  O  O354  1  0.37937787  0.83230030  0.19885057  1
  O  O355  1  0.37777281  0.83334596  0.69556582  1
  O  O356  1  0.71398120  0.32585774  0.19455789  1
  O  O357  1  0.70993566  0.33226344  0.69334454  1
  O  O358  1  0.70880985  0.82930345  0.19539492  1
  O  O359  1  0.71019706  0.83385114  0.69496171  1
  O  O360  1  0.21689728  0.41506837  0.20101864  1
  O  O361  1  0.21088105  0.41959035  0.69301645  1
  O  O362  1  0.21568564  0.91556457  0.19409962  1
  O  O363  1  0.21156486  0.91402177  0.69528795  1
  O  O364  1  0.53076923  0.42304834  0.19255910  1
  O  O365  1  0.54785227  0.40912244  0.69457800  1
  O  O366  1  0.53939085  0.91407399  0.19827593  1
  O  O367  1  0.54389351  0.91506045  0.69479845  1
  O  O368  1  0.87626118  0.41742578  0.19832348  1
  O  O369  1  0.87514521  0.41828970  0.69059746  1
  O  O370  1  0.87221317  0.91221444  0.18768506  1
  O  O371  1  0.87571172  0.91471132  0.69510045  1
  O  O372  1  0.05096452  0.17393922  0.19424511  1
  O  O373  1  0.04303557  0.16205442  0.69160739  1
  O  O374  1  0.04410624  0.66820276  0.19163993  1
  O  O375  1  0.03604310  0.66857153  0.69466587  1
  O  O376  1  0.38001973  0.16693704  0.19685532  1
  O  O377  1  0.37510217  0.16533401  0.69426178  1
  O  O378  1  0.37649133  0.67019433  0.19837970  1
  O  O379  1  0.37907815  0.66763056  0.69556524  1
  O  O380  1  0.70741306  0.16467458  0.19828714  1
  O  O381  1  0.70949958  0.16541196  0.69369216  1
  O  O382  1  0.70682607  0.66890420  0.19610235  1
  O  O383  1  0.70945685  0.66751140  0.69489214  1
  O  O384  1  0.13148896  0.08155467  0.30287073  1
  O  O385  1  0.12325081  0.08245878  0.80437601  1
  O  O386  1  0.12034599  0.58622600  0.29986615  1
  O  O387  1  0.12266684  0.58534344  0.80871273  1
  O  O388  1  0.45719439  0.08108313  0.30101333  1
  O  O389  1  0.45585115  0.08338629  0.80332501  1
  O  O390  1  0.45701900  0.59068360  0.31112303  1
  O  O391  1  0.45426391  0.59205678  0.80728918  1
  O  O392  1  0.78994294  0.07812606  0.30748829  1
  O  O393  1  0.78940526  0.08556285  0.80126006  1
  O  O394  1  0.79093935  0.58789856  0.30401172  1
  O  O395  1  0.79227640  0.58184249  0.80267082  1
  O  O396  1  0.28879418  0.32614864  0.31247518  1
  O  O397  1  0.28589000  0.33257719  0.79810825  1
  O  O398  1  0.28970256  0.83664327  0.30646265  1
  O  O399  1  0.29120018  0.83280625  0.80739060  1
  O  O400  1  0.61706868  0.32597287  0.30443020  1
  O  O401  1  0.62172465  0.33111797  0.80275228  1
  O  O402  1  0.62437212  0.82819523  0.30785687  1
  O  O403  1  0.62263847  0.83248570  0.80070325  1
  O  O404  1  0.95483427  0.33114503  0.30490386  1
  O  O405  1  0.95264869  0.33385642  0.80174980  1
  O  O406  1  0.95671877  0.83369615  0.30272170  1
  O  O407  1  0.95311260  0.83332202  0.80579613  1
  O  O408  1  0.11654595  0.41433431  0.29964771  1
  O  O409  1  0.12165189  0.42038509  0.79918002  1
  O  O410  1  0.12583527  0.91948484  0.30379614  1
  O  O411  1  0.12098293  0.91513537  0.79901430  1
  O  O412  1  0.45648594  0.41927537  0.30385471  1
  O  O413  1  0.45144555  0.40813595  0.80827354  1
  O  O414  1  0.45956482  0.91266612  0.31060287  1
  O  O415  1  0.45431421  0.91235588  0.80755465  1
  O  O416  1  0.79872055  0.42387730  0.30650654  1
  O  O417  1  0.78877738  0.41483535  0.79953027  1
  O  O418  1  0.79367434  0.91240299  0.30431143  1
  O  O419  1  0.78811058  0.91913103  0.80422314  1
  O  O420  1  0.29010802  0.16279477  0.30667380  1
  O  O421  1  0.29148017  0.16302474  0.80388962  1
  O  O422  1  0.29076301  0.67152756  0.30975885  1
  O  O423  1  0.29785650  0.66755778  0.80674518  1
  O  O424  1  0.62296568  0.16401689  0.30239443  1
  O  O425  1  0.62269094  0.16636278  0.80288332  1
  O  O426  1  0.62590778  0.66846112  0.30683480  1
  O  O427  1  0.62711343  0.66490677  0.80768549  1
  O  O428  1  0.94926228  0.17055136  0.30138830  1
  O  O429  1  0.95619114  0.16697905  0.80018017  1
  O  O430  1  0.95826946  0.66932659  0.30465429  1
  O  O431  1  0.95443047  0.66606044  0.80462908  1
  F  F432  1  0.05302060  -0.01219608  0.19242251  1
  F  F433  1  0.04314929  -0.00066475  0.69972958  1
  F  F434  1  0.03292776  0.50175507  0.19287716  1
  F  F435  1  0.04427101  0.50539734  0.69970389  1
  F  F436  1  0.38064822  -0.00390181  0.20375155  1
  F  F437  1  0.37220957  -0.00258512  0.69998444  1
  F  F438  1  0.38106540  0.51465303  0.20201438  1
  F  F439  1  0.36825695  0.50093970  0.70132749  1
  F  F440  1  0.70849962  -0.00239551  0.20369404  1
  F  F441  1  0.71126305  -0.00089642  0.69987458  1
  F  F442  1  0.71499585  0.51350210  0.19744001  1
  F  F443  1  0.71174727  0.50100854  0.69823660  1
  F  F444  1  0.21691389  0.25053464  0.20444914  1
  F  F445  1  0.21097775  0.24533999  0.69950603  1
  F  F446  1  0.21429881  0.75133377  0.20452869  1
  F  F447  1  0.21486252  0.75490393  0.70152127  1
  F  F448  1  0.53974561  0.24918034  0.20133812  1
  F  F449  1  0.54396720  0.24801457  0.70054470  1
  F  F450  1  0.54414054  0.74952808  0.20489380  1
  F  F451  1  0.54500299  0.74900337  0.70123350  1
  F  F452  1  0.87801461  0.25115021  0.19857936  1
  F  F453  1  0.87740318  0.24859951  0.69783581  1
  F  F454  1  0.87882768  0.74997442  0.20140194  1
  F  F455  1  0.87730641  0.75150391  0.70236631  1
  F  F456  1  0.28792333  -0.00150433  0.29682465  1
  F  F457  1  0.28717985  -0.00112820  0.79826859  1
  F  F458  1  0.29253807  0.50610732  0.31011523  1
  F  F459  1  0.28807872  0.50163477  0.80094542  1
  F  F460  1  0.62142888  0.00003744  0.30341216  1
  F  F461  1  0.62516851  0.00202811  0.79830450  1
  F  F462  1  0.61502607  0.51353191  0.30211385  1
  F  F463  1  0.63615012  0.49875557  0.80062576  1
  F  F464  1  0.94997272  -0.01226277  0.29554916  1
  F  F465  1  0.95355241  0.00008081  0.79599493  1
  F  F466  1  0.95419229  0.50514691  0.29629315  1
  F  F467  1  0.95259920  0.50129900  0.79375857  1
  F  F468  1  0.12056449  0.25075595  0.29752098  1
  F  F469  1  0.12047309  0.24542000  0.79603108  1
  F  F470  1  0.12368958  0.75080480  0.29982164  1
  F  F471  1  0.11786396  0.75288886  0.79964412  1
  F  F472  1  0.45549939  0.24723149  0.30262462  1
  F  F473  1  0.45502824  0.24695859  0.79627682  1
  F  F474  1  0.45575227  0.75146003  0.30162425  1
  F  F475  1  0.45585904  0.75089558  0.79724828  1
  F  F476  1  0.79058122  0.24927313  0.29864102  1
  F  F477  1  0.78731915  0.24976908  0.79370226  1
  F  F478  1  0.79008081  0.75027610  0.29802429  1
  F  F479  1  0.78793670  0.74888376  0.79740910  1
