# generated using pymatgen
data_K24Na3Li5Mg64Fe17Si79(O5F)48
_symmetry_space_group_name_H-M   'P 1'
_cell_length_a   16.08504645
_cell_length_b   18.57989491
_cell_length_c   20.54252147
_cell_angle_alpha   90.01159781
_cell_angle_beta   100.00091103
_cell_angle_gamma   89.99311407
_symmetry_Int_Tables_number   1
_chemical_formula_structural   K24Na3Li5Mg64Fe17Si79(O5F)48
_chemical_formula_sum   'K24 Na3 Li5 Mg64 Fe17 Si79 O240 F48'
_cell_volume   6046.01963147
_cell_formula_units_Z   1
loop_
 _symmetry_equiv_pos_site_id
 _symmetry_equiv_pos_as_xyz
  1  'x, y, z'
loop_
 _atom_site_type_symbol
 _atom_site_label
 _atom_site_symmetry_multiplicity
 _atom_site_fract_x
 _atom_site_fract_y
 _atom_site_fract_z
 _atom_site_occupancy
  K  K0  1  0.00721937  -0.00980217  0.00978823  1
  K  K1  1  0.00958857  0.00040143  0.49830487  1
  K  K2  1  -0.00273918  0.50306260  -0.00340527  1
  K  K3  1  0.00008817  0.49657571  0.50012022  1
  K  K4  1  0.32583279  -0.00185697  0.00201037  1
  K  K5  1  0.32407033  0.00220888  0.49328056  1
  K  K6  1  0.32739584  0.50253002  -0.00589111  1
  K  K7  1  0.32988246  0.50194219  0.50079132  1
  K  K8  1  0.67424681  -0.00679333  0.00145782  1
  K  K9  1  0.66825875  0.00359265  0.49532670  1
  K  K10  1  0.66789112  0.49519987  -0.00305552  1
  K  K11  1  0.66476235  0.49957680  0.50937758  1
  K  K12  1  0.16627261  0.24481926  0.00241387  1
  K  K13  1  0.15603671  0.24848288  0.49425194  1
  K  K14  1  0.16303909  0.75061167  -0.00132965  1
  K  K15  1  0.15955029  0.74815934  0.49846501  1
  K  K16  1  0.48992329  0.25910645  -0.00283876  1
  K  K17  1  0.49663353  0.25216036  0.49904960  1
  K  K18  1  0.49494640  0.75424336  -0.00326634  1
  K  K19  1  0.49618714  0.74773070  0.50064873  1
  K  K20  1  0.84081084  0.25624235  0.00469409  1
  K  K21  1  0.84094373  0.24785900  0.50082265  1
  K  K22  1  0.84467483  0.75527565  0.00243875  1
  K  K23  1  0.83915420  0.74882854  0.50116569  1
  Na  Na24  1  0.82764030  0.50104495  0.74571783  1
  Na  Na25  1  0.66812754  0.57849952  0.74602878  1
  Na  Na26  1  0.16560067  0.16714173  0.25203215  1
  Li  Li27  1  0.83575768  0.49908391  0.24582120  1
  Li  Li28  1  0.49690594  0.00129333  0.25225778  1
  Li  Li29  1  0.83557250  0.83188591  0.74846343  1
  Li  Li30  1  0.00220064  0.08630585  0.24929170  1
  Li  Li31  1  0.00134119  0.08306114  0.74462078  1
  Mg  Mg32  1  0.67286609  0.75018199  0.75140854  1
  Mg  Mg33  1  0.16409990  0.00012067  0.74694081  1
  Mg  Mg34  1  0.16630709  0.50070507  0.75390035  1
  Mg  Mg35  1  0.83617796  0.00135922  0.24452390  1
  Mg  Mg36  1  0.16505478  0.50057173  0.25351528  1
  Mg  Mg37  1  -0.00119601  0.74900455  0.24898077  1
  Mg  Mg38  1  0.66650294  0.24962847  0.74907462  1
  Mg  Mg39  1  0.50118784  0.49813331  0.75244033  1
  Mg  Mg40  1  0.50212078  -0.00151868  0.75306408  1
  Mg  Mg41  1  0.16528098  0.00025643  0.24635650  1
  Mg  Mg42  1  -0.00039431  0.24779222  0.74827290  1
  Mg  Mg43  1  0.33238404  0.74977953  0.25201804  1
  Mg  Mg44  1  0.50011898  0.49940635  0.25350837  1
  Mg  Mg45  1  0.83708428  -0.00121155  0.74802480  1
  Mg  Mg46  1  0.33358269  0.24887785  0.25322168  1
  Mg  Mg47  1  0.66650938  0.75083673  0.24742505  1
  Mg  Mg48  1  0.66583535  0.24947766  0.24854874  1
  Mg  Mg49  1  0.33494922  0.75265126  0.75322659  1
  Mg  Mg50  1  0.33208135  0.25035091  0.75395164  1
  Mg  Mg51  1  -0.00189983  0.24894768  0.24918391  1
  Mg  Mg52  1  -0.00144058  0.75028828  0.74851041  1
  Mg  Mg53  1  0.16243350  0.16432512  0.74978287  1
  Mg  Mg54  1  0.83181109  0.33703805  0.24615816  1
  Mg  Mg55  1  0.16697732  0.66459238  0.25373099  1
  Mg  Mg56  1  0.50092666  0.16553216  0.75242769  1
  Mg  Mg57  1  0.50196844  0.33445310  0.25311065  1
  Mg  Mg58  1  0.83112942  0.33265902  0.74824129  1
  Mg  Mg59  1  -0.00229421  0.58293165  0.25119892  1
  Mg  Mg60  1  -0.00010423  0.58459499  0.75172276  1
  Mg  Mg61  1  0.83455405  0.66931979  0.75028796  1
  Mg  Mg62  1  0.33415832  0.91712951  0.75126614  1
  Mg  Mg63  1  0.33290509  0.08371501  0.75213192  1
  Mg  Mg64  1  0.16510600  0.83561210  0.74822766  1
  Mg  Mg65  1  0.66817696  0.58264094  0.24835007  1
  Mg  Mg66  1  0.16796114  0.83486917  0.24944381  1
  Mg  Mg67  1  0.66943706  0.41756319  0.24795278  1
  Mg  Mg68  1  0.83408766  0.16537363  0.24591171  1
  Mg  Mg69  1  0.50457137  0.66647998  0.75212059  1
  Mg  Mg70  1  0.33387593  0.41488492  0.75397465  1
  Mg  Mg71  1  0.66249566  0.41485770  0.74741621  1
  Mg  Mg72  1  0.50299567  0.83511144  0.75248555  1
  Mg  Mg73  1  0.49978488  0.83658409  0.24974081  1
  Mg  Mg74  1  0.33339062  0.58470322  0.25466054  1
  Mg  Mg75  1  0.33485594  0.08208939  0.25120659  1
  Mg  Mg76  1  0.16736425  0.33357690  0.75371030  1
  Mg  Mg77  1  0.33575372  0.58533038  0.75496639  1
  Mg  Mg78  1  0.49940524  0.66598282  0.25107572  1
  Mg  Mg79  1  0.66557621  0.91786356  0.24811295  1
  Mg  Mg80  1  0.66937629  0.08295218  0.75042583  1
  Mg  Mg81  1  0.83708557  0.16332702  0.74685441  1
  Mg  Mg82  1  0.16509821  0.66583528  0.75169362  1
  Mg  Mg83  1  -0.00402092  0.41740795  0.24807970  1
  Mg  Mg84  1  0.49765856  0.33567354  0.75248780  1
  Mg  Mg85  1  0.83397634  0.66370012  0.24911250  1
  Mg  Mg86  1  0.49899730  0.16312393  0.25100542  1
  Mg  Mg87  1  0.33592005  0.91818706  0.25174396  1
  Mg  Mg88  1  0.83516209  0.83525465  0.24699552  1
  Mg  Mg89  1  0.16613940  0.33346852  0.25042760  1
  Mg  Mg90  1  0.67182371  0.91442042  0.75086858  1
  Mg  Mg91  1  0.66316870  0.08198830  0.24880107  1
  Mg  Mg92  1  -0.00313611  0.91697172  0.74698355  1
  Mg  Mg93  1  0.00104129  0.91942407  0.24728502  1
  Mg  Mg94  1  0.33585240  0.41597887  0.25346670  1
  Mg  Mg95  1  -0.00107153  0.41685885  0.75225769  1
  Fe  Fe96  1  0.85529382  0.41828178  0.10629954  1
  Fe  Fe97  1  0.02399371  0.17071754  0.60937160  1
  Fe  Fe98  1  0.48177550  0.91635884  0.89265245  1
  Fe  Fe99  1  0.30892215  0.66653593  0.39383460  1
  Fe  Fe100  1  0.19752893  0.91830918  0.11029550  1
  Fe  Fe101  1  0.19074853  0.91677640  0.60993330  1
  Fe  Fe102  1  0.13750872  0.57693743  0.39392498  1
  Fe  Fe103  1  0.47771969  0.08402204  0.39094059  1
  Fe  Fe104  1  0.96584556  0.66570801  0.39003917  1
  Fe  Fe105  1  0.14227834  0.58276153  0.89339860  1
  Fe  Fe106  1  0.52292932  0.41725141  0.60884667  1
  Fe  Fe107  1  0.48064098  0.41614873  0.39238859  1
  Fe  Fe108  1  0.47582514  0.42099966  0.89534393  1
  Fe  Fe109  1  0.13781379  0.08577647  0.38680555  1
  Fe  Fe110  1  0.30408645  0.32981981  0.89484453  1
  Fe  Fe111  1  0.02127358  0.66164613  0.61029390  1
  Fe  Fe112  1  0.85842582  0.91770906  0.10616517  1
  Si  Si113  1  0.19390759  0.08727912  0.61300071  1
  Si  Si114  1  0.64903593  0.66938396  0.88563307  1
  Si  Si115  1  0.48291027  0.08513769  0.88899334  1
  Si  Si116  1  0.80288652  0.41529752  0.88281700  1
  Si  Si117  1  0.64606599  0.16840931  0.88557408  1
  Si  Si118  1  0.85335509  0.58809041  0.11015766  1
  Si  Si119  1  0.13532207  0.91546278  0.88469016  1
  Si  Si120  1  0.80990169  0.08352949  0.88496650  1
  Si  Si121  1  0.19325308  0.41733038  0.61762926  1
  Si  Si122  1  0.85382057  0.09012618  0.10757616  1
  Si  Si123  1  0.97433646  0.16710558  0.88432938  1
  Si  Si124  1  0.31337142  0.83536754  0.38838369  1
  Si  Si125  1  0.13977809  0.08065813  0.88447629  1
  Si  Si126  1  0.36332500  0.83535251  0.61420639  1
  Si  Si127  1  0.80356395  0.08170697  0.38114999  1
  Si  Si128  1  0.02561551  0.66232675  0.11380166  1
  Si  Si129  1  0.14400428  0.91651696  0.38573579  1
  Si  Si130  1  0.96514030  0.16864272  0.38523306  1
  Si  Si131  1  0.13351952  0.41064983  0.89135984  1
  Si  Si132  1  0.85693304  0.91730018  0.61344145  1
  Si  Si133  1  0.01880935  0.83257303  0.61022921  1
  Si  Si134  1  0.14131387  0.40740900  0.38633350  1
  Si  Si135  1  0.31262308  0.67121639  0.89046357  1
  Si  Si136  1  0.64357721  0.33110656  0.88780987  1
  Si  Si137  1  0.20096471  0.58369957  0.61623029  1
  Si  Si138  1  0.19710916  0.41636361  0.11645827  1
  Si  Si139  1  0.68612676  0.32983448  0.11015681  1
  Si  Si140  1  0.65114970  0.83061023  0.88877717  1
  Si  Si141  1  0.52541097  0.58163527  0.11502054  1
  Si  Si142  1  0.69426716  0.32932303  0.61134368  1
  Si  Si143  1  0.64338147  0.83132380  0.38387991  1
  Si  Si144  1  0.52670869  0.08135791  0.61665076  1
  Si  Si145  1  0.36172057  0.33353236  0.11662734  1
  Si  Si146  1  0.63713500  0.66813135  0.38300863  1
  Si  Si147  1  0.02915558  0.33562394  0.11047554  1
  Si  Si148  1  0.97621779  0.83635134  0.38563691  1
  Si  Si149  1  0.68823745  0.83288042  0.11069745  1
  Si  Si150  1  0.35996877  0.66433331  0.11511235  1
  Si  Si151  1  0.96969070  0.66833228  0.89050341  1
  Si  Si152  1  0.69375540  0.83346435  0.61386804  1
  Si  Si153  1  0.48335615  0.59280974  0.89063041  1
  Si  Si154  1  0.85420173  0.58142267  0.61255607  1
  Si  Si155  1  0.69166352  0.16359365  0.61318931  1
  Si  Si156  1  0.36117234  0.16261468  0.61782301  1
  Si  Si157  1  0.35402961  0.32736477  0.61374246  1
  Si  Si158  1  0.52714762  0.91658454  0.11575425  1
  Si  Si159  1  0.31037612  0.15834103  0.88990179  1
  Si  Si160  1  0.64901374  0.32994570  0.38591258  1
  Si  Si161  1  0.80598402  0.41987957  0.38305375  1
  Si  Si162  1  0.97194413  0.83386412  0.88333914  1
  Si  Si163  1  0.79607181  0.58499784  0.38497177  1
  Si  Si164  1  0.85686038  0.41559962  0.61681162  1
  Si  Si165  1  0.96892261  0.33388753  0.38349861  1
  Si  Si166  1  0.48006436  0.58387593  0.38904467  1
  Si  Si167  1  0.52334257  0.58826629  0.61408833  1
  Si  Si168  1  0.68759411  0.66880484  0.11314733  1
  Si  Si169  1  0.96660857  0.33144449  0.88486484  1
  Si  Si170  1  0.69328348  0.67028655  0.61372457  1
  Si  Si171  1  0.53068349  0.91546832  0.61551098  1
  Si  Si172  1  0.19349267  0.58135773  0.11556301  1
  Si  Si173  1  0.19108231  0.08629854  0.11103618  1
  Si  Si174  1  0.80818777  0.58321029  0.88483825  1
  Si  Si175  1  0.68454722  0.16537174  0.11162593  1
  Si  Si176  1  0.35810808  0.16861413  0.11393610  1
  Si  Si177  1  0.02930585  0.82798950  0.10957663  1
  Si  Si178  1  0.64503822  0.16859362  0.38533508  1
  Si  Si179  1  0.30853720  0.33326243  0.38741736  1
  Si  Si180  1  0.31193335  0.16949373  0.38988165  1
  Si  Si181  1  0.36506592  0.83037190  0.11273540  1
  Si  Si182  1  0.02217165  0.34181224  0.61366027  1
  Si  Si183  1  0.02204092  0.17050077  0.11354108  1
  Si  Si184  1  0.80684467  0.91705461  0.38236159  1
  Si  Si185  1  0.36305551  0.67055581  0.61844906  1
  Si  Si186  1  0.52197035  0.08180518  0.11386257  1
  Si  Si187  1  0.30591022  0.83782969  0.88906900  1
  Si  Si188  1  0.85493405  0.08019548  0.60996205  1
  Si  Si189  1  0.80997508  0.92004674  0.88350219  1
  Si  Si190  1  0.47963383  0.91491902  0.38727172  1
  Si  Si191  1  0.52593519  0.41688081  0.11545363  1
  O  O192  1  0.26696072  0.13257402  0.08215541  1
  O  O193  1  0.28563045  0.10689690  0.58937575  1
  O  O194  1  0.27091475  0.62203380  0.08615989  1
  O  O195  1  0.28545011  0.61605667  0.59029999  1
  O  O196  1  0.60192520  0.11459246  0.08160276  1
  O  O197  1  0.60596853  0.11575896  0.58624015  1
  O  O198  1  0.60467885  0.61742433  0.08506192  1
  O  O199  1  0.60572631  0.62544336  0.58782790  1
  O  O200  1  0.93184602  0.13185382  0.07907123  1
  O  O201  1  0.92992579  0.11101682  0.57491705  1
  O  O202  1  0.93701760  0.62130882  0.08235806  1
  O  O203  1  0.93015592  0.60105869  0.57347920  1
  O  O204  1  0.11417227  0.36906970  0.08512518  1
  O  O205  1  0.10207246  0.38103218  0.58657448  1
  O  O206  1  0.10772295  0.85731267  0.07673618  1
  O  O207  1  0.09815946  0.85831026  0.57658732  1
  O  O208  1  0.43945898  0.37196140  0.08735787  1
  O  O209  1  0.42664634  0.36001397  0.57726182  1
  O  O210  1  0.44992169  0.86155137  0.08637647  1
  O  O211  1  0.45136709  0.86191676  0.58828952  1
  O  O212  1  0.76143347  0.35703194  0.07390083  1
  O  O213  1  0.78108464  0.35858778  0.58618001  1
  O  O214  1  0.76375870  0.85845969  0.07395777  1
  O  O215  1  0.77444800  0.86623636  0.58405825  1
  O  O216  1  0.27650049  0.37978633  0.08728781  1
  O  O217  1  0.26434252  0.37048644  0.58755990  1
  O  O218  1  0.28728087  0.87666415  0.07454874  1
  O  O219  1  0.28950327  0.88736886  0.57832827  1
  O  O220  1  0.60128652  0.37949283  0.08320897  1
  O  O221  1  0.61517633  0.37609658  0.57563379  1
  O  O222  1  0.60753115  0.88664246  0.08381532  1
  O  O223  1  0.61114083  0.88480231  0.58362384  1
  O  O224  1  0.94958147  0.38122054  0.07237744  1
  O  O225  1  0.94121614  0.39556882  0.58521544  1
  O  O226  1  0.94572815  0.87129438  0.07338274  1
  O  O227  1  0.93849500  0.88873206  0.58328251  1
  O  O228  1  0.10171830  0.13147917  0.08601616  1
  O  O229  1  0.12692480  0.14860583  0.58225828  1
  O  O230  1  0.10388462  0.62145336  0.08517705  1
  O  O231  1  0.12074688  0.62981145  0.58155426  1
  O  O232  1  0.43484255  0.12724778  0.08390514  1
  O  O233  1  0.44471990  0.13195593  0.58958364  1
  O  O234  1  0.43701618  0.62417846  0.08497657  1
  O  O235  1  0.44509582  0.64499729  0.58701938  1
  O  O236  1  0.76632317  0.13842367  0.07982895  1
  O  O237  1  0.76713754  0.12637117  0.58097811  1
  O  O238  1  0.77090938  0.64277438  0.08337094  1
  O  O239  1  0.76866858  0.63032023  0.58212262  1
  O  O240  1  0.04496032  0.12367164  0.42226958  1
  O  O241  1  0.06317637  0.12405204  0.91314117  1
  O  O242  1  0.04135388  0.59748621  0.42760535  1
  O  O243  1  0.05445797  0.62895884  0.92796789  1
  O  O244  1  0.38549638  0.11619161  0.42819157  1
  O  O245  1  0.39612553  0.10907718  0.91578385  1
  O  O246  1  0.39931646  0.60204510  0.42289527  1
  O  O247  1  0.40507737  0.63361707  0.91853944  1
  O  O248  1  0.72158127  0.11029911  0.41124615  1
  O  O249  1  0.72754283  0.11604105  0.91376080  1
  O  O250  1  0.70695334  0.60714990  0.41177084  1
  O  O251  1  0.72488790  0.61214417  0.91515994  1
  O  O252  1  0.21700227  0.34820559  0.41100161  1
  O  O253  1  0.20145380  0.35047415  0.92314919  1
  O  O254  1  0.22623890  0.86353735  0.41295812  1
  O  O255  1  0.22119080  0.87039600  0.91468440  1
  O  O256  1  0.56808832  0.34844898  0.41966289  1
  O  O257  1  0.56673572  0.35522550  0.92362579  1
  O  O258  1  0.55944674  0.85679818  0.41340991  1
  O  O259  1  0.57354965  0.85450223  0.92471045  1
  O  O260  1  0.89382340  0.37652459  0.41354208  1
  O  O261  1  0.88418689  0.36343867  0.91300255  1
  O  O262  1  0.89330620  0.87351807  0.41229903  1
  O  O263  1  0.89661890  0.87623763  0.91301459  1
  O  O264  1  0.05786946  0.37412692  0.41386733  1
  O  O265  1  0.04365732  0.38495381  0.91498228  1
  O  O266  1  0.05918238  0.88675547  0.41313592  1
  O  O267  1  0.05974308  0.87611870  0.91614419  1
  O  O268  1  0.37820681  0.39191637  0.42030634  1
  O  O269  1  0.38772587  0.39127499  0.93639754  1
  O  O270  1  0.39340126  0.89072877  0.41578918  1
  O  O271  1  0.38454881  0.88618684  0.92488219  1
  O  O272  1  0.72868621  0.38378427  0.41527375  1
  O  O273  1  0.72455864  0.38411635  0.91637195  1
  O  O274  1  0.72635166  0.88202067  0.41279664  1
  O  O275  1  0.73303879  0.88352238  0.91533640  1
  O  O276  1  0.22467040  0.15267490  0.41669847  1
  O  O277  1  0.23084640  0.11749512  0.91744858  1
  O  O278  1  0.21910044  0.64138661  0.43333458  1
  O  O279  1  0.24362087  0.63255692  0.92705781  1
  O  O280  1  0.56795692  0.14922462  0.42270201  1
  O  O281  1  0.56054378  0.14413428  0.91382978  1
  O  O282  1  0.55046928  0.64996982  0.41100358  1
  O  O283  1  0.56526070  0.64632355  0.91682690  1
  O  O284  1  0.88146370  0.13438621  0.41210424  1
  O  O285  1  0.89560543  0.12958652  0.91493833  1
  O  O286  1  0.86474542  0.64157717  0.42047270  1
  O  O287  1  0.89041286  0.63078988  0.92094087  1
  O  O288  1  0.18013196  0.01082805  0.07063697  1
  O  O289  1  0.16363501  0.01042126  0.57999135  1
  O  O290  1  0.18743130  0.49876683  0.08582759  1
  O  O291  1  0.19398408  0.49951140  0.58884545  1
  O  O292  1  0.50587984  -0.00140842  0.08619176  1
  O  O293  1  0.51122983  -0.00136889  0.58778149  1
  O  O294  1  0.51349575  0.49929730  0.08616680  1
  O  O295  1  0.50451119  0.51216776  0.57614664  1
  O  O296  1  0.84079849  0.01233356  0.07115583  1
  O  O297  1  0.83169675  -0.00250227  0.58189796  1
  O  O298  1  0.83011440  0.51236355  0.07243601  1
  O  O299  1  0.82551187  0.49675407  0.59212443  1
  O  O300  1  0.01947817  0.25236817  0.08092840  1
  O  O301  1  0.00049448  0.26569345  0.57673125  1
  O  O302  1  0.01655909  0.74309818  0.08237930  1
  O  O303  1  -0.01290374  0.75435109  0.58096654  1
  O  O304  1  0.35393914  0.25192861  0.08512712  1
  O  O305  1  0.33786850  0.24289396  0.58761334  1
  O  O306  1  0.35429666  0.74595187  0.08485546  1
  O  O307  1  0.34274776  0.75194797  0.58846158  1
  O  O308  1  0.65912217  0.24700157  0.08417233  1
  O  O309  1  0.67951710  0.24518609  0.58322132  1
  O  O310  1  0.65979337  0.74984772  0.08537683  1
  O  O311  1  0.67770563  0.75237243  0.58097174  1
  O  O312  1  0.16653608  -0.00704653  0.42206588  1
  O  O313  1  0.14217254  -0.00191312  0.91468683  1
  O  O314  1  0.16907592  0.48170816  0.42398761  1
  O  O315  1  0.15626298  0.48830696  0.92649184  1
  O  O316  1  0.51155934  -0.00980227  0.42247476  1
  O  O317  1  0.51558388  0.00975038  0.92322826  1
  O  O318  1  0.52335732  0.50844609  0.41702943  1
  O  O319  1  0.50414858  0.51629685  0.92681571  1
  O  O320  1  0.81968841  -0.00037424  0.41128182  1
  O  O321  1  0.82319189  0.00193697  0.91500808  1
  O  O322  1  0.81761430  0.50202679  0.41238956  1
  O  O323  1  0.82292711  0.49816283  0.91023554  1
  O  O324  1  0.34076716  0.25321298  0.41476380  1
  O  O325  1  0.32739722  0.23433080  0.92723764  1
  O  O326  1  0.34237081  0.76002105  0.42426670  1
  O  O327  1  0.32084371  0.75515897  0.91791055  1
  O  O328  1  0.68418930  0.24852918  0.40919098  1
  O  O329  1  0.67398468  0.24852445  0.91422210  1
  O  O330  1  0.66764467  0.74911738  0.41133252  1
  O  O331  1  0.68106364  0.74904423  0.91581927  1
  O  O332  1  0.97166389  0.25251611  0.41475581  1
  O  O333  1  0.98420495  0.24941674  0.91599014  1
  O  O334  1  0.99297064  0.75987647  0.42211684  1
  O  O335  1  0.97434202  0.75331791  0.91663954  1
  O  O336  1  0.21619067  0.07811329  0.19001764  1
  O  O337  1  0.21176809  0.08470553  0.69485458  1
  O  O338  1  0.21167408  0.58157303  0.19533264  1
  O  O339  1  0.21550323  0.58416365  0.69729616  1
  O  O340  1  0.54482023  0.08684733  0.19300434  1
  O  O341  1  0.54580966  0.08187777  0.69728319  1
  O  O342  1  0.54238757  0.58366369  0.19535456  1
  O  O343  1  0.53243160  0.58389735  0.69383446  1
  O  O344  1  0.86732484  0.08585494  0.18749776  1
  O  O345  1  0.86985480  0.08194288  0.69030249  1
  O  O346  1  0.87338753  0.58625262  0.19011897  1
  O  O347  1  0.88008315  0.59195375  0.69166234  1
  O  O348  1  0.04280498  0.33583363  0.19118007  1
  O  O349  1  0.04285709  0.33570008  0.69475178  1
  O  O350  1  0.04325790  0.83006397  0.19092689  1
  O  O351  1  0.04120281  0.83461430  0.69190085  1
  O  O352  1  0.37884442  0.33300986  0.19654305  1
  O  O353  1  0.37491549  0.32932743  0.69457048  1
  O  O354  1  0.37855889  0.83121635  0.19352904  1
  O  O355  1  0.37909890  0.83476953  0.69531649  1
  O  O356  1  0.70619900  0.33235731  0.19108246  1
  O  O357  1  0.70847935  0.32754344  0.69229318  1
  O  O358  1  0.70839520  0.83370969  0.19172140  1
  O  O359  1  0.70642703  0.83419604  0.69336326  1
  O  O360  1  0.21249066  0.41825599  0.19672927  1
  O  O361  1  0.20945670  0.41732652  0.69823956  1
  O  O362  1  0.21551807  0.91493982  0.20151473  1
  O  O363  1  0.21350761  0.91652962  0.70206249  1
  O  O364  1  0.54513363  0.41674541  0.19556378  1
  O  O365  1  0.54069432  0.41344717  0.69993209  1
  O  O366  1  0.54636673  0.91439035  0.19532314  1
  O  O367  1  0.54905177  0.91697080  0.69596071  1
  O  O368  1  0.87745635  0.41495587  0.19638662  1
  O  O369  1  0.88054701  0.40780694  0.69579976  1
  O  O370  1  0.87734242  0.91647494  0.19744482  1
  O  O371  1  0.87581801  0.91893588  0.69303245  1
  O  O372  1  0.03127917  0.17161418  0.19177711  1
  O  O373  1  0.04397485  0.16836816  0.69980308  1
  O  O374  1  0.04430770  0.66456040  0.19371064  1
  O  O375  1  0.04494240  0.66704014  0.70189655  1
  O  O376  1  0.37658090  0.16836204  0.19380061  1
  O  O377  1  0.37930785  0.16483922  0.69869618  1
  O  O378  1  0.37883807  0.66468892  0.19525182  1
  O  O379  1  0.37923503  0.67009273  0.69928608  1
  O  O380  1  0.70566063  0.16515084  0.19214976  1
  O  O381  1  0.70965348  0.16400795  0.69384844  1
  O  O382  1  0.70665226  0.66719410  0.19352189  1
  O  O383  1  0.71542143  0.67586551  0.69257467  1
  O  O384  1  0.11663091  0.07353702  0.29934367  1
  O  O385  1  0.12762960  0.08108761  0.80521446  1
  O  O386  1  0.12135542  0.58239918  0.30077386  1
  O  O387  1  0.12458451  0.58308287  0.80222443  1
  O  O388  1  0.45608438  0.08445511  0.30043155  1
  O  O389  1  0.46210207  0.08358254  0.80777918  1
  O  O390  1  0.45880279  0.58433910  0.30685682  1
  O  O391  1  0.46077634  0.58747437  0.80967429  1
  O  O392  1  0.78793599  0.08259651  0.30072782  1
  O  O393  1  0.79148781  0.08399745  0.80451805  1
  O  O394  1  0.78303129  0.58762227  0.30468419  1
  O  O395  1  0.79574849  0.59173033  0.80711553  1
  O  O396  1  0.29172814  0.33456211  0.30608100  1
  O  O397  1  0.28850613  0.33231218  0.80225326  1
  O  O398  1  0.29517499  0.83259306  0.30722284  1
  O  O399  1  0.29218879  0.83527175  0.80830893  1
  O  O400  1  0.62717277  0.33350899  0.30454967  1
  O  O401  1  0.62382697  0.32857249  0.80693707  1
  O  O402  1  0.62524475  0.83283589  0.30338214  1
  O  O403  1  0.62822026  0.83442206  0.80782429  1
  O  O404  1  0.95264680  0.33341857  0.30331388  1
  O  O405  1  0.95316058  0.33005870  0.80462204  1
  O  O406  1  0.95726924  0.83362376  0.30456254  1
  O  O407  1  0.96059705  0.83392225  0.80415429  1
  O  O408  1  0.12199069  0.41487196  0.30527457  1
  O  O409  1  0.12140163  0.41414943  0.80963948  1
  O  O410  1  0.12319761  0.91424523  0.30485398  1
  O  O411  1  0.11955767  0.91623005  0.80474179  1
  O  O412  1  0.45726122  0.41653739  0.30028257  1
  O  O413  1  0.45272348  0.41615107  0.80331232  1
  O  O414  1  0.45838745  0.91245069  0.30698775  1
  O  O415  1  0.45807004  0.91687632  0.80071616  1
  O  O416  1  0.78611562  0.41429799  0.30346021  1
  O  O417  1  0.78236809  0.40763646  0.80380434  1
  O  O418  1  0.78731328  0.91602507  0.30222120  1
  O  O419  1  0.78952888  0.92190638  0.80414120  1
  O  O420  1  0.30304485  0.16700815  0.30937510  1
  O  O421  1  0.29118857  0.16345820  0.80883010  1
  O  O422  1  0.28921032  0.66687120  0.30071834  1
  O  O423  1  0.29273657  0.66897848  0.80932671  1
  O  O424  1  0.62422409  0.16663400  0.30416921  1
  O  O425  1  0.62649444  0.16534090  0.80482968  1
  O  O426  1  0.62192550  0.66834322  0.30225464  1
  O  O427  1  0.62394339  0.67349743  0.80643726  1
  O  O428  1  0.94952665  0.17100447  0.30519502  1
  O  O429  1  0.95299499  0.16910824  0.80511732  1
  O  O430  1  0.95291098  0.66717198  0.29756913  1
  O  O431  1  0.95676928  0.66740984  0.81010657  1
  F  F432  1  0.04838143  -0.01026817  0.19154980  1
  F  F433  1  0.04596654  -0.00367893  0.69958856  1
  F  F434  1  0.04572641  0.49859367  0.19973577  1
  F  F435  1  0.04680066  0.49737646  0.70211100  1
  F  F436  1  0.37627465  -0.00204410  0.20034529  1
  F  F437  1  0.38135298  0.00305603  0.70356001  1
  F  F438  1  0.37836988  0.50239240  0.20251457  1
  F  F439  1  0.37653459  0.50221598  0.70594268  1
  F  F440  1  0.71056058  0.00002123  0.19825550  1
  F  F441  1  0.71155515  0.00056039  0.70117750  1
  F  F442  1  0.70313648  0.50071461  0.19683995  1
  F  F443  1  0.69762956  0.48502046  0.68753246  1
  F  F444  1  0.21836051  0.25985873  0.19957880  1
  F  F445  1  0.21142170  0.24795829  0.70493820  1
  F  F446  1  0.21208794  0.74950217  0.20133641  1
  F  F447  1  0.21490672  0.75046412  0.70544055  1
  F  F448  1  0.54441413  0.25054648  0.20213422  1
  F  F449  1  0.54483172  0.24715020  0.70348563  1
  F  F450  1  0.54422337  0.74992586  0.20089611  1
  F  F451  1  0.54738799  0.75232970  0.70404247  1
  F  F452  1  0.87498499  0.25138379  0.19868249  1
  F  F453  1  0.87695890  0.24816372  0.69975413  1
  F  F454  1  0.87595215  0.75128572  0.19855828  1
  F  F455  1  0.88065168  0.74964908  0.70194127  1
  F  F456  1  0.28954367  0.00085490  0.29992121  1
  F  F457  1  0.28932637  0.00183508  0.79998227  1
  F  F458  1  0.28838230  0.49956594  0.29889866  1
  F  F459  1  0.28854184  0.50146911  0.80163137  1
  F  F460  1  0.62916139  -0.00062560  0.29888031  1
  F  F461  1  0.62517194  0.00004342  0.79899516  1
  F  F462  1  0.62223484  0.50025081  0.29662537  1
  F  F463  1  0.61856794  0.49055818  0.80369051  1
  F  F464  1  0.95175312  -0.00049038  0.29558038  1
  F  F465  1  0.95299789  -0.00253263  0.79845770  1
  F  F466  1  0.95749570  0.49975549  0.29761970  1
  F  F467  1  0.96444152  0.50013022  0.80115980  1
  F  F468  1  0.11317930  0.26079464  0.29962155  1
  F  F469  1  0.11998799  0.25037795  0.80004223  1
  F  F470  1  0.12058617  0.75107876  0.29591204  1
  F  F471  1  0.12281101  0.75386595  0.79915281  1
  F  F472  1  0.45744190  0.25023779  0.29745806  1
  F  F473  1  0.45541958  0.24810392  0.79970515  1
  F  F474  1  0.45623807  0.75043427  0.29643946  1
  F  F475  1  0.45677578  0.75231351  0.79998652  1
  F  F476  1  0.78634974  0.24968677  0.29276409  1
  F  F477  1  0.78788433  0.24594057  0.79563034  1
  F  F478  1  0.78656685  0.75198731  0.29423614  1
  F  F479  1  0.78983613  0.75167297  0.80039025  1
