# generated using pymatgen
data_K24Na3Li5Mg64Fe17Si79(O5F)48
_symmetry_space_group_name_H-M   'P 1'
_cell_length_a   16.08418863
_cell_length_b   18.57435795
_cell_length_c   20.53544488
_cell_angle_alpha   90.00257013
_cell_angle_beta   100.00782982
_cell_angle_gamma   89.98807474
_symmetry_Int_Tables_number   1
_chemical_formula_structural   K24Na3Li5Mg64Fe17Si79(O5F)48
_chemical_formula_sum   'K24 Na3 Li5 Mg64 Fe17 Si79 O240 F48'
_cell_volume   6041.68480978
_cell_formula_units_Z   1
loop_
 _symmetry_equiv_pos_site_id
 _symmetry_equiv_pos_as_xyz
  1  'x, y, z'
loop_
 _atom_site_type_symbol
 _atom_site_label
 _atom_site_symmetry_multiplicity
 _atom_site_fract_x
 _atom_site_fract_y
 _atom_site_fract_z
 _atom_site_occupancy
  K  K0  1  0.01072260  0.00154672  0.00619672  1
  K  K1  1  -0.00388083  -0.00234824  0.49266556  1
  K  K2  1  0.00334294  0.49541765  0.00396181  1
  K  K3  1  0.00485775  0.49982028  0.49748119  1
  K  K4  1  0.32995527  0.00498388  -0.00344265  1
  K  K5  1  0.32857369  0.00102513  0.49800779  1
  K  K6  1  0.33994953  0.50227788  -0.00164847  1
  K  K7  1  0.32919612  0.50365437  0.50221545  1
  K  K8  1  0.66875718  0.00214619  0.00444024  1
  K  K9  1  0.66616154  -0.00122443  0.49627349  1
  K  K10  1  0.66926362  0.49315001  0.00213375  1
  K  K11  1  0.66826817  0.49434288  0.49666044  1
  K  K12  1  0.16034454  0.24570082  -0.00032869  1
  K  K13  1  0.15960301  0.24967236  0.50215005  1
  K  K14  1  0.16884276  0.74964246  0.00489276  1
  K  K15  1  0.15070520  0.74941445  0.48955636  1
  K  K16  1  0.49468941  0.24501543  0.00250858  1
  K  K17  1  0.50853255  0.25827927  0.49877883  1
  K  K18  1  0.50143237  0.75395683  0.00497531  1
  K  K19  1  0.50318673  0.74776628  0.49592965  1
  K  K20  1  0.83862308  0.25383670  0.00239058  1
  K  K21  1  0.83328352  0.24879332  0.49721356  1
  K  K22  1  0.83290415  0.75880046  0.01030392  1
  K  K23  1  0.83820421  0.74988667  0.49180970  1
  Na  Na24  1  0.66599814  0.24909953  0.74596603  1
  Na  Na25  1  0.50114204  0.32817328  0.24211276  1
  Na  Na26  1  0.33748855  0.58051590  0.75601611  1
  Li  Li27  1  0.15848339  -0.00399176  0.25086707  1
  Li  Li28  1  0.66090544  0.24966915  0.23843194  1
  Li  Li29  1  0.00464501  0.91579315  0.25049763  1
  Li  Li30  1  0.16780764  0.16495039  0.75626418  1
  Li  Li31  1  0.66414397  0.91862083  0.75016480  1
  Mg  Mg32  1  0.16628448  0.50024922  0.25035294  1
  Mg  Mg33  1  0.50120203  -0.00127408  0.25263876  1
  Mg  Mg34  1  -0.00062618  0.74947297  0.74777374  1
  Mg  Mg35  1  0.00251610  0.24982691  0.24646002  1
  Mg  Mg36  1  0.00188310  0.24760867  0.74554430  1
  Mg  Mg37  1  0.33361071  0.75004540  0.75461929  1
  Mg  Mg38  1  0.49983964  0.00086242  0.75534734  1
  Mg  Mg39  1  0.33345293  0.75120078  0.25436081  1
  Mg  Mg40  1  -0.00058314  0.75405443  0.25392272  1
  Mg  Mg41  1  0.16561597  0.00279561  0.75325477  1
  Mg  Mg42  1  0.66823205  0.75136467  0.25187465  1
  Mg  Mg43  1  0.82820405  -0.00124099  0.74707087  1
  Mg  Mg44  1  0.50029513  0.49832206  0.74966998  1
  Mg  Mg45  1  0.66579517  0.75371557  0.74899911  1
  Mg  Mg46  1  0.33091810  0.24921184  0.75346445  1
  Mg  Mg47  1  0.50115636  0.49811035  0.24691710  1
  Mg  Mg48  1  0.83581285  0.00034144  0.25106203  1
  Mg  Mg49  1  0.33445731  0.24841543  0.24876746  1
  Mg  Mg50  1  0.16740236  0.49770059  0.74759913  1
  Mg  Mg51  1  0.83480029  0.49679306  0.24740001  1
  Mg  Mg52  1  0.83314246  0.49985639  0.74047158  1
  Mg  Mg53  1  0.16736211  0.33359869  0.24705371  1
  Mg  Mg54  1  0.33577720  0.41617474  0.75105175  1
  Mg  Mg55  1  0.83568540  0.83760190  0.25106087  1
  Mg  Mg56  1  0.83100150  0.16823383  0.24791881  1
  Mg  Mg57  1  0.50007111  0.16581360  0.24793905  1
  Mg  Mg58  1  0.33457117  0.91604687  0.75694002  1
  Mg  Mg59  1  0.50113973  0.66486623  0.25170040  1
  Mg  Mg60  1  -0.00152553  0.41379605  0.74110944  1
  Mg  Mg61  1  0.66494189  0.58227022  0.24790625  1
  Mg  Mg62  1  0.33311495  0.58501160  0.25233861  1
  Mg  Mg63  1  0.50135096  0.83653489  0.75395139  1
  Mg  Mg64  1  -0.00016484  0.41387249  0.24753351  1
  Mg  Mg65  1  0.50147670  0.33392601  0.74998706  1
  Mg  Mg66  1  0.50077592  0.66712398  0.75192174  1
  Mg  Mg67  1  0.83326218  0.66598185  0.25116961  1
  Mg  Mg68  1  0.16957349  0.83441510  0.75551640  1
  Mg  Mg69  1  0.82918119  0.83497556  0.74919197  1
  Mg  Mg70  1  0.83098575  0.16562729  0.74543777  1
  Mg  Mg71  1  0.83084628  0.33153437  0.24465911  1
  Mg  Mg72  1  0.66732419  0.41530338  0.74576784  1
  Mg  Mg73  1  0.33402786  0.41553780  0.24683530  1
  Mg  Mg74  1  0.16337870  0.83777369  0.25485065  1
  Mg  Mg75  1  0.66521749  0.41198994  0.24390243  1
  Mg  Mg76  1  0.16602750  0.16232536  0.24965538  1
  Mg  Mg77  1  0.16450762  0.66721844  0.25378643  1
  Mg  Mg78  1  0.16530904  0.32991387  0.74738060  1
  Mg  Mg79  1  0.00130933  0.07937006  0.24910097  1
  Mg  Mg80  1  0.66563272  0.08697754  0.24902754  1
  Mg  Mg81  1  0.49921616  0.16629431  0.75182052  1
  Mg  Mg82  1  -0.00165852  0.58325113  0.74467697  1
  Mg  Mg83  1  0.50250690  0.83385259  0.25412677  1
  Mg  Mg84  1  0.83205521  0.33285755  0.74167519  1
  Mg  Mg85  1  0.33157045  0.08115245  0.25215938  1
  Mg  Mg86  1  0.66887753  0.91492030  0.25508823  1
  Mg  Mg87  1  0.83214913  0.66579072  0.74535517  1
  Mg  Mg88  1  0.33197480  0.08569839  0.75560899  1
  Mg  Mg89  1  0.00076849  0.08418736  0.74770670  1
  Mg  Mg90  1  0.00097560  0.58412512  0.25220664  1
  Mg  Mg91  1  0.16899363  0.66528048  0.75127909  1
  Mg  Mg92  1  0.66416085  0.08079626  0.74786227  1
  Mg  Mg93  1  0.00002989  0.91609777  0.75248614  1
  Mg  Mg94  1  0.66640037  0.58583289  0.74712474  1
  Mg  Mg95  1  0.33095239  0.91776221  0.25530870  1
  Fe  Fe96  1  0.52482963  0.58329524  0.10958596  1
  Fe  Fe97  1  0.13736525  0.08509305  0.88948162  1
  Fe  Fe98  1  0.68569444  0.16630890  0.10917100  1
  Fe  Fe99  1  0.47945515  0.08787608  0.89291704  1
  Fe  Fe100  1  0.30985903  0.82893367  0.89522989  1
  Fe  Fe101  1  0.85599923  0.41752440  0.10637732  1
  Fe  Fe102  1  0.48198158  0.41513400  0.89148746  1
  Fe  Fe103  1  0.14439613  0.58185246  0.39229848  1
  Fe  Fe104  1  0.69242394  0.32947456  0.60372313  1
  Fe  Fe105  1  0.69132835  0.83722106  0.11252258  1
  Fe  Fe106  1  0.02653869  0.83564975  0.11269188  1
  Fe  Fe107  1  0.85385183  0.58854964  0.60438671  1
  Fe  Fe108  1  0.02700062  0.33189901  0.60426064  1
  Fe  Fe109  1  0.35879996  0.33176799  0.10827250  1
  Fe  Fe110  1  0.03091716  0.33227271  0.10630683  1
  Fe  Fe111  1  0.97483055  0.83754685  0.39239456  1
  Fe  Fe112  1  0.64240943  0.83060034  0.39510650  1
  Si  Si113  1  0.64725557  0.33189858  0.88406270  1
  Si  Si114  1  0.47307709  0.41815642  0.38414903  1
  Si  Si115  1  0.85620169  0.91040084  0.61392045  1
  Si  Si116  1  0.63832600  0.16964453  0.38505137  1
  Si  Si117  1  0.35346898  0.16204857  0.11363474  1
  Si  Si118  1  0.51948320  0.08122477  0.61351010  1
  Si  Si119  1  0.30478821  0.33824252  0.88599760  1
  Si  Si120  1  0.02806631  0.16017236  0.11272939  1
  Si  Si121  1  0.68824907  0.33410317  0.10757936  1
  Si  Si122  1  0.51883962  0.91828144  0.61668030  1
  Si  Si123  1  0.19909075  0.42309677  0.11087296  1
  Si  Si124  1  0.97631005  0.33084909  0.38381198  1
  Si  Si125  1  0.85939212  0.08624188  0.11353807  1
  Si  Si126  1  0.68500672  0.83707623  0.61571723  1
  Si  Si127  1  0.85836673  0.41762645  0.60333998  1
  Si  Si128  1  0.35732278  0.83307288  0.61640666  1
  Si  Si129  1  0.85867823  0.58666987  0.11516593  1
  Si  Si130  1  0.19094013  0.58770978  0.11689455  1
  Si  Si131  1  0.64363942  0.65941692  0.38935264  1
  Si  Si132  1  0.80750863  0.42035817  0.88008676  1
  Si  Si133  1  0.97703580  0.16646784  0.38397101  1
  Si  Si134  1  0.69519575  0.66685965  0.11354938  1
  Si  Si135  1  0.19337043  0.91915709  0.61748364  1
  Si  Si136  1  0.19562599  0.58431554  0.61615465  1
  Si  Si137  1  0.30980947  0.16590186  0.38632373  1
  Si  Si138  1  0.80544608  0.57584391  0.38367211  1
  Si  Si139  1  0.85679997  0.07583723  0.61059736  1
  Si  Si140  1  0.35998847  0.83494424  0.12102897  1
  Si  Si141  1  0.31314312  0.67162641  0.39185132  1
  Si  Si142  1  0.19837564  0.41754695  0.61088471  1
  Si  Si143  1  0.03200013  0.66865480  0.61082855  1
  Si  Si144  1  0.51803461  0.07796839  0.11495935  1
  Si  Si145  1  0.97612543  0.66696960  0.88362714  1
  Si  Si146  1  0.80730305  0.92601363  0.39416091  1
  Si  Si147  1  0.19792135  0.91354836  0.11740122  1
  Si  Si148  1  0.30700034  0.17204876  0.89100555  1
  Si  Si149  1  0.52752527  0.41703410  0.10911630  1
  Si  Si150  1  0.64375972  0.83373075  0.88463333  1
  Si  Si151  1  0.80888755  0.58486138  0.88269799  1
  Si  Si152  1  0.19406587  0.08305550  0.61641646  1
  Si  Si153  1  0.13493188  0.41467839  0.88146612  1
  Si  Si154  1  0.52578734  0.41953985  0.60955671  1
  Si  Si155  1  0.64504442  0.16802671  0.88422803  1
  Si  Si156  1  0.96942155  0.66332045  0.39073792  1
  Si  Si157  1  0.68884650  0.15529354  0.60837093  1
  Si  Si158  1  0.80421716  0.08202512  0.88258180  1
  Si  Si159  1  0.96572976  0.16786411  0.88374927  1
  Si  Si160  1  0.96868113  0.33405019  0.87880184  1
  Si  Si161  1  0.31033406  0.33008787  0.38569459  1
  Si  Si162  1  0.14586000  0.41124905  0.38839077  1
  Si  Si163  1  0.64645729  0.67070812  0.88523804  1
  Si  Si164  1  0.52246270  0.58553299  0.61356401  1
  Si  Si165  1  0.47364786  0.91894103  0.39163714  1
  Si  Si166  1  0.13654720  0.91287724  0.89107094  1
  Si  Si167  1  0.35674692  0.16915230  0.61509679  1
  Si  Si168  1  0.36049121  0.67025520  0.61721909  1
  Si  Si169  1  0.02808609  0.83520140  0.61642259  1
  Si  Si170  1  0.80735826  0.09105602  0.38597011  1
  Si  Si171  1  0.80653337  0.91769734  0.88351603  1
  Si  Si172  1  0.64109607  0.33502280  0.38110288  1
  Si  Si173  1  0.85817666  0.92272181  0.11181316  1
  Si  Si174  1  0.96825492  0.83252031  0.88471882  1
  Si  Si175  1  0.47626411  0.08461482  0.38712100  1
  Si  Si176  1  0.48161501  0.91612791  0.89314538  1
  Si  Si177  1  0.80894759  0.41108729  0.38332281  1
  Si  Si178  1  0.02051907  0.16010149  0.60878082  1
  Si  Si179  1  0.47363964  0.58199922  0.38807853  1
  Si  Si180  1  0.36272470  0.33422668  0.61506687  1
  Si  Si181  1  0.19425056  0.07718573  0.11864361  1
  Si  Si182  1  0.52046195  0.91710068  0.11666523  1
  Si  Si183  1  0.31113430  0.66129164  0.89014824  1
  Si  Si184  1  0.35552740  0.67132104  0.11613505  1
  Si  Si185  1  0.14332837  0.08537280  0.38680083  1
  Si  Si186  1  0.02260921  0.66701338  0.11517629  1
  Si  Si187  1  0.14061799  0.58052105  0.88427707  1
  Si  Si188  1  0.48627306  0.58515597  0.88751483  1
  Si  Si189  1  0.68431512  0.67353318  0.61008786  1
  Si  Si190  1  0.30898076  0.83768511  0.39007282  1
  Si  Si191  1  0.14543170  0.91974788  0.39184828  1
  O  O192  1  0.27658008  0.10380747  0.08755122  1
  O  O193  1  0.26826438  0.12613769  0.58431762  1
  O  O194  1  0.27087098  0.62212282  0.08706907  1
  O  O195  1  0.27708418  0.62102265  0.58982458  1
  O  O196  1  0.59776288  0.09798747  0.08048584  1
  O  O197  1  0.60145656  0.10706799  0.58161992  1
  O  O198  1  0.62759068  0.60577790  0.08178903  1
  O  O199  1  0.59996110  0.62300671  0.58290685  1
  O  O200  1  0.94944354  0.10430479  0.08760030  1
  O  O201  1  0.93583856  0.10951878  0.57938437  1
  O  O202  1  0.94705970  0.60822509  0.08859979  1
  O  O203  1  0.94898234  0.62765737  0.57381407  1
  O  O204  1  0.12710601  0.36783210  0.07552584  1
  O  O205  1  0.12126871  0.37031234  0.57226573  1
  O  O206  1  0.12637821  0.85979995  0.07977264  1
  O  O207  1  0.10145586  0.88152152  0.58814334  1
  O  O208  1  0.46231504  0.35228965  0.08261440  1
  O  O209  1  0.44123996  0.36902372  0.58387158  1
  O  O210  1  0.44522829  0.85673675  0.09217329  1
  O  O211  1  0.43533766  0.86930811  0.58474416  1
  O  O212  1  0.76860291  0.35417724  0.07213469  1
  O  O213  1  0.79000582  0.35646408  0.57179685  1
  O  O214  1  0.78225579  0.87043660  0.07489713  1
  O  O215  1  0.76752435  0.86735972  0.58535925  1
  O  O216  1  0.28446027  0.40913325  0.08082661  1
  O  O217  1  0.28292751  0.38606139  0.58416575  1
  O  O218  1  0.28752810  0.89343555  0.09105305  1
  O  O219  1  0.26886268  0.87646140  0.58788771  1
  O  O220  1  0.61788405  0.39874376  0.08458441  1
  O  O221  1  0.59793479  0.39012464  0.57050242  1
  O  O222  1  0.59866258  0.89788257  0.08037054  1
  O  O223  1  0.60292041  0.88892105  0.58839586  1
  O  O224  1  0.94541292  0.39138082  0.06564939  1
  O  O225  1  0.94534636  0.40180714  0.57483438  1
  O  O226  1  0.94220676  0.90279194  0.08082491  1
  O  O227  1  0.93497649  0.87034533  0.58668005  1
  O  O228  1  0.11155831  0.12548072  0.08680395  1
  O  O229  1  0.10266359  0.11920605  0.58461143  1
  O  O230  1  0.10830100  0.63747766  0.08818573  1
  O  O231  1  0.11387836  0.63330729  0.58341274  1
  O  O232  1  0.43774655  0.13138607  0.08716444  1
  O  O233  1  0.43477803  0.13019539  0.58458865  1
  O  O234  1  0.43291097  0.64762192  0.08053725  1
  O  O235  1  0.43795387  0.63399036  0.58510413  1
  O  O236  1  0.78805013  0.14211925  0.07869388  1
  O  O237  1  0.76741744  0.11521413  0.57799764  1
  O  O238  1  0.78864963  0.65068101  0.09148048  1
  O  O239  1  0.76108546  0.65018607  0.57406199  1
  O  O240  1  0.06338755  0.12148055  0.41746752  1
  O  O241  1  0.04346647  0.12198389  0.92300155  1
  O  O242  1  0.04917997  0.61393859  0.42451942  1
  O  O243  1  0.06392573  0.62322833  0.91340181  1
  O  O244  1  0.39585172  0.11999397  0.41684999  1
  O  O245  1  0.38571249  0.12229025  0.92653895  1
  O  O246  1  0.40125825  0.62607861  0.41991283  1
  O  O247  1  0.39696942  0.61129328  0.91034025  1
  O  O248  1  0.73101096  0.13304899  0.41601808  1
  O  O249  1  0.72207733  0.10991059  0.91208016  1
  O  O250  1  0.72287351  0.60345228  0.41374146  1
  O  O251  1  0.73029901  0.62082167  0.91335669  1
  O  O252  1  0.22945400  0.35980731  0.41695158  1
  O  O253  1  0.21787109  0.36715739  0.91189607  1
  O  O254  1  0.23223047  0.87213147  0.42300746  1
  O  O255  1  0.20794046  0.85474061  0.92172421  1
  O  O256  1  0.56367571  0.37689951  0.41125857  1
  O  O257  1  0.57187032  0.35171610  0.92395241  1
  O  O258  1  0.54974800  0.86981357  0.42939635  1
  O  O259  1  0.56195825  0.85878863  0.91602563  1
  O  O260  1  0.89618501  0.36622163  0.41329193  1
  O  O261  1  0.89276382  0.37419889  0.90894734  1
  O  O262  1  0.89277234  0.88660939  0.43073620  1
  O  O263  1  0.88578519  0.86349877  0.91343667  1
  O  O264  1  0.06361311  0.37419574  0.41470019  1
  O  O265  1  0.05500858  0.37858509  0.90965430  1
  O  O266  1  0.07421682  0.88794716  0.43062884  1
  O  O267  1  0.04710734  0.88429393  0.91415410  1
  O  O268  1  0.39767671  0.37536313  0.41514430  1
  O  O269  1  0.37965923  0.39151585  0.91914522  1
  O  O270  1  0.38841733  0.89077839  0.41898265  1
  O  O271  1  0.40344931  0.88766399  0.92707691  1
  O  O272  1  0.73090204  0.37513370  0.41523962  1
  O  O273  1  0.72917278  0.38595595  0.91033801  1
  O  O274  1  0.72938904  0.89466139  0.42698090  1
  O  O275  1  0.72420532  0.88701753  0.91244255  1
  O  O276  1  0.22983077  0.13250007  0.41750277  1
  O  O277  1  0.22466071  0.14864182  0.92209010  1
  O  O278  1  0.23955087  0.63980079  0.42793994  1
  O  O279  1  0.23145940  0.61723259  0.91565672  1
  O  O280  1  0.56291983  0.12950081  0.41865231  1
  O  O281  1  0.56856582  0.15214788  0.92369642  1
  O  O282  1  0.56351250  0.62108947  0.41772641  1
  O  O283  1  0.56336571  0.64433091  0.91507762  1
  O  O284  1  0.89686743  0.13341400  0.41485180  1
  O  O285  1  0.88112363  0.13719656  0.91069008  1
  O  O286  1  0.88500818  0.62651568  0.41495455  1
  O  O287  1  0.89683310  0.62904817  0.91179410  1
  O  O288  1  0.17384810  -0.00430585  0.08984397  1
  O  O289  1  0.19154680  0.00029000  0.58526202  1
  O  O290  1  0.16896062  0.50711454  0.08710319  1
  O  O291  1  0.18768975  0.50260776  0.58483581  1
  O  O292  1  0.48211111  -0.00356739  0.09123320  1
  O  O293  1  0.49748422  -0.00092449  0.58457985  1
  O  O294  1  0.49129797  0.49283381  0.07476595  1
  O  O295  1  0.50360598  0.50404757  0.58356981  1
  O  O296  1  0.83081937  0.00554500  0.08536650  1
  O  O297  1  0.84702454  -0.00807917  0.58294244  1
  O  O298  1  0.82401380  0.51307539  0.07897358  1
  O  O299  1  0.82142049  0.49613846  0.57521380  1
  O  O300  1  0.00879874  0.23632624  0.07535926  1
  O  O301  1  0.00716140  0.23656842  0.57029376  1
  O  O302  1  -0.00420209  0.74206282  0.07785737  1
  O  O303  1  0.02967267  0.75397543  0.58606507  1
  O  O304  1  0.32447607  0.23772217  0.07826032  1
  O  O305  1  0.34701638  0.25158899  0.58431223  1
  O  O306  1  0.32824712  0.75492930  0.09309413  1
  O  O307  1  0.34485379  0.75150034  0.58481584  1
  O  O308  1  0.64955736  0.25766421  0.07761964  1
  O  O309  1  0.67051661  0.23297404  0.57360829  1
  O  O310  1  0.66353461  0.74382915  0.08042168  1
  O  O311  1  0.65715776  0.75688957  0.58559964  1
  O  O312  1  0.16276584  0.00479257  0.41915757  1
  O  O313  1  0.15785826  -0.00909522  0.92463476  1
  O  O314  1  0.16582400  0.48742398  0.42580557  1
  O  O315  1  0.14301355  0.49746808  0.91224178  1
  O  O316  1  0.48852346  0.00311801  0.41881060  1
  O  O317  1  0.51330792  -0.00574942  0.92233991  1
  O  O318  1  0.47852840  0.49937702  0.41857705  1
  O  O319  1  0.51422025  0.50918332  0.92223885  1
  O  O320  1  0.81631272  0.01169471  0.42027028  1
  O  O321  1  0.82689773  -0.00014600  0.91216393  1
  O  O322  1  0.82383509  0.49352775  0.41281243  1
  O  O323  1  0.82263310  0.50254523  0.91102279  1
  O  O324  1  0.32734267  0.24793120  0.41586630  1
  O  O325  1  0.32663791  0.25696859  0.91490706  1
  O  O326  1  0.33224067  0.75568161  0.41871658  1
  O  O327  1  0.32830198  0.73522006  0.93171394  1
  O  O328  1  0.64285028  0.25297999  0.41347676  1
  O  O329  1  0.68334063  0.24964176  0.90293820  1
  O  O330  1  0.66287053  0.73522103  0.42765210  1
  O  O331  1  0.67090803  0.75223841  0.91354990  1
  O  O332  1  0.99027172  0.24871263  0.41426903  1
  O  O333  1  0.97656501  0.25259454  0.90922170  1
  O  O334  1  0.98059568  0.74208159  0.42551177  1
  O  O335  1  0.98595123  0.74956453  0.91293045  1
  O  O336  1  0.21289329  0.08256754  0.19829676  1
  O  O337  1  0.21431521  0.08001904  0.69567824  1
  O  O338  1  0.21171196  0.58688836  0.19748650  1
  O  O339  1  0.20339877  0.58336429  0.69532438  1
  O  O340  1  0.53997636  0.07896922  0.19616033  1
  O  O341  1  0.53992253  0.08244412  0.69329095  1
  O  O342  1  0.54327330  0.58488130  0.20191235  1
  O  O343  1  0.54303970  0.58599649  0.69385619  1
  O  O344  1  0.87671283  0.08561870  0.19484219  1
  O  O345  1  0.87495941  0.07915247  0.69097114  1
  O  O346  1  0.87794254  0.58347012  0.19663843  1
  O  O347  1  0.87767125  0.58644027  0.69679203  1
  O  O348  1  0.04788269  0.33305302  0.19916629  1
  O  O349  1  0.04518504  0.33129646  0.69584091  1
  O  O350  1  0.04873496  0.82981359  0.20263155  1
  O  O351  1  0.04418275  0.83421386  0.69697735  1
  O  O352  1  0.36534517  0.33127584  0.19829527  1
  O  O353  1  0.37647792  0.33200175  0.69490265  1
  O  O354  1  0.37819791  0.83415287  0.20193183  1
  O  O355  1  0.37716279  0.83409140  0.69658130  1
  O  O356  1  0.71253351  0.33529590  0.18864321  1
  O  O357  1  0.71489239  0.34124085  0.69332746  1
  O  O358  1  0.71363567  0.83486846  0.20437878  1
  O  O359  1  0.70933834  0.83297108  0.69510070  1
  O  O360  1  0.21031570  0.42013074  0.19289880  1
  O  O361  1  0.21067242  0.41577590  0.69154561  1
  O  O362  1  0.21454230  0.91129917  0.19766712  1
  O  O363  1  0.20937044  0.91797995  0.69764621  1
  O  O364  1  0.54664577  0.42491138  0.18964142  1
  O  O365  1  0.54598783  0.41846854  0.69005331  1
  O  O366  1  0.54187135  0.91619000  0.19788621  1
  O  O367  1  0.53404810  0.91761671  0.69607754  1
  O  O368  1  0.87966086  0.41545855  0.19911505  1
  O  O369  1  0.87671600  0.41742461  0.68601896  1
  O  O370  1  0.86832040  0.91968821  0.19233283  1
  O  O371  1  0.87539420  0.91339399  0.69417804  1
  O  O372  1  0.04524003  0.16486346  0.19385093  1
  O  O373  1  0.03282531  0.16403563  0.68838922  1
  O  O374  1  0.04171365  0.66834146  0.19628903  1
  O  O375  1  0.04451077  0.66754084  0.69210009  1
  O  O376  1  0.37292819  0.16263013  0.19496897  1
  O  O377  1  0.37329993  0.16726957  0.69489634  1
  O  O378  1  0.37481780  0.66795521  0.19750892  1
  O  O379  1  0.38184627  0.67469110  0.69648449  1
  O  O380  1  0.71254653  0.16415367  0.19964143  1
  O  O381  1  0.71220111  0.15462441  0.68815568  1
  O  O382  1  0.70979985  0.66673838  0.19564442  1
  O  O383  1  0.70619955  0.66988730  0.69132411  1
  O  O384  1  0.12265369  0.08745541  0.30772217  1
  O  O385  1  0.11685050  0.08098355  0.79853917  1
  O  O386  1  0.12334992  0.58279869  0.30071989  1
  O  O387  1  0.12138795  0.58299756  0.80380510  1
  O  O388  1  0.45717085  0.08228639  0.30717784  1
  O  O389  1  0.45388582  0.08426163  0.80072816  1
  O  O390  1  0.45415619  0.58397262  0.30805869  1
  O  O391  1  0.47369701  0.58395270  0.80738500  1
  O  O392  1  0.79008402  0.08661875  0.30640892  1
  O  O393  1  0.78852243  0.08130649  0.80194253  1
  O  O394  1  0.78903436  0.57956858  0.30336455  1
  O  O395  1  0.78925516  0.58650556  0.80230435  1
  O  O396  1  0.28929191  0.33234838  0.30591414  1
  O  O397  1  0.28771303  0.33502210  0.80469494  1
  O  O398  1  0.29092162  0.83443509  0.30992865  1
  O  O399  1  0.28961872  0.83292457  0.80264379  1
  O  O400  1  0.63055533  0.33474118  0.30304263  1
  O  O401  1  0.62011371  0.34212839  0.80465311  1
  O  O402  1  0.62082376  0.83224804  0.30395763  1
  O  O403  1  0.62300960  0.83161349  0.80482472  1
  O  O404  1  0.95954457  0.33130267  0.30416343  1
  O  O405  1  0.95331786  0.33446384  0.79855769  1
  O  O406  1  0.95244120  0.83404991  0.30253258  1
  O  O407  1  0.95311783  0.83168112  0.80389934  1
  O  O408  1  0.12834472  0.41537131  0.30768921  1
  O  O409  1  0.11967874  0.41714170  0.80120014  1
  O  O410  1  0.12979897  0.91610758  0.31299360  1
  O  O411  1  0.12062964  0.91456098  0.80879612  1
  O  O412  1  0.45192527  0.42396245  0.30538734  1
  O  O413  1  0.45739591  0.41674131  0.79930806  1
  O  O414  1  0.45832011  0.91648720  0.31088630  1
  O  O415  1  0.45834703  0.91541022  0.81104504  1
  O  O416  1  0.79047661  0.41359268  0.30354109  1
  O  O417  1  0.79191286  0.42165391  0.79980270  1
  O  O418  1  0.79170790  0.92163740  0.31310566  1
  O  O419  1  0.79319637  0.91656651  0.80384706  1
  O  O420  1  0.28983163  0.16479414  0.30650306  1
  O  O421  1  0.29406247  0.16800464  0.80995526  1
  O  O422  1  0.29294319  0.66803923  0.31099833  1
  O  O423  1  0.28567370  0.67291538  0.81070767  1
  O  O424  1  0.61775845  0.16135762  0.30665119  1
  O  O425  1  0.61937779  0.15809472  0.80459306  1
  O  O426  1  0.62457785  0.66528704  0.30882420  1
  O  O427  1  0.62777804  0.66903788  0.80433561  1
  O  O428  1  0.96025776  0.16632818  0.30409037  1
  O  O429  1  0.95358023  0.16461392  0.80269138  1
  O  O430  1  0.95579505  0.66467260  0.30925144  1
  O  O431  1  0.95840680  0.66731812  0.80315739  1
  F  F432  1  0.04480816  0.00074949  0.20375943  1
  F  F433  1  0.04332011  -0.00544312  0.69955055  1
  F  F434  1  0.04546414  0.49921510  0.20256581  1
  F  F435  1  0.04621582  0.50112188  0.69841314  1
  F  F436  1  0.37944209  -0.00228650  0.20662684  1
  F  F437  1  0.37596436  -0.00291201  0.70516997  1
  F  F438  1  0.37717213  0.50404060  0.20298188  1
  F  F439  1  0.38231371  0.49358916  0.69671373  1
  F  F440  1  0.71172776  -0.00038200  0.20759939  1
  F  F441  1  0.71120581  -0.00067008  0.69774123  1
  F  F442  1  0.71349250  0.49959399  0.20258746  1
  F  F443  1  0.71076286  0.50531268  0.69752724  1
  F  F444  1  0.21113379  0.24675319  0.20377316  1
  F  F445  1  0.21531516  0.25149739  0.70050105  1
  F  F446  1  0.21347398  0.74967634  0.20911697  1
  F  F447  1  0.21103849  0.74977078  0.70246451  1
  F  F448  1  0.54432998  0.23464113  0.19388261  1
  F  F449  1  0.53025329  0.24887550  0.69744169  1
  F  F450  1  0.54353900  0.74869449  0.20493799  1
  F  F451  1  0.54400126  0.75169413  0.70265671  1
  F  F452  1  0.88232398  0.24884912  0.19984283  1
  F  F453  1  0.87935880  0.24662146  0.69559314  1
  F  F454  1  0.87795992  0.74823450  0.20460997  1
  F  F455  1  0.87814417  0.75153230  0.69999879  1
  F  F456  1  0.29741564  0.00045976  0.30610328  1
  F  F457  1  0.28663178  -0.00054289  0.80179842  1
  F  F458  1  0.28797449  0.50001096  0.29861605  1
  F  F459  1  0.28087425  0.49036494  0.80082248  1
  F  F460  1  0.62105002  0.00043964  0.30146788  1
  F  F461  1  0.62081922  0.00010374  0.79692373  1
  F  F462  1  0.62302508  0.49730204  0.29868847  1
  F  F463  1  0.62507989  0.50196867  0.79352401  1
  F  F464  1  0.95084913  0.00793126  0.30347628  1
  F  F465  1  0.95063989  -0.00094330  0.79472710  1
  F  F466  1  0.95693757  0.49912713  0.29959410  1
  F  F467  1  0.95486055  0.49829466  0.79285494  1
  F  F468  1  0.12410771  0.24791603  0.29919693  1
  F  F469  1  0.11815858  0.25098901  0.79788677  1
  F  F470  1  0.12343531  0.74779491  0.30551014  1
  F  F471  1  0.11820449  0.74843463  0.79750109  1
  F  F472  1  0.44963200  0.23790819  0.30332470  1
  F  F473  1  0.45347715  0.25086097  0.79871931  1
  F  F474  1  0.45522305  0.74852850  0.30203935  1
  F  F475  1  0.45697282  0.75096538  0.80071622  1
  F  F476  1  0.80169013  0.25148449  0.30093823  1
  F  F477  1  0.80141700  0.24949226  0.79527510  1
  F  F478  1  0.78885568  0.74658008  0.30193090  1
  F  F479  1  0.78889159  0.74884980  0.79604727  1
