# generated using pymatgen
data_K24Na3Li5Mg64Fe17Si79(O5F)48
_symmetry_space_group_name_H-M   'P 1'
_cell_length_a   16.09534316
_cell_length_b   18.60334162
_cell_length_c   20.57023119
_cell_angle_alpha   90.00762158
_cell_angle_beta   100.02238948
_cell_angle_gamma   90.00530353
_symmetry_Int_Tables_number   1
_chemical_formula_structural   K24Na3Li5Mg64Fe17Si79(O5F)48
_chemical_formula_sum   'K24 Na3 Li5 Mg64 Fe17 Si79 O240 F48'
_cell_volume   6065.29415445
_cell_formula_units_Z   1
loop_
 _symmetry_equiv_pos_site_id
 _symmetry_equiv_pos_as_xyz
  1  'x, y, z'
loop_
 _atom_site_type_symbol
 _atom_site_label
 _atom_site_symmetry_multiplicity
 _atom_site_fract_x
 _atom_site_fract_y
 _atom_site_fract_z
 _atom_site_occupancy
  K  K0  1  0.00391783  -0.00031851  0.00479815  1
  K  K1  1  -0.01044290  -0.00246766  0.49383457  1
  K  K2  1  -0.00492531  0.49222789  0.00530569  1
  K  K3  1  -0.00413308  0.48477514  0.48985577  1
  K  K4  1  0.33871512  0.00304131  0.00695232  1
  K  K5  1  0.33886504  0.00662838  0.48940672  1
  K  K6  1  0.34982595  0.50681538  0.00231186  1
  K  K7  1  0.33469376  0.49568515  0.50345046  1
  K  K8  1  0.66372329  0.00085480  0.00553629  1
  K  K9  1  0.65927123  0.00283209  0.48987475  1
  K  K10  1  0.65613758  0.48628480  0.00590738  1
  K  K11  1  0.66211218  0.49468977  0.49173464  1
  K  K12  1  0.16923364  0.24677076  0.00443491  1
  K  K13  1  0.16064431  0.24598672  0.49394460  1
  K  K14  1  0.17609007  0.75342666  0.00620305  1
  K  K15  1  0.17098174  0.75412371  0.49949112  1
  K  K16  1  0.50662327  0.25057213  0.00833979  1
  K  K17  1  0.49848679  0.25015658  0.49615899  1
  K  K18  1  0.49662824  0.75884267  0.00355571  1
  K  K19  1  0.50037563  0.77052196  0.49403968  1
  K  K20  1  0.83243048  0.24500849  0.00723377  1
  K  K21  1  0.83359524  0.23850963  0.49731252  1
  K  K22  1  0.83367601  0.75726177  0.00739428  1
  K  K23  1  0.82682516  0.75376488  0.48990445  1
  Na  Na24  1  0.50151122  0.00533097  0.25469371  1
  Na  Na25  1  0.33862155  0.57670993  0.75092666  1
  Na  Na26  1  0.83257697  0.16887532  0.74080145  1
  Li  Li27  1  -0.00193824  0.24552808  0.25935738  1
  Li  Li28  1  0.49771274  0.49876301  0.75720463  1
  Li  Li29  1  0.33744622  0.08244878  0.25095456  1
  Li  Li30  1  0.50296070  0.33126749  0.24645312  1
  Li  Li31  1  0.66435221  0.08315962  0.25606369  1
  Mg  Mg32  1  -0.00282748  0.24900376  0.74431695  1
  Mg  Mg33  1  0.17188102  0.00267228  0.25255684  1
  Mg  Mg34  1  -0.00043690  0.75131421  0.74975879  1
  Mg  Mg35  1  0.83585359  0.49688807  0.25012958  1
  Mg  Mg36  1  0.83397274  0.00045780  0.74528740  1
  Mg  Mg37  1  0.16973039  0.49816149  0.24931078  1
  Mg  Mg38  1  0.66540790  0.25276847  0.75220095  1
  Mg  Mg39  1  0.50411362  0.49696729  0.24687612  1
  Mg  Mg40  1  0.16676451  0.00069679  0.75156600  1
  Mg  Mg41  1  0.33476670  0.24803150  0.25201275  1
  Mg  Mg42  1  0.66486158  0.24545971  0.25144346  1
  Mg  Mg43  1  0.33304727  0.74872000  0.75108835  1
  Mg  Mg44  1  0.50024868  -0.00034167  0.75028587  1
  Mg  Mg45  1  0.16446737  0.49972470  0.74890283  1
  Mg  Mg46  1  0.82928673  0.50161135  0.75065368  1
  Mg  Mg47  1  0.00295098  0.74709119  0.24743211  1
  Mg  Mg48  1  0.83199175  -0.00132044  0.24976443  1
  Mg  Mg49  1  0.66432516  0.75109496  0.74909438  1
  Mg  Mg50  1  0.33856131  0.75205035  0.24660788  1
  Mg  Mg51  1  0.33315690  0.25307252  0.75274576  1
  Mg  Mg52  1  0.66873157  0.75023265  0.24724828  1
  Mg  Mg53  1  0.50126958  0.83677059  0.24753968  1
  Mg  Mg54  1  0.66584156  0.41163317  0.24930308  1
  Mg  Mg55  1  0.83082929  0.66645846  0.74864458  1
  Mg  Mg56  1  0.66078919  0.58336324  0.75061122  1
  Mg  Mg57  1  0.83406148  0.83234213  0.24853554  1
  Mg  Mg58  1  0.50007441  0.33849210  0.75456268  1
  Mg  Mg59  1  0.16819576  0.66547259  0.74963985  1
  Mg  Mg60  1  0.50254417  0.16789237  0.75330419  1
  Mg  Mg61  1  0.16787673  0.83518803  0.75374575  1
  Mg  Mg62  1  0.66864763  0.08613225  0.74712162  1
  Mg  Mg63  1  0.83307952  0.66330092  0.24480789  1
  Mg  Mg64  1  0.50076900  0.66477203  0.24582802  1
  Mg  Mg65  1  0.33477216  0.91549138  0.75226271  1
  Mg  Mg66  1  0.33754464  0.41366060  0.24749102  1
  Mg  Mg67  1  0.00026097  0.58104179  0.24814873  1
  Mg  Mg68  1  0.00080883  0.91752504  0.74855370  1
  Mg  Mg69  1  0.49887351  0.17031177  0.25322066  1
  Mg  Mg70  1  0.83188356  0.83399554  0.74732158  1
  Mg  Mg71  1  0.16407331  0.33525870  0.74845239  1
  Mg  Mg72  1  -0.00493662  0.41588159  0.74716749  1
  Mg  Mg73  1  0.33466746  0.41924750  0.75096879  1
  Mg  Mg74  1  0.82911182  0.33601341  0.74917598  1
  Mg  Mg75  1  0.00217729  0.08444451  0.25492512  1
  Mg  Mg76  1  0.66111610  0.41737054  0.75334463  1
  Mg  Mg77  1  0.49869426  0.83679176  0.74957976  1
  Mg  Mg78  1  0.66420319  0.91702021  0.74788390  1
  Mg  Mg79  1  0.66933849  0.91775095  0.25032877  1
  Mg  Mg80  1  0.66575978  0.58192817  0.24483821  1
  Mg  Mg81  1  0.17075999  0.66425906  0.24670503  1
  Mg  Mg82  1  0.49848073  0.66521818  0.75021226  1
  Mg  Mg83  1  -0.00156192  0.08579167  0.74675936  1
  Mg  Mg84  1  0.33406581  0.92178068  0.24942698  1
  Mg  Mg85  1  0.83682515  0.32818592  0.25096109  1
  Mg  Mg86  1  0.33767304  0.58385206  0.24581042  1
  Mg  Mg87  1  0.16589629  0.33174337  0.25342280  1
  Mg  Mg88  1  0.16542939  0.16642503  0.25530297  1
  Mg  Mg89  1  0.33471795  0.08551569  0.75229009  1
  Mg  Mg90  1  0.00082797  0.41188948  0.25200058  1
  Mg  Mg91  1  0.83387856  0.16344231  0.25362489  1
  Mg  Mg92  1  -0.00106194  0.58490663  0.74847602  1
  Mg  Mg93  1  0.00345986  0.91456196  0.24975500  1
  Mg  Mg94  1  0.16398117  0.16694484  0.74817597  1
  Mg  Mg95  1  0.17062817  0.83382815  0.25149185  1
  Fe  Fe96  1  0.19119531  0.92160323  0.11311001  1
  Fe  Fe97  1  0.53255643  0.58171761  0.10623137  1
  Fe  Fe98  1  0.85923613  0.58066852  0.10908187  1
  Fe  Fe99  1  0.85372964  0.07586680  0.60444034  1
  Fe  Fe100  1  0.14262617  0.07636466  0.39403755  1
  Fe  Fe101  1  0.47247013  0.41941915  0.89288542  1
  Fe  Fe102  1  0.52499548  0.40666294  0.11033378  1
  Fe  Fe103  1  0.68961643  0.83778819  0.11014575  1
  Fe  Fe104  1  0.79736704  0.08065084  0.38797868  1
  Fe  Fe105  1  0.52520694  0.92037822  0.60829821  1
  Fe  Fe106  1  0.02754472  0.16509612  0.60511999  1
  Fe  Fe107  1  0.36162270  0.67069680  0.10620968  1
  Fe  Fe108  1  0.47224229  0.91688096  0.89199236  1
  Fe  Fe109  1  0.97901597  0.33025659  0.39103301  1
  Fe  Fe110  1  0.64377387  0.32957962  0.89366821  1
  Fe  Fe111  1  0.13671389  0.91925196  0.89025689  1
  Fe  Fe112  1  0.47452233  0.92188991  0.38982792  1
  Si  Si113  1  0.64267555  0.33545378  0.38591726  1
  Si  Si114  1  0.97174792  0.16014086  0.39088460  1
  Si  Si115  1  0.19372028  0.91633873  0.61553848  1
  Si  Si116  1  0.85527698  0.58705959  0.61299673  1
  Si  Si117  1  0.18883117  0.41856897  0.61354098  1
  Si  Si118  1  0.86268817  0.08170445  0.11645726  1
  Si  Si119  1  0.03048209  0.66163974  0.11220604  1
  Si  Si120  1  0.36199502  0.17055876  0.61807888  1
  Si  Si121  1  0.14568325  0.58552337  0.38447631  1
  Si  Si122  1  0.63465112  0.17296039  0.39123231  1
  Si  Si123  1  0.97618101  0.66779676  0.88405563  1
  Si  Si124  1  0.69705722  0.66828682  0.10979968  1
  Si  Si125  1  0.80762701  0.42181976  0.88689023  1
  Si  Si126  1  0.97673896  0.82750119  0.38516041  1
  Si  Si127  1  0.35587551  0.66656542  0.61415542  1
  Si  Si128  1  0.64626573  0.67009079  0.88541184  1
  Si  Si129  1  0.64231092  0.66487448  0.38396749  1
  Si  Si130  1  0.30376907  0.17421890  0.39108750  1
  Si  Si131  1  0.35048404  0.32844798  0.11198812  1
  Si  Si132  1  0.52013825  0.41818661  0.61559254  1
  Si  Si133  1  0.30930521  0.82782207  0.38702582  1
  Si  Si134  1  0.65069484  0.16171979  0.88792720  1
  Si  Si135  1  0.52168808  0.08967115  0.11878645  1
  Si  Si136  1  0.96814454  0.83285027  0.88501870  1
  Si  Si137  1  0.70031028  0.32316068  0.11520703  1
  Si  Si138  1  0.81214530  0.91003901  0.38730572  1
  Si  Si139  1  0.69343061  0.82792803  0.61202694  1
  Si  Si140  1  0.02352672  0.17141618  0.11864231  1
  Si  Si141  1  0.85586797  0.90650612  0.61116343  1
  Si  Si142  1  0.69265169  0.15927480  0.11770846  1
  Si  Si143  1  0.02416870  0.66690639  0.61233523  1
  Si  Si144  1  0.35309637  0.16621122  0.11653387  1
  Si  Si145  1  0.29959882  0.33910986  0.88587527  1
  Si  Si146  1  0.30222726  0.82764883  0.88951285  1
  Si  Si147  1  0.18500175  0.08861225  0.11553102  1
  Si  Si148  1  0.80580777  0.91475736  0.88170492  1
  Si  Si149  1  0.18945289  0.41506096  0.11409752  1
  Si  Si150  1  0.14088266  0.58190240  0.88433394  1
  Si  Si151  1  0.14396161  0.90629633  0.38926911  1
  Si  Si152  1  0.97454136  0.16826955  0.88390993  1
  Si  Si153  1  0.47702906  0.58094227  0.38498658  1
  Si  Si154  1  0.20208611  0.08291608  0.61454299  1
  Si  Si155  1  0.14427991  0.08974454  0.88840593  1
  Si  Si156  1  0.64387973  0.83284728  0.88585046  1
  Si  Si157  1  0.30905291  0.66376197  0.88383301  1
  Si  Si158  1  0.64331314  0.82995933  0.38666791  1
  Si  Si159  1  0.52478630  0.09161139  0.61346948  1
  Si  Si160  1  0.85365328  0.42166893  0.61376214  1
  Si  Si161  1  0.81131246  0.07676742  0.88243578  1
  Si  Si162  1  0.96834206  0.33373316  0.88372447  1
  Si  Si163  1  0.86679588  0.91572258  0.11270297  1
  Si  Si164  1  0.02700962  0.83300591  0.61381673  1
  Si  Si165  1  0.13235979  0.41587730  0.88308749  1
  Si  Si166  1  0.02922852  0.82716651  0.11345986  1
  Si  Si167  1  0.19535498  0.58011343  0.11173176  1
  Si  Si168  1  0.80798211  0.58308238  0.38404746  1
  Si  Si169  1  0.02672393  0.33518273  0.11698828  1
  Si  Si170  1  0.85846759  0.41215987  0.11355075  1
  Si  Si171  1  0.97673690  0.66291370  0.38420708  1
  Si  Si172  1  0.31253819  0.66429729  0.38457092  1
  Si  Si173  1  0.31197051  0.33803708  0.38687834  1
  Si  Si174  1  0.80998252  0.58603596  0.88434931  1
  Si  Si175  1  0.80710884  0.41685441  0.38823731  1
  Si  Si176  1  0.48372069  0.58917683  0.88699006  1
  Si  Si177  1  0.01996021  0.33841809  0.61097206  1
  Si  Si178  1  0.35506815  0.82978063  0.61185696  1
  Si  Si179  1  0.14787068  0.42090606  0.38902138  1
  Si  Si180  1  0.68541723  0.66360609  0.61313174  1
  Si  Si181  1  0.47622170  0.41819710  0.38415268  1
  Si  Si182  1  0.18795272  0.58301367  0.61347092  1
  Si  Si183  1  0.68636762  0.34009988  0.61336537  1
  Si  Si184  1  0.47726312  0.08929920  0.88880953  1
  Si  Si185  1  0.46937589  0.09609734  0.38937931  1
  Si  Si186  1  0.52764878  0.92299182  0.11428932  1
  Si  Si187  1  0.36015335  0.84158847  0.11017154  1
  Si  Si188  1  0.52057557  0.58310379  0.61394301  1
  Si  Si189  1  0.35407473  0.33448852  0.61614514  1
  Si  Si190  1  0.68735543  0.17469959  0.61247824  1
  Si  Si191  1  0.30913683  0.17370382  0.88556754  1
  O  O192  1  0.26946893  0.11713318  0.08633646  1
  O  O193  1  0.29011674  0.11058058  0.59045068  1
  O  O194  1  0.27306216  0.60277026  0.07685658  1
  O  O195  1  0.26816486  0.62048568  0.58634068  1
  O  O196  1  0.60271242  0.11950425  0.08479075  1
  O  O197  1  0.60276736  0.12711904  0.58216662  1
  O  O198  1  0.63743891  0.60098110  0.08129648  1
  O  O199  1  0.60179759  0.61528973  0.58231721  1
  O  O200  1  0.93635287  0.12662578  0.08579621  1
  O  O201  1  0.94517409  0.10254484  0.56688646  1
  O  O202  1  0.95960588  0.60578015  0.07788321  1
  O  O203  1  0.93336235  0.62624921  0.58360643  1
  O  O204  1  0.10574270  0.36643869  0.08306542  1
  O  O205  1  0.09895109  0.37970232  0.58326787  1
  O  O206  1  0.10747967  0.85227852  0.07988378  1
  O  O207  1  0.10514148  0.87262614  0.58627745  1
  O  O208  1  0.42849455  0.35099704  0.07717748  1
  O  O209  1  0.43323394  0.37156363  0.58584145  1
  O  O210  1  0.44704732  0.87036806  0.08536124  1
  O  O211  1  0.43104501  0.86082505  0.57862613  1
  O  O212  1  0.78702289  0.35030641  0.08892533  1
  O  O213  1  0.76529903  0.37929686  0.58385240  1
  O  O214  1  0.78417303  0.87363427  0.07582969  1
  O  O215  1  0.78521839  0.84207095  0.58877393  1
  O  O216  1  0.26695504  0.38056852  0.08215977  1
  O  O217  1  0.26760821  0.37989096  0.58512274  1
  O  O218  1  0.28859882  0.89999179  0.07988546  1
  O  O219  1  0.26620727  0.87356954  0.58373270  1
  O  O220  1  0.62104609  0.36915311  0.07919712  1
  O  O221  1  0.59992705  0.38591659  0.58271668  1
  O  O222  1  0.60287404  0.90147194  0.07458140  1
  O  O223  1  0.62089532  0.88163571  0.57723463  1
  O  O224  1  0.94451786  0.38453565  0.08595525  1
  O  O225  1  0.93530643  0.38988368  0.58602005  1
  O  O226  1  0.94769824  0.87892732  0.08485556  1
  O  O227  1  0.94047872  0.87564910  0.58297915  1
  O  O228  1  0.10489326  0.14435266  0.08598720  1
  O  O229  1  0.12948440  0.13539163  0.57867613  1
  O  O230  1  0.11789495  0.63747021  0.08596289  1
  O  O231  1  0.09979131  0.62667604  0.58109765  1
  O  O232  1  0.43526478  0.13586721  0.08529398  1
  O  O233  1  0.44704011  0.14941968  0.58952646  1
  O  O234  1  0.45212735  0.64692210  0.06737173  1
  O  O235  1  0.43322090  0.62753775  0.58308003  1
  O  O236  1  0.76921447  0.11688392  0.08713511  1
  O  O237  1  0.76686584  0.14573751  0.58284815  1
  O  O238  1  0.78759637  0.65822047  0.08412002  1
  O  O239  1  0.76771693  0.63076444  0.58400656  1
  O  O240  1  0.04147105  0.09914418  0.42141010  1
  O  O241  1  0.06416719  0.12912691  0.91665558  1
  O  O242  1  0.06474826  0.61937894  0.41427344  1
  O  O243  1  0.06146980  0.62043148  0.91265485  1
  O  O244  1  0.39072299  0.13053443  0.42230406  1
  O  O245  1  0.39745620  0.13147361  0.91447824  1
  O  O246  1  0.39700069  0.61614160  0.41498872  1
  O  O247  1  0.39508032  0.61839055  0.91046347  1
  O  O248  1  0.70926350  0.12048302  0.42635023  1
  O  O249  1  0.72843031  0.10303333  0.91343545  1
  O  O250  1  0.73200372  0.62326768  0.41526824  1
  O  O251  1  0.72847821  0.61771528  0.91292978  1
  O  O252  1  0.23876915  0.38132178  0.41818557  1
  O  O253  1  0.21012647  0.36209496  0.91109580  1
  O  O254  1  0.21982527  0.84676677  0.41287044  1
  O  O255  1  0.21614189  0.84738615  0.91666034  1
  O  O256  1  0.56257083  0.37379254  0.41424239  1
  O  O257  1  0.54985355  0.35037065  0.92945623  1
  O  O258  1  0.57495509  0.86913245  0.42324871  1
  O  O259  1  0.56568751  0.85579291  0.92013141  1
  O  O260  1  0.88907873  0.37509155  0.42649403  1
  O  O261  1  0.89202298  0.37184593  0.91408952  1
  O  O262  1  0.89838266  0.86114818  0.41598423  1
  O  O263  1  0.87849803  0.85480925  0.90894981  1
  O  O264  1  0.07543400  0.38861761  0.42511254  1
  O  O265  1  0.05207302  0.38266385  0.91312977  1
  O  O266  1  0.06257068  0.87013854  0.41843010  1
  O  O267  1  0.03793631  0.88817416  0.92036459  1
  O  O268  1  0.39983210  0.38178071  0.41709907  1
  O  O269  1  0.36868459  0.39508473  0.92022779  1
  O  O270  1  0.38395976  0.87801914  0.42479750  1
  O  O271  1  0.37880839  0.87914023  0.92340619  1
  O  O272  1  0.72373108  0.38694175  0.41739988  1
  O  O273  1  0.73240645  0.39654881  0.92287198  1
  O  O274  1  0.73807487  0.86306912  0.41482426  1
  O  O275  1  0.72248004  0.88951891  0.91128251  1
  O  O276  1  0.23001511  0.14194415  0.42739460  1
  O  O277  1  0.22846454  0.14061849  0.91492498  1
  O  O278  1  0.23049496  0.63265565  0.41485673  1
  O  O279  1  0.22934195  0.62375194  0.91252638  1
  O  O280  1  0.54891260  0.15018705  0.42026734  1
  O  O281  1  0.56462018  0.13532053  0.91521340  1
  O  O282  1  0.56573025  0.62403094  0.41431526  1
  O  O283  1  0.56291120  0.64645405  0.91548463  1
  O  O284  1  0.88502107  0.14419432  0.41943792  1
  O  O285  1  0.89512331  0.12744158  0.91087464  1
  O  O286  1  0.89812671  0.62500403  0.41380624  1
  O  O287  1  0.89430490  0.63517225  0.91199394  1
  O  O288  1  0.15544730  0.01283375  0.08009419  1
  O  O289  1  0.18673225  -0.00117916  0.58800961  1
  O  O290  1  0.16591590  0.49726760  0.08628918  1
  O  O291  1  0.18066044  0.50099525  0.58273758  1
  O  O292  1  0.50088519  0.00697107  0.09167919  1
  O  O293  1  0.49955439  0.01488690  0.57892709  1
  O  O294  1  0.49977580  0.49386042  0.06961488  1
  O  O295  1  0.50472761  0.50044063  0.58478308  1
  O  O296  1  0.86362502  0.00013505  0.08548243  1
  O  O297  1  0.82184560  -0.02027943  0.57563405  1
  O  O298  1  0.82995557  0.48712376  0.07636197  1
  O  O299  1  0.84237053  0.50482499  0.58405804  1
  O  O300  1  0.00551731  0.25357080  0.08824170  1
  O  O301  1  0.00346968  0.26196298  0.57603347  1
  O  O302  1  0.00442551  0.74412220  0.08669229  1
  O  O303  1  0.01876070  0.74978643  0.58364874  1
  O  O304  1  0.32473876  0.24602413  0.08415422  1
  O  O305  1  0.33693815  0.25180919  0.58765158  1
  O  O306  1  0.33222374  0.76436445  0.07584616  1
  O  O307  1  0.33651421  0.74684013  0.58171810  1
  O  O308  1  0.68851081  0.24028041  0.08519308  1
  O  O309  1  0.66997207  0.25886953  0.58403458  1
  O  O310  1  0.65724256  0.74476017  0.08018517  1
  O  O311  1  0.66812572  0.74504287  0.58438923  1
  O  O312  1  0.16985912  -0.01877666  0.42624908  1
  O  O313  1  0.16259148  0.01268354  0.92365903  1
  O  O314  1  0.16377264  0.50534756  0.41592837  1
  O  O315  1  0.14736967  0.49856404  0.91218309  1
  O  O316  1  0.48873023  0.01678243  0.42230214  1
  O  O317  1  0.48923048  0.01202234  0.92463735  1
  O  O318  1  0.49000540  0.49988015  0.41773005  1
  O  O319  1  0.50693475  0.51314228  0.92274193  1
  O  O320  1  0.82337227  -0.01320867  0.42328539  1
  O  O321  1  0.83505765  -0.00529051  0.91208299  1
  O  O322  1  0.81653045  0.50218838  0.41571344  1
  O  O323  1  0.83511610  0.50509389  0.91165034  1
  O  O324  1  0.32197168  0.25834680  0.42024648  1
  O  O325  1  0.32005427  0.25618940  0.91364727  1
  O  O326  1  0.33057862  0.74442684  0.41587940  1
  O  O327  1  0.32393924  0.74394780  0.91577178  1
  O  O328  1  0.65563292  0.25641136  0.42133487  1
  O  O329  1  0.68368025  0.23641360  0.92239388  1
  O  O330  1  0.65129061  0.74538713  0.41611128  1
  O  O331  1  0.67649469  0.75124184  0.91134155  1
  O  O332  1  1.00742416  0.23804073  0.42165468  1
  O  O333  1  0.97949535  0.25159518  0.91396592  1
  O  O334  1  0.98808363  0.74433521  0.41529946  1
  O  O335  1  0.99092262  0.74972612  0.91220993  1
  O  O336  1  0.20246466  0.08751166  0.19512631  1
  O  O337  1  0.21353577  0.08366263  0.69585743  1
  O  O338  1  0.21220283  0.58088208  0.19312185  1
  O  O339  1  0.19643498  0.58299636  0.69236101  1
  O  O340  1  0.54438786  0.09578426  0.19679962  1
  O  O341  1  0.54264129  0.08672831  0.69474628  1
  O  O342  1  0.54568042  0.58220924  0.19953584  1
  O  O343  1  0.54369304  0.58851385  0.69282871  1
  O  O344  1  0.88140078  0.08100599  0.19602783  1
  O  O345  1  0.88334883  0.07325238  0.69496574  1
  O  O346  1  0.88062555  0.57960874  0.20127907  1
  O  O347  1  0.87499628  0.58604712  0.69340056  1
  O  O348  1  0.04999688  0.33972946  0.19576238  1
  O  O349  1  0.04085130  0.33768079  0.69214283  1
  O  O350  1  0.04586256  0.82899776  0.19467647  1
  O  O351  1  0.04262339  0.83067311  0.69397846  1
  O  O352  1  0.36609422  0.33205572  0.19182002  1
  O  O353  1  0.37254589  0.33254034  0.69585768  1
  O  O354  1  0.37644735  0.83452243  0.19133005  1
  O  O355  1  0.37221644  0.83152618  0.69271124  1
  O  O356  1  0.71427734  0.32848755  0.19580712  1
  O  O357  1  0.70792272  0.34045027  0.69332672  1
  O  O358  1  0.71515900  0.83185180  0.20174066  1
  O  O359  1  0.70900079  0.83024089  0.69321593  1
  O  O360  1  0.20956888  0.41568717  0.19460737  1
  O  O361  1  0.20436547  0.41732986  0.69359287  1
  O  O362  1  0.20967727  0.91610060  0.20440263  1
  O  O363  1  0.21219496  0.91516445  0.69593349  1
  O  O364  1  0.54784571  0.41589367  0.20076315  1
  O  O365  1  0.54324331  0.41593720  0.69431566  1
  O  O366  1  0.55188532  0.91185028  0.19324216  1
  O  O367  1  0.54525779  0.91729066  0.69964171  1
  O  O368  1  0.87789363  0.41632774  0.19428503  1
  O  O369  1  0.87175061  0.42229825  0.69422500  1
  O  O370  1  0.88214471  0.91297786  0.19350839  1
  O  O371  1  0.87779853  0.91071117  0.69238206  1
  O  O372  1  0.04207137  0.16651169  0.19764435  1
  O  O373  1  0.04547768  0.16753063  0.69823656  1
  O  O374  1  0.04658743  0.66219404  0.19364592  1
  O  O375  1  0.04075745  0.66626638  0.69268634  1
  O  O376  1  0.37524866  0.17059370  0.19551324  1
  O  O377  1  0.37762300  0.16995365  0.69864223  1
  O  O378  1  0.37910735  0.66670925  0.19907988  1
  O  O379  1  0.37847649  0.67199360  0.69300884  1
  O  O380  1  0.71194258  0.16490410  0.19662977  1
  O  O381  1  0.69646368  0.17315553  0.69236790  1
  O  O382  1  0.71207378  0.66641208  0.19264206  1
  O  O383  1  0.70738601  0.66440428  0.69348287  1
  O  O384  1  0.12284390  0.08135210  0.30278611  1
  O  O385  1  0.12600113  0.08575973  0.80744336  1
  O  O386  1  0.12670237  0.58405342  0.30432449  1
  O  O387  1  0.12003484  0.58316155  0.80368352  1
  O  O388  1  0.45170355  0.09752378  0.31063265  1
  O  O389  1  0.45794476  0.08612033  0.80746526  1
  O  O390  1  0.45829246  0.58130819  0.30550907  1
  O  O391  1  0.47008391  0.58770459  0.80773004  1
  O  O392  1  0.79020294  0.07938137  0.29879235  1
  O  O393  1  0.78808188  0.07594349  0.80331955  1
  O  O394  1  0.79027549  0.58319985  0.30439415  1
  O  O395  1  0.79064648  0.58638419  0.80347491  1
  O  O396  1  0.29142838  0.33767012  0.30689695  1
  O  O397  1  0.28414899  0.33537611  0.80470455  1
  O  O398  1  0.29248911  0.82700373  0.30665114  1
  O  O399  1  0.28934203  0.83108905  0.80731879  1
  O  O400  1  0.63118830  0.33271670  0.30713299  1
  O  O401  1  0.62172200  0.33426313  0.80111408  1
  O  O402  1  0.62462512  0.82974104  0.30653419  1
  O  O403  1  0.62539796  0.83296973  0.80476198  1
  O  O404  1  0.95486176  0.33513946  0.30093519  1
  O  O405  1  0.95351434  0.33545721  0.80340508  1
  O  O406  1  0.96037971  0.82805835  0.30496812  1
  O  O407  1  0.95454063  0.83176607  0.80376141  1
  O  O408  1  0.12852427  0.41899923  0.30838268  1
  O  O409  1  0.11495282  0.41775489  0.80253223  1
  O  O410  1  0.12113065  0.90991200  0.30898133  1
  O  O411  1  0.12027865  0.91735201  0.79810463  1
  O  O412  1  0.45419110  0.42212358  0.30545004  1
  O  O413  1  0.45092390  0.41626983  0.80143675  1
  O  O414  1  0.45113356  0.90820077  0.30132236  1
  O  O415  1  0.45358654  0.91737914  0.80004506  1
  O  O416  1  0.79226413  0.41581281  0.30765204  1
  O  O417  1  0.78992531  0.42040492  0.80563950  1
  O  O418  1  0.79811363  0.91188990  0.30706383  1
  O  O419  1  0.78882983  0.91532168  0.80101575  1
  O  O420  1  0.28451366  0.17579942  0.31147923  1
  O  O421  1  0.28950364  0.16944448  0.80491785  1
  O  O422  1  0.29159487  0.66286183  0.30475208  1
  O  O423  1  0.28422747  0.66998673  0.80440269  1
  O  O424  1  0.62021336  0.17363318  0.31168221  1
  O  O425  1  0.62738142  0.16497299  0.80692672  1
  O  O426  1  0.62658382  0.66518309  0.30432151  1
  O  O427  1  0.62731363  0.66862487  0.80454252  1
  O  O428  1  0.95457905  0.16012687  0.30980097  1
  O  O429  1  0.96381331  0.16973248  0.80501134  1
  O  O430  1  0.96074194  0.66425558  0.30446662  1
  O  O431  1  0.95693228  0.66624756  0.80316604  1
  F  F432  1  0.04595662  -0.00308420  0.20362951  1
  F  F433  1  0.04773991  0.00077709  0.70049775  1
  F  F434  1  0.04845796  0.49804224  0.20458407  1
  F  F435  1  0.04031088  0.50141744  0.69971968  1
  F  F436  1  0.36445649  0.00221443  0.19817787  1
  F  F437  1  0.37702205  0.00303900  0.70299193  1
  F  F438  1  0.37894661  0.49872597  0.20030196  1
  F  F439  1  0.36697981  0.48870708  0.68787187  1
  F  F440  1  0.72005954  -0.01182162  0.19495725  1
  F  F441  1  0.71025093  -0.00061613  0.69947760  1
  F  F442  1  0.71534974  0.49617664  0.20428817  1
  F  F443  1  0.71101399  0.50279288  0.70062293  1
  F  F444  1  0.21090055  0.25131400  0.20471909  1
  F  F445  1  0.21171818  0.25194119  0.70223830  1
  F  F446  1  0.21384846  0.74832651  0.20274056  1
  F  F447  1  0.20884274  0.75060284  0.70128162  1
  F  F448  1  0.54788197  0.24937611  0.20183312  1
  F  F449  1  0.54121946  0.25127336  0.70420709  1
  F  F450  1  0.54707231  0.74948997  0.20271857  1
  F  F451  1  0.54482536  0.75038725  0.70187294  1
  F  F452  1  0.87387391  0.24467236  0.20212850  1
  F  F453  1  0.88103664  0.26623858  0.69527765  1
  F  F454  1  0.88292154  0.74818795  0.20251918  1
  F  F455  1  0.87877433  0.74738057  0.70055385  1
  F  F456  1  0.28702121  -0.00323889  0.30597932  1
  F  F457  1  0.28854247  0.00123749  0.79876514  1
  F  F458  1  0.29023091  0.50035970  0.29623012  1
  F  F459  1  0.27633271  0.49181739  0.80085943  1
  F  F460  1  0.63941715  -0.00542162  0.30568852  1
  F  F461  1  0.62290144  0.00283440  0.79700347  1
  F  F462  1  0.62685416  0.50050247  0.30148347  1
  F  F463  1  0.62802457  0.50226019  0.79962576  1
  F  F464  1  0.95515608  -0.00561665  0.29756428  1
  F  F465  1  0.95584149  -0.00291917  0.79799174  1
  F  F466  1  0.95933427  0.49848269  0.30159814  1
  F  F467  1  0.95258073  0.50230786  0.79608984  1
  F  F468  1  0.12494897  0.25271272  0.30240793  1
  F  F469  1  0.11953893  0.25439017  0.79660317  1
  F  F470  1  0.12309401  0.74492182  0.29704525  1
  F  F471  1  0.11828757  0.74720289  0.79647873  1
  F  F472  1  0.45208233  0.25514993  0.29923069  1
  F  F473  1  0.45341162  0.25032907  0.80022542  1
  F  F474  1  0.45856984  0.74839979  0.29793832  1
  F  F475  1  0.45479626  0.75151352  0.79651836  1
  F  F476  1  0.78748198  0.24864351  0.30028659  1
  F  F477  1  0.78486374  0.26013880  0.79865702  1
  F  F478  1  0.79362088  0.74439217  0.29904116  1
  F  F479  1  0.78814400  0.74931146  0.79494419  1
