# generated using pymatgen
data_K24Na3Li5Mg64Fe17Si79(O5F)48
_symmetry_space_group_name_H-M   'P 1'
_cell_length_a   16.10974081
_cell_length_b   18.61567175
_cell_length_c   20.57243766
_cell_angle_alpha   90.02221803
_cell_angle_beta   100.03399870
_cell_angle_gamma   89.95692136
_symmetry_Int_Tables_number   1
_chemical_formula_structural   K24Na3Li5Mg64Fe17Si79(O5F)48
_chemical_formula_sum   'K24 Na3 Li5 Mg64 Fe17 Si79 O240 F48'
_cell_volume   6075.17542020
_cell_formula_units_Z   1
loop_
 _symmetry_equiv_pos_site_id
 _symmetry_equiv_pos_as_xyz
  1  'x, y, z'
loop_
 _atom_site_type_symbol
 _atom_site_label
 _atom_site_symmetry_multiplicity
 _atom_site_fract_x
 _atom_site_fract_y
 _atom_site_fract_z
 _atom_site_occupancy
  K  K0  1  -0.00170619  -0.00461935  -0.00122416  1
  K  K1  1  -0.00072394  -0.01485281  0.50120624  1
  K  K2  1  0.00114331  0.51618361  0.00098836  1
  K  K3  1  0.01283262  0.51030521  0.49902204  1
  K  K4  1  0.33458752  0.00235288  -0.00917603  1
  K  K5  1  0.34713893  -0.00596734  0.50425782  1
  K  K6  1  0.32746344  0.50793093  -0.00394350  1
  K  K7  1  0.34899698  0.51104442  0.49766297  1
  K  K8  1  0.66998727  -0.00040691  0.00873729  1
  K  K9  1  0.67156057  -0.00160833  0.49362244  1
  K  K10  1  0.66447178  0.50306847  0.00876414  1
  K  K11  1  0.65488594  0.51173934  0.48691760  1
  K  K12  1  0.17261300  0.24968612  -0.00077390  1
  K  K13  1  0.17112110  0.24447612  0.50271206  1
  K  K14  1  0.16150761  0.74021974  -0.00967215  1
  K  K15  1  0.16623958  0.75100735  0.50862315  1
  K  K16  1  0.49878245  0.23658762  0.00651831  1
  K  K17  1  0.50528680  0.25008918  0.49273009  1
  K  K18  1  0.50973036  0.74479575  -0.00725382  1
  K  K19  1  0.51881233  0.74726011  0.50745025  1
  K  K20  1  0.81838008  0.25290406  0.00610655  1
  K  K21  1  0.82940214  0.25076250  0.49305950  1
  K  K22  1  0.83216585  0.75167083  -0.00659767  1
  K  K23  1  0.83203675  0.75975440  0.50384238  1
  Na  Na24  1  0.82589255  0.00387409  0.24658552  1
  Na  Na25  1  0.66299202  0.42457057  0.24160056  1
  Na  Na26  1  0.50280090  0.67162479  0.74246443  1
  Li  Li27  1  0.66048741  0.75276012  0.75323559  1
  Li  Li28  1  0.17234723  -0.00373448  0.75878401  1
  Li  Li29  1  0.32646457  0.91661621  0.75182591  1
  Li  Li30  1  0.67259790  0.08367336  0.24601107  1
  Li  Li31  1  0.66108043  0.58166810  0.24441084  1
  Mg  Mg32  1  0.66969525  0.24978744  0.24947555  1
  Mg  Mg33  1  0.16691262  0.50151911  0.74524062  1
  Mg  Mg34  1  0.66601287  0.74708982  0.25060322  1
  Mg  Mg35  1  0.50136765  0.50328802  0.24923454  1
  Mg  Mg36  1  0.33353291  0.75364518  0.74542150  1
  Mg  Mg37  1  0.83045982  0.50213049  0.24495837  1
  Mg  Mg38  1  0.83397485  0.50012035  0.75130989  1
  Mg  Mg39  1  0.33180287  0.75018223  0.24886566  1
  Mg  Mg40  1  0.00277150  0.74852750  0.74910250  1
  Mg  Mg41  1  0.16559949  0.00197446  0.25253703  1
  Mg  Mg42  1  0.33710499  0.24779703  0.25257610  1
  Mg  Mg43  1  0.83357344  -0.00117550  0.75297352  1
  Mg  Mg44  1  0.50426586  0.00086724  0.25459810  1
  Mg  Mg45  1  -0.00204591  0.75104572  0.24908335  1
  Mg  Mg46  1  0.66349617  0.24819419  0.75040445  1
  Mg  Mg47  1  0.16863933  0.50082180  0.24584369  1
  Mg  Mg48  1  0.49985139  0.50224487  0.74556866  1
  Mg  Mg49  1  -0.00053953  0.25013790  0.24856367  1
  Mg  Mg50  1  0.49596202  -0.00438119  0.75441037  1
  Mg  Mg51  1  0.33136525  0.24641492  0.75226959  1
  Mg  Mg52  1  0.00061482  0.24712151  0.75303089  1
  Mg  Mg53  1  -0.00079948  0.41713536  0.24649896  1
  Mg  Mg54  1  0.33562411  0.41528941  0.24854355  1
  Mg  Mg55  1  -0.00500465  0.91857078  0.25061697  1
  Mg  Mg56  1  0.00426781  0.91547436  0.75229074  1
  Mg  Mg57  1  0.66648210  0.91253865  0.75444901  1
  Mg  Mg58  1  0.16740680  0.33246067  0.75001342  1
  Mg  Mg59  1  0.33862895  0.08374940  0.25617002  1
  Mg  Mg60  1  0.33407032  0.91728807  0.25418905  1
  Mg  Mg61  1  0.66493598  0.08180408  0.75218448  1
  Mg  Mg62  1  0.83080484  0.83478776  0.25075299  1
  Mg  Mg63  1  0.50837105  0.16279387  0.25459306  1
  Mg  Mg64  1  0.16787276  0.33399423  0.24815320  1
  Mg  Mg65  1  0.83371379  0.16539510  0.75333264  1
  Mg  Mg66  1  -0.00360076  0.08526771  0.25002191  1
  Mg  Mg67  1  0.66360672  0.41620562  0.74795293  1
  Mg  Mg68  1  0.66779929  0.58732898  0.74944759  1
  Mg  Mg69  1  0.16693185  0.66587643  0.24700172  1
  Mg  Mg70  1  0.16880785  0.16115876  0.75506987  1
  Mg  Mg71  1  0.16752721  0.16651611  0.25226469  1
  Mg  Mg72  1  0.33274698  0.58580047  0.24662217  1
  Mg  Mg73  1  0.33257906  0.58648442  0.74265186  1
  Mg  Mg74  1  0.00115097  0.58627344  0.74763524  1
  Mg  Mg75  1  0.00003346  0.58518263  0.24590480  1
  Mg  Mg76  1  0.50342993  0.33452883  0.24820777  1
  Mg  Mg77  1  0.33238069  0.41541539  0.74693611  1
  Mg  Mg78  1  0.83387168  0.66769718  0.75191895  1
  Mg  Mg79  1  0.16657842  0.83748523  0.74893418  1
  Mg  Mg80  1  0.00403213  0.08070553  0.75445871  1
  Mg  Mg81  1  0.49762700  0.33280073  0.74773194  1
  Mg  Mg82  1  0.16472301  0.83555164  0.25059580  1
  Mg  Mg83  1  0.32867172  0.07885480  0.75453986  1
  Mg  Mg84  1  0.50062309  0.83328343  0.25452309  1
  Mg  Mg85  1  0.83387134  0.83255033  0.75524606  1
  Mg  Mg86  1  0.50176121  0.66375685  0.24916622  1
  Mg  Mg87  1  -0.00011330  0.41522737  0.74945100  1
  Mg  Mg88  1  0.82896040  0.16626724  0.24889202  1
  Mg  Mg89  1  0.16740764  0.66636059  0.74445767  1
  Mg  Mg90  1  0.49620527  0.16205896  0.75220759  1
  Mg  Mg91  1  0.82867508  0.66450925  0.24693051  1
  Mg  Mg92  1  0.66729079  0.91789258  0.25352901  1
  Mg  Mg93  1  0.82930404  0.33592010  0.24531742  1
  Mg  Mg94  1  0.49985642  0.83263132  0.75115086  1
  Mg  Mg95  1  0.83223582  0.33263753  0.75036104  1
  Fe  Fe96  1  0.97073458  0.66550252  0.88992097  1
  Fe  Fe97  1  0.48185233  0.08259750  0.39591922  1
  Fe  Fe98  1  0.80934079  0.92047440  0.39232511  1
  Fe  Fe99  1  0.13882567  0.07980416  0.89544254  1
  Fe  Fe100  1  0.53539412  0.58303237  0.60659165  1
  Fe  Fe101  1  0.86332338  0.08363073  0.10715639  1
  Fe  Fe102  1  0.19523887  0.58017699  0.10752630  1
  Fe  Fe103  1  0.30900421  0.16945869  0.89441304  1
  Fe  Fe104  1  0.19706590  0.57756794  0.60251391  1
  Fe  Fe105  1  0.68544745  0.34079934  0.10536609  1
  Fe  Fe106  1  0.02437916  0.66392441  0.60455104  1
  Fe  Fe107  1  0.47249001  0.58508772  0.38820903  1
  Fe  Fe108  1  0.51705732  0.58760611  0.10716580  1
  Fe  Fe109  1  0.36019812  0.67573155  0.60281947  1
  Fe  Fe110  1  0.02476671  0.83657428  0.60961160  1
  Fe  Fe111  1  0.64572000  0.83125138  0.89403011  1
  Fe  Fe112  1  0.68859523  0.16926969  0.10733166  1
  Si  Si113  1  0.80528026  0.08987828  0.88601581  1
  Si  Si114  1  0.52197061  0.41176567  0.61016242  1
  Si  Si115  1  0.86382929  0.42179844  0.10924176  1
  Si  Si116  1  0.35896923  0.16068457  0.61563375  1
  Si  Si117  1  0.68968856  0.32984110  0.61451358  1
  Si  Si118  1  0.85633688  0.91037336  0.11258852  1
  Si  Si119  1  0.69585195  0.83286385  0.61971330  1
  Si  Si120  1  0.18957251  0.92333127  0.11755453  1
  Si  Si121  1  0.70680145  0.66544179  0.61386095  1
  Si  Si122  1  0.50877500  0.42097806  0.10892435  1
  Si  Si123  1  0.13674265  0.08513916  0.38668369  1
  Si  Si124  1  0.19347489  0.92340549  0.61456036  1
  Si  Si125  1  0.85470166  0.92127714  0.61692320  1
  Si  Si126  1  0.97816323  0.82990178  0.38698289  1
  Si  Si127  1  0.31204334  0.33868731  0.88628850  1
  Si  Si128  1  0.14402335  0.41914440  0.38273195  1
  Si  Si129  1  0.29957118  0.67113246  0.38560057  1
  Si  Si130  1  0.97686539  0.17355779  0.38706770  1
  Si  Si131  1  0.36237433  0.16057081  0.11878113  1
  Si  Si132  1  0.52964740  0.91564186  0.61720527  1
  Si  Si133  1  0.63684737  0.33078283  0.88334373  1
  Si  Si134  1  0.97778013  0.33807209  0.38433754  1
  Si  Si135  1  0.47554754  0.41188457  0.38605973  1
  Si  Si136  1  0.13924862  0.91943887  0.38545181  1
  Si  Si137  1  0.19297531  0.40890710  0.11083946  1
  Si  Si138  1  0.18948454  0.08683155  0.61564634  1
  Si  Si139  1  0.97006772  0.16835352  0.88954884  1
  Si  Si140  1  0.35835306  0.32521364  0.61377200  1
  Si  Si141  1  0.13756122  0.58338471  0.38126211  1
  Si  Si142  1  0.69153288  0.66547042  0.11183391  1
  Si  Si143  1  0.52516896  0.07665932  0.11639655  1
  Si  Si144  1  0.81369068  0.09264845  0.39112122  1
  Si  Si145  1  0.31088798  0.66435574  0.88229239  1
  Si  Si146  1  0.14531978  0.91049446  0.89053629  1
  Si  Si147  1  0.03213279  0.16718305  0.11418047  1
  Si  Si148  1  0.47458677  0.58233101  0.88050592  1
  Si  Si149  1  0.47546825  0.42055093  0.88201405  1
  Si  Si150  1  0.35255171  0.83925601  0.11672092  1
  Si  Si151  1  0.14189412  0.41643847  0.88327058  1
  Si  Si152  1  0.97603932  0.33328235  0.88560383  1
  Si  Si153  1  0.35744948  0.84395477  0.61291120  1
  Si  Si154  1  0.80606275  0.40999921  0.88494836  1
  Si  Si155  1  0.35604777  0.67759362  0.10862179  1
  Si  Si156  1  0.97489677  0.83656972  0.89010578  1
  Si  Si157  1  0.64487180  0.66161912  0.88607948  1
  Si  Si158  1  0.64841212  0.17335805  0.39169921  1
  Si  Si159  1  0.30481494  0.16616210  0.39059722  1
  Si  Si160  1  0.64520902  0.33594822  0.38351297  1
  Si  Si161  1  0.86242142  0.57593113  0.61338398  1
  Si  Si162  1  0.35878381  0.32521254  0.11466043  1
  Si  Si163  1  0.52244866  0.91246135  0.11838123  1
  Si  Si164  1  0.30719453  0.33185367  0.38509802  1
  Si  Si165  1  0.01961601  0.32883224  0.61499682  1
  Si  Si166  1  0.81087942  0.58402552  0.38291102  1
  Si  Si167  1  0.02599152  0.33182201  0.11396964  1
  Si  Si168  1  0.19574376  0.08682120  0.11967138  1
  Si  Si169  1  0.47470130  0.07802112  0.88989383  1
  Si  Si170  1  0.52698482  0.08008877  0.61706985  1
  Si  Si171  1  0.69066471  0.16595527  0.61672913  1
  Si  Si172  1  0.30318662  0.83594058  0.38618950  1
  Si  Si173  1  0.64150605  0.83107124  0.38867085  1
  Si  Si174  1  0.85620707  0.08478652  0.61859256  1
  Si  Si175  1  0.18830303  0.40545314  0.61011564  1
  Si  Si176  1  0.30657171  0.82847970  0.88320547  1
  Si  Si177  1  0.02144866  0.16483076  0.61648168  1
  Si  Si178  1  0.64581699  0.66747780  0.38587785  1
  Si  Si179  1  0.02597474  0.83587919  0.11499473  1
  Si  Si180  1  0.97417303  0.66505932  0.38222581  1
  Si  Si181  1  0.85407361  0.41336312  0.61481779  1
  Si  Si182  1  0.86117375  0.58876397  0.11259296  1
  Si  Si183  1  0.02661284  0.67056380  0.11174640  1
  Si  Si184  1  0.68876212  0.82988108  0.11598517  1
  Si  Si185  1  0.14475960  0.58169002  0.88504754  1
  Si  Si186  1  0.81219722  0.92485090  0.89084331  1
  Si  Si187  1  0.63627754  0.16458397  0.88514613  1
  Si  Si188  1  0.47281165  0.91172608  0.88814692  1
  Si  Si189  1  0.81290450  0.42001645  0.38280520  1
  Si  Si190  1  0.80299225  0.57496012  0.88882927  1
  Si  Si191  1  0.47506665  0.90970147  0.39022689  1
  O  O192  1  0.28027032  0.10973302  0.09119202  1
  O  O193  1  0.26862121  0.12286192  0.58360502  1
  O  O194  1  0.28179065  0.62413781  0.07257482  1
  O  O195  1  0.28503000  0.60620708  0.56309448  1
  O  O196  1  0.59734652  0.10461006  0.07795418  1
  O  O197  1  0.60399061  0.12161457  0.58809056  1
  O  O198  1  0.61501831  0.61658804  0.07471187  1
  O  O199  1  0.63226895  0.61587231  0.57489745  1
  O  O200  1  0.96517311  0.11107619  0.07714103  1
  O  O201  1  0.93727889  0.11605916  0.58794270  1
  O  O202  1  0.93580151  0.63169892  0.08353599  1
  O  O203  1  0.94449498  0.58844121  0.58075842  1
  O  O204  1  0.11009659  0.35716089  0.08533146  1
  O  O205  1  0.10284329  0.35421122  0.58530395  1
  O  O206  1  0.10510921  0.87610486  0.08799091  1
  O  O207  1  0.11769959  0.87458839  0.57429240  1
  O  O208  1  0.43572108  0.35752120  0.08205027  1
  O  O209  1  0.43714443  0.36109145  0.58442851  1
  O  O210  1  0.43661663  0.86581640  0.08838824  1
  O  O211  1  0.44069499  0.87836098  0.58431126  1
  O  O212  1  0.78127694  0.38148305  0.07195088  1
  O  O213  1  0.77226072  0.36131175  0.58644794  1
  O  O214  1  0.77011474  0.86195613  0.08688047  1
  O  O215  1  0.76911406  0.87464342  0.58701835  1
  O  O216  1  0.27108238  0.36764019  0.08409449  1
  O  O217  1  0.26678448  0.36159493  0.58381626  1
  O  O218  1  0.27302821  0.89455930  0.08937079  1
  O  O219  1  0.28276100  0.90444575  0.58811899  1
  O  O220  1  0.59265106  0.40289236  0.07832354  1
  O  O221  1  0.60276825  0.37144664  0.58356545  1
  O  O222  1  0.60231805  0.87723140  0.08875199  1
  O  O223  1  0.60606334  0.87398092  0.58860064  1
  O  O224  1  0.94826821  0.38577138  0.08415320  1
  O  O225  1  0.93578530  0.37863691  0.58610139  1
  O  O226  1  0.93702056  0.87378895  0.08246998  1
  O  O227  1  0.93121402  0.89861502  0.58085670  1
  O  O228  1  0.12428001  0.14699605  0.09216988  1
  O  O229  1  0.10350518  0.13579999  0.58615861  1
  O  O230  1  0.09592019  0.63186139  0.07627875  1
  O  O231  1  0.10926946  0.63383956  0.56064355  1
  O  O232  1  0.43899330  0.12522870  0.08779896  1
  O  O233  1  0.43642406  0.11961189  0.58704466  1
  O  O234  1  0.44101857  0.66395605  0.07875479  1
  O  O235  1  0.45709907  0.65005846  0.57171681  1
  O  O236  1  0.77613225  0.13931401  0.06487998  1
  O  O237  1  0.77325494  0.13518104  0.58888260  1
  O  O238  1  0.77597578  0.63399856  0.08390541  1
  O  O239  1  0.79206641  0.63757652  0.58534725  1
  O  O240  1  0.06251375  0.12695580  0.41744918  1
  O  O241  1  0.03912954  0.11358654  0.92605023  1
  O  O242  1  0.05422726  0.61174352  0.40896174  1
  O  O243  1  0.07343563  0.61629855  0.92167453  1
  O  O244  1  0.38932876  0.12754301  0.42755525  1
  O  O245  1  0.40414783  0.11224774  0.92713785  1
  O  O246  1  0.38194529  0.62882579  0.42039630  1
  O  O247  1  0.39570997  0.61676370  0.91217783  1
  O  O248  1  0.73824402  0.13343772  0.42321545  1
  O  O249  1  0.72217024  0.11985386  0.91325572  1
  O  O250  1  0.73288753  0.62017249  0.41243344  1
  O  O251  1  0.71798177  0.60083852  0.91629604  1
  O  O252  1  0.23179201  0.37646140  0.41295838  1
  O  O253  1  0.22692924  0.37026945  0.91267330  1
  O  O254  1  0.23094619  0.88329498  0.41485513  1
  O  O255  1  0.22611129  0.85582679  0.91654622  1
  O  O256  1  0.56601670  0.37058357  0.41487089  1
  O  O257  1  0.55863775  0.37000853  0.91092634  1
  O  O258  1  0.55243594  0.85290689  0.41450708  1
  O  O259  1  0.55023209  0.86453033  0.92748118  1
  O  O260  1  0.89955366  0.37390960  0.41554968  1
  O  O261  1  0.89408141  0.36608698  0.91373205  1
  O  O262  1  0.90600105  0.86210213  0.42340931  1
  O  O263  1  0.90312013  0.88561839  0.91848073  1
  O  O264  1  0.06520152  0.38330035  0.41313206  1
  O  O265  1  0.06096140  0.38148853  0.91256575  1
  O  O266  1  0.06675969  0.87482911  0.41436996  1
  O  O267  1  0.06536545  0.87511380  0.92045910  1
  O  O268  1  0.40053852  0.36441539  0.41465326  1
  O  O269  1  0.39057737  0.39558946  0.91004693  1
  O  O270  1  0.39252142  0.87420915  0.41674619  1
  O  O271  1  0.38661233  0.88073952  0.91348490  1
  O  O272  1  0.73209795  0.38356953  0.41037094  1
  O  O273  1  0.72754360  0.36983040  0.91213331  1
  O  O274  1  0.71453226  0.88392355  0.42548955  1
  O  O275  1  0.73997476  0.89210349  0.92721460  1
  O  O276  1  0.22395112  0.12777661  0.41721865  1
  O  O277  1  0.22197476  0.14224271  0.93623207  1
  O  O278  1  0.21609767  0.63527200  0.40995371  1
  O  O279  1  0.23412797  0.62466404  0.91265982  1
  O  O280  1  0.57684303  0.13901132  0.42984226  1
  O  O281  1  0.56205763  0.12525549  0.91570000  1
  O  O282  1  0.57313989  0.63344285  0.42183475  1
  O  O283  1  0.55684032  0.63136031  0.90909588  1
  O  O284  1  0.89931557  0.14326833  0.42034759  1
  O  O285  1  0.87859840  0.14920166  0.91203614  1
  O  O286  1  0.89566737  0.63164335  0.41352078  1
  O  O287  1  0.88477046  0.61811924  0.92588967  1
  O  O288  1  0.16878475  0.00591348  0.09106449  1
  O  O289  1  0.17225692  0.00701028  0.58438012  1
  O  O290  1  0.17666901  0.48535188  0.07434655  1
  O  O291  1  0.17121941  0.47991441  0.57206454  1
  O  O292  1  0.50216864  -0.00661214  0.08905492  1
  O  O293  1  0.52474196  -0.00102582  0.58654269  1
  O  O294  1  0.47121593  0.49716477  0.07711474  1
  O  O295  1  0.50719705  0.48746165  0.57375754  1
  O  O296  1  0.83993486  -0.01250776  0.07809037  1
  O  O297  1  0.82948702  0.00496519  0.59105437  1
  O  O298  1  0.86060285  0.50664339  0.08291155  1
  O  O299  1  0.82810913  0.49352103  0.58681190  1
  O  O300  1  0.00633900  0.24974196  0.08677951  1
  O  O301  1  -0.00173457  0.24664729  0.58652849  1
  O  O302  1  0.02033333  0.75429053  0.08577490  1
  O  O303  1  -0.01200385  0.75146845  0.56778173  1
  O  O304  1  0.34360919  0.24170287  0.08814206  1
  O  O305  1  0.35274728  0.24256862  0.58454398  1
  O  O306  1  0.32231747  0.76088622  0.08644319  1
  O  O307  1  0.32990977  0.77103222  0.57216894  1
  O  O308  1  0.65714856  0.25483739  0.06214082  1
  O  O309  1  0.67623533  0.24732831  0.58624631  1
  O  O310  1  0.67423063  0.74922413  0.08387540  1
  O  O311  1  0.69139829  0.75078527  0.58955160  1
  O  O312  1  0.14186204  0.00220393  0.41449801  1
  O  O313  1  0.16658434  -0.01383331  0.92883013  1
  O  O314  1  0.15562137  0.50148186  0.41059981  1
  O  O315  1  0.15865162  0.49744751  0.91277836  1
  O  O316  1  0.49388878  -0.01363941  0.42720481  1
  O  O317  1  0.48962895  -0.00471059  0.91703057  1
  O  O318  1  0.47940044  0.48946109  0.42059408  1
  O  O319  1  0.49657853  0.50102988  0.91242850  1
  O  O320  1  0.83079764  0.01486738  0.42670614  1
  O  O321  1  0.82970909  0.01009004  0.91551997  1
  O  O322  1  0.82496258  0.50174231  0.41431088  1
  O  O323  1  0.81666166  0.49028480  0.91565594  1
  O  O324  1  0.30300239  0.25080228  0.41601744  1
  O  O325  1  0.33873400  0.26476611  0.92391679  1
  O  O326  1  0.30027039  0.75438290  0.41359060  1
  O  O327  1  0.32588424  0.74578178  0.91359273  1
  O  O328  1  0.66408914  0.25756143  0.42047478  1
  O  O329  1  0.64582030  0.24814069  0.91129534  1
  O  O330  1  0.66601652  0.74927867  0.41676561  1
  O  O331  1  0.66893564  0.73611088  0.92591721  1
  O  O332  1  0.99460721  0.25670934  0.41568473  1
  O  O333  1  0.99283738  0.25217926  0.91546544  1
  O  O334  1  0.99833534  0.74565451  0.41081267  1
  O  O335  1  0.97690464  0.75872690  0.92570219  1
  O  O336  1  0.21289078  0.08427306  0.20040931  1
  O  O337  1  0.21125968  0.09003250  0.69432420  1
  O  O338  1  0.21120984  0.58361726  0.19938269  1
  O  O339  1  0.20984336  0.58015048  0.69570937  1
  O  O340  1  0.53932778  0.08066381  0.19631011  1
  O  O341  1  0.54418618  0.08350792  0.69708904  1
  O  O342  1  0.54046891  0.58455811  0.19716931  1
  O  O343  1  0.55409982  0.57285012  0.69676519  1
  O  O344  1  0.88455429  0.09436135  0.19777266  1
  O  O345  1  0.87541196  0.08654120  0.69885777  1
  O  O346  1  0.88034455  0.58633703  0.19288396  1
  O  O347  1  0.87789927  0.57597355  0.69434915  1
  O  O348  1  0.04479481  0.33364385  0.19483058  1
  O  O349  1  0.03916114  0.33072157  0.69541806  1
  O  O350  1  0.04380154  0.83568756  0.19564266  1
  O  O351  1  0.04375022  0.83361165  0.70184529  1
  O  O352  1  0.37450789  0.32900163  0.19526390  1
  O  O353  1  0.37529325  0.32866445  0.69429454  1
  O  O354  1  0.37240982  0.83715368  0.19741033  1
  O  O355  1  0.37867352  0.83585912  0.69233455  1
  O  O356  1  0.71437158  0.32781137  0.19516815  1
  O  O357  1  0.70825002  0.33072900  0.69504904  1
  O  O358  1  0.70670022  0.82999189  0.19605267  1
  O  O359  1  0.71615931  0.83827682  0.69887526  1
  O  O360  1  0.21027588  0.41328239  0.19206848  1
  O  O361  1  0.20764628  0.41028680  0.69111794  1
  O  O362  1  0.20850590  0.91977624  0.19805685  1
  O  O363  1  0.20442465  0.91887523  0.69361138  1
  O  O364  1  0.52365242  0.41795868  0.18949881  1
  O  O365  1  0.54193393  0.41077697  0.69124128  1
  O  O366  1  0.53890158  0.91288933  0.19868614  1
  O  O367  1  0.54531114  0.92137469  0.69676626  1
  O  O368  1  0.87996567  0.41892805  0.19021168  1
  O  O369  1  0.87514681  0.41196107  0.69540111  1
  O  O370  1  0.88114114  0.90741445  0.19237000  1
  O  O371  1  0.87426130  0.91851418  0.69776269  1
  O  O372  1  0.04790795  0.16845778  0.19556952  1
  O  O373  1  0.03970877  0.16721660  0.69643198  1
  O  O374  1  0.04396809  0.66861134  0.19285011  1
  O  O375  1  0.04637306  0.66496270  0.69738702  1
  O  O376  1  0.37710384  0.16468761  0.19901037  1
  O  O377  1  0.37761055  0.16489627  0.69547170  1
  O  O378  1  0.37002966  0.67220134  0.19005375  1
  O  O379  1  0.36504331  0.66949053  0.69280459  1
  O  O380  1  0.71128567  0.16925408  0.19890056  1
  O  O381  1  0.70854099  0.16649601  0.69712000  1
  O  O382  1  0.71071003  0.66965794  0.19189875  1
  O  O383  1  0.72037554  0.65967216  0.69352794  1
  O  O384  1  0.12272263  0.08602056  0.30636279  1
  O  O385  1  0.11952890  0.08631719  0.80428276  1
  O  O386  1  0.12043186  0.58258605  0.30092408  1
  O  O387  1  0.12377689  0.57942736  0.80480349  1
  O  O388  1  0.45753425  0.08302469  0.30460704  1
  O  O389  1  0.45707847  0.08253401  0.80888046  1
  O  O390  1  0.44870358  0.58544216  0.29713710  1
  O  O391  1  0.44968354  0.57479296  0.80183565  1
  O  O392  1  0.79468856  0.09391619  0.31235871  1
  O  O393  1  0.78731242  0.08632971  0.80530802  1
  O  O394  1  0.79828149  0.58281790  0.30368214  1
  O  O395  1  0.79150351  0.57756578  0.80799574  1
  O  O396  1  0.28926698  0.33205464  0.30464597  1
  O  O397  1  0.29102783  0.33430660  0.80499443  1
  O  O398  1  0.28633091  0.83603317  0.30542600  1
  O  O399  1  0.28590498  0.82906485  0.80394712  1
  O  O400  1  0.62127435  0.32982662  0.30484803  1
  O  O401  1  0.62087413  0.33132922  0.80263863  1
  O  O402  1  0.62302109  0.83173340  0.30775628  1
  O  O403  1  0.62118953  0.83692258  0.80437568  1
  O  O404  1  0.96094684  0.33667994  0.30424073  1
  O  O405  1  0.95622097  0.33259842  0.80491209  1
  O  O406  1  0.95916553  0.83274900  0.30595057  1
  O  O407  1  0.95629998  0.83516888  0.80948565  1
  O  O408  1  0.12479006  0.41666711  0.30228417  1
  O  O409  1  0.12251384  0.41429860  0.80274443  1
  O  O410  1  0.12312679  0.91823059  0.30504407  1
  O  O411  1  0.12301978  0.91403737  0.81067911  1
  O  O412  1  0.45433092  0.41225119  0.30554025  1
  O  O413  1  0.45730944  0.41508787  0.80148698  1
  O  O414  1  0.45454357  0.91465918  0.30932453  1
  O  O415  1  0.46115143  0.91526301  0.80841547  1
  O  O416  1  0.80377331  0.41982268  0.30399795  1
  O  O417  1  0.78909504  0.41132887  0.80445761  1
  O  O418  1  0.78580476  0.90952016  0.30295527  1
  O  O419  1  0.79103936  0.92077854  0.80994255  1
  O  O420  1  0.29009347  0.16602358  0.30962822  1
  O  O421  1  0.28963866  0.16740067  0.80196569  1
  O  O422  1  0.28612851  0.67100064  0.30451980  1
  O  O423  1  0.28967719  0.66517225  0.80273782  1
  O  O424  1  0.62395664  0.17256913  0.31224727  1
  O  O425  1  0.62022811  0.16576275  0.80439091  1
  O  O426  1  0.62265110  0.67114054  0.30625920  1
  O  O427  1  0.63592314  0.66487932  0.80741579  1
  O  O428  1  0.96264124  0.17187382  0.30734328  1
  O  O429  1  0.95497796  0.16837859  0.80813270  1
  O  O430  1  0.95655348  0.66604501  0.30171927  1
  O  O431  1  0.95461649  0.66423319  0.79895910  1
  F  F432  1  0.04766897  0.00077408  0.20249935  1
  F  F433  1  0.03292273  0.00040220  0.70112475  1
  F  F434  1  0.04655552  0.49958744  0.19829884  1
  F  F435  1  0.04401576  0.49529482  0.70170878  1
  F  F436  1  0.37668820  -0.00140093  0.20629810  1
  F  F437  1  0.38309500  0.00878931  0.70136508  1
  F  F438  1  0.37157593  0.49796673  0.20094268  1
  F  F439  1  0.37753891  0.49418602  0.69740052  1
  F  F440  1  0.69297622  -0.00477897  0.19653728  1
  F  F441  1  0.71185680  0.00158611  0.70480239  1
  F  F442  1  0.72179597  0.50991898  0.19092082  1
  F  F443  1  0.71542511  0.49426142  0.70326872  1
  F  F444  1  0.21455376  0.24832359  0.20458763  1
  F  F445  1  0.20946438  0.25052027  0.70179010  1
  F  F446  1  0.20914127  0.75384113  0.20154750  1
  F  F447  1  0.20935989  0.75228168  0.69997452  1
  F  F448  1  0.54293828  0.24750465  0.20342327  1
  F  F449  1  0.54351754  0.24664857  0.70107238  1
  F  F450  1  0.54330182  0.75222411  0.20436833  1
  F  F451  1  0.54899354  0.76525817  0.69412502  1
  F  F452  1  0.88288589  0.25436310  0.20212602  1
  F  F453  1  0.87708195  0.24889825  0.70359982  1
  F  F454  1  0.87887095  0.74961252  0.20192890  1
  F  F455  1  0.87836076  0.75284013  0.70306218  1
  F  F456  1  0.28646610  0.00066731  0.30266395  1
  F  F457  1  0.29068544  0.00134208  0.80331504  1
  F  F458  1  0.28610332  0.49535434  0.29821152  1
  F  F459  1  0.28661473  0.49472416  0.79459204  1
  F  F460  1  0.61690916  -0.00828380  0.30649881  1
  F  F461  1  0.62111668  0.00226743  0.80034951  1
  F  F462  1  0.61272259  0.50334097  0.30579923  1
  F  F463  1  0.62116744  0.49197893  0.79967678  1
  F  F464  1  0.96945000  0.00098799  0.30323728  1
  F  F465  1  0.95199258  0.00112804  0.80140727  1
  F  F466  1  0.95770507  0.50104721  0.29363582  1
  F  F467  1  0.95512080  0.49525272  0.79851867  1
  F  F468  1  0.12289050  0.25211862  0.29866566  1
  F  F469  1  0.12040378  0.25214700  0.79875546  1
  F  F470  1  0.11996069  0.75028390  0.29625512  1
  F  F471  1  0.12464433  0.74700621  0.79949677  1
  F  F472  1  0.45485880  0.24989751  0.30015617  1
  F  F473  1  0.45538664  0.24958415  0.79732123  1
  F  F474  1  0.45030088  0.75037629  0.29738824  1
  F  F475  1  0.44851619  0.75782170  0.80061865  1
  F  F476  1  0.79577331  0.25447487  0.30126074  1
  F  F477  1  0.78537356  0.25025224  0.79840199  1
  F  F478  1  0.78946883  0.74721479  0.29719275  1
  F  F479  1  0.79800632  0.74948449  0.80340264  1
