# generated using pymatgen
data_K24Na3Li5Mg64Fe17Si79(O5F)48
_symmetry_space_group_name_H-M   'P 1'
_cell_length_a   16.10978094
_cell_length_b   18.60831251
_cell_length_c   20.59219732
_cell_angle_alpha   89.99096690
_cell_angle_beta   100.02388650
_cell_angle_gamma   90.02709225
_symmetry_Int_Tables_number   1
_chemical_formula_structural   K24Na3Li5Mg64Fe17Si79(O5F)48
_chemical_formula_sum   'K24 Na3 Li5 Mg64 Fe17 Si79 O240 F48'
_cell_volume   6078.81269976
_cell_formula_units_Z   1
loop_
 _symmetry_equiv_pos_site_id
 _symmetry_equiv_pos_as_xyz
  1  'x, y, z'
loop_
 _atom_site_type_symbol
 _atom_site_label
 _atom_site_symmetry_multiplicity
 _atom_site_fract_x
 _atom_site_fract_y
 _atom_site_fract_z
 _atom_site_occupancy
  K  K0  1  0.01101017  -0.00280566  0.00804984  1
  K  K1  1  -0.00468591  0.00619685  0.48993647  1
  K  K2  1  -0.00335766  0.50188461  0.00815396  1
  K  K3  1  0.00807524  0.50024194  0.48982099  1
  K  K4  1  0.32537341  0.00278694  0.00792708  1
  K  K5  1  0.31066599  0.00380544  0.48893453  1
  K  K6  1  0.33159418  0.50183066  0.00289162  1
  K  K7  1  0.32901582  0.48470198  0.49442515  1
  K  K8  1  0.66110047  -0.00146999  0.00667448  1
  K  K9  1  0.67608702  0.00592607  0.48604985  1
  K  K10  1  0.67076034  0.49939084  0.00191863  1
  K  K11  1  0.66566676  0.49748298  0.50040331  1
  K  K12  1  0.16366002  0.24178479  0.01754855  1
  K  K13  1  0.16136182  0.24628742  0.48492369  1
  K  K14  1  0.16348998  0.75139160  0.00028916  1
  K  K15  1  0.15967447  0.75086664  0.49401749  1
  K  K16  1  0.51058360  0.24603931  0.00559127  1
  K  K17  1  0.49179735  0.24270590  0.49843373  1
  K  K18  1  0.52174765  0.75467718  -0.00193632  1
  K  K19  1  0.50358754  0.75472136  0.50411735  1
  K  K20  1  0.83860022  0.25435525  0.01357067  1
  K  K21  1  0.82618556  0.24781584  0.49347686  1
  K  K22  1  0.83020043  0.75704614  0.00102339  1
  K  K23  1  0.83486724  0.76628063  0.49765921  1
  Na  Na24  1  0.83610518  0.50131710  0.75451604  1
  Na  Na25  1  0.50173808  0.67011114  0.75749629  1
  Na  Na26  1  0.00107260  0.08063582  0.74483580  1
  Li  Li27  1  0.00621673  0.24843265  0.24837675  1
  Li  Li28  1  -0.00539219  0.75052657  0.75212608  1
  Li  Li29  1  -0.00274940  0.57977828  0.24795745  1
  Li  Li30  1  0.15267545  0.32641253  0.25445614  1
  Li  Li31  1  0.66770143  0.08170531  0.24405632  1
  Mg  Mg32  1  0.66976131  0.75177255  0.25249058  1
  Mg  Mg33  1  0.83754005  0.49834788  0.24998533  1
  Mg  Mg34  1  0.50608921  0.00097475  0.25053153  1
  Mg  Mg35  1  0.83035393  0.00143226  0.25200357  1
  Mg  Mg36  1  0.33447904  0.24944959  0.74393252  1
  Mg  Mg37  1  0.33341123  0.75048507  0.24756982  1
  Mg  Mg38  1  0.49972508  0.49980687  0.25064429  1
  Mg  Mg39  1  0.66837991  0.25155254  0.74951215  1
  Mg  Mg40  1  0.83555467  -0.00058091  0.75482994  1
  Mg  Mg41  1  0.00092070  0.74794098  0.25031152  1
  Mg  Mg42  1  0.66579389  0.24531957  0.24965256  1
  Mg  Mg43  1  0.50072860  -0.00037008  0.75171812  1
  Mg  Mg44  1  0.16437773  -0.00105703  0.74494749  1
  Mg  Mg45  1  0.66489529  0.75140950  0.75640063  1
  Mg  Mg46  1  0.16768771  0.00020846  0.24800993  1
  Mg  Mg47  1  0.16569836  0.50179608  0.74568715  1
  Mg  Mg48  1  0.33259489  0.75064083  0.74970592  1
  Mg  Mg49  1  0.32666509  0.24940688  0.24911418  1
  Mg  Mg50  1  0.16066505  0.49691935  0.24954066  1
  Mg  Mg51  1  0.50089468  0.50262790  0.75123546  1
  Mg  Mg52  1  0.00189324  0.25036256  0.74601046  1
  Mg  Mg53  1  0.67015346  0.91533742  0.75670996  1
  Mg  Mg54  1  0.49825514  0.33504949  0.74584838  1
  Mg  Mg55  1  0.49950191  0.16460971  0.24934295  1
  Mg  Mg56  1  0.32669177  0.41484853  0.25154581  1
  Mg  Mg57  1  0.83647666  0.66449257  0.25116976  1
  Mg  Mg58  1  0.83591727  0.33448350  0.74923376  1
  Mg  Mg59  1  0.16409424  0.16589437  0.24613955  1
  Mg  Mg60  1  0.33165227  0.08428462  0.24723495  1
  Mg  Mg61  1  0.16221733  0.66427736  0.24950795  1
  Mg  Mg62  1  -0.00173709  0.58586372  0.74935868  1
  Mg  Mg63  1  0.50009922  0.16590607  0.74608074  1
  Mg  Mg64  1  0.66893379  0.58595184  0.75488577  1
  Mg  Mg65  1  0.33312110  0.41530485  0.74524726  1
  Mg  Mg66  1  0.83447849  0.66800932  0.75382255  1
  Mg  Mg67  1  0.00092359  0.41808469  0.74788196  1
  Mg  Mg68  1  0.66812534  0.41844163  0.74888616  1
  Mg  Mg69  1  0.83491008  0.83440542  0.75536398  1
  Mg  Mg70  1  0.16478793  0.83450759  0.24769158  1
  Mg  Mg71  1  0.83803643  0.33205999  0.24828179  1
  Mg  Mg72  1  -0.00147648  0.91237346  0.75170358  1
  Mg  Mg73  1  0.83257043  0.16615129  0.25032961  1
  Mg  Mg74  1  0.67098395  0.08438002  0.75321937  1
  Mg  Mg75  1  0.50197222  0.83475746  0.24809326  1
  Mg  Mg76  1  -0.00002585  0.41626722  0.25107506  1
  Mg  Mg77  1  0.66892200  0.58302546  0.25113824  1
  Mg  Mg78  1  0.00039520  0.08693627  0.25042784  1
  Mg  Mg79  1  0.33037943  0.58308240  0.25068932  1
  Mg  Mg80  1  0.66791090  0.41401363  0.24980314  1
  Mg  Mg81  1  0.16705189  0.33429740  0.74410962  1
  Mg  Mg82  1  0.33193939  0.91483677  0.74818369  1
  Mg  Mg83  1  0.32973289  0.08314162  0.74372315  1
  Mg  Mg84  1  0.50327772  0.83404018  0.75504050  1
  Mg  Mg85  1  0.00116680  0.91519402  0.25162170  1
  Mg  Mg86  1  0.49771793  0.33369180  0.25054811  1
  Mg  Mg87  1  0.50075951  0.66575756  0.25064530  1
  Mg  Mg88  1  0.83771160  0.16616184  0.75109639  1
  Mg  Mg89  1  0.83496478  0.83628420  0.25286825  1
  Mg  Mg90  1  0.16532374  0.16412724  0.74416748  1
  Mg  Mg91  1  0.33310082  0.91610776  0.24581454  1
  Mg  Mg92  1  0.33411166  0.58481054  0.75016391  1
  Mg  Mg93  1  0.16305205  0.66851918  0.74835301  1
  Mg  Mg94  1  0.16125183  0.83193114  0.74858912  1
  Mg  Mg95  1  0.66818006  0.91993082  0.25261109  1
  Fe  Fe96  1  0.79951806  0.09106226  0.38922052  1
  Fe  Fe97  1  0.13280642  0.08122555  0.38960504  1
  Fe  Fe98  1  0.85682759  0.41824655  0.10817575  1
  Fe  Fe99  1  0.64751162  0.66044211  0.89736724  1
  Fe  Fe100  1  0.52127793  0.08489106  0.10999731  1
  Fe  Fe101  1  0.35753347  0.33314551  0.60575677  1
  Fe  Fe102  1  0.64229559  0.83760153  0.89740167  1
  Fe  Fe103  1  0.30807562  0.16251288  0.38909202  1
  Fe  Fe104  1  0.02538397  0.33190309  0.10981868  1
  Fe  Fe105  1  0.81540196  0.92447595  0.89573720  1
  Fe  Fe106  1  0.19999771  0.91089286  0.10644354  1
  Fe  Fe107  1  0.14500745  0.41690682  0.39104301  1
  Fe  Fe108  1  0.02254683  0.83111188  0.10992423  1
  Fe  Fe109  1  0.18701629  0.07887614  0.60484309  1
  Fe  Fe110  1  0.52559345  0.91454173  0.11018367  1
  Fe  Fe111  1  0.81110638  0.91817433  0.39436486  1
  Fe  Fe112  1  0.19249678  0.08388821  0.10532853  1
  Si  Si113  1  0.35898278  0.34333485  0.11529495  1
  Si  Si114  1  0.81117113  0.41027466  0.88406282  1
  Si  Si115  1  0.97574930  0.66149646  0.38460596  1
  Si  Si116  1  0.53232791  0.08142999  0.61530931  1
  Si  Si117  1  0.62892593  0.17293714  0.38912068  1
  Si  Si118  1  0.36033515  0.83124954  0.61446145  1
  Si  Si119  1  0.02179848  0.33784032  0.61074976  1
  Si  Si120  1  0.80448515  0.41378353  0.38659200  1
  Si  Si121  1  0.69363793  0.83437601  0.61739256  1
  Si  Si122  1  0.47703468  0.91417777  0.38403958  1
  Si  Si123  1  0.52883745  0.58418703  0.61680194  1
  Si  Si124  1  0.46571866  0.92049904  0.88651074  1
  Si  Si125  1  0.36833713  0.82298046  0.11043984  1
  Si  Si126  1  0.47367069  0.42168239  0.38563348  1
  Si  Si127  1  0.47249184  0.07738972  0.38638466  1
  Si  Si128  1  0.14294743  0.90861097  0.38803065  1
  Si  Si129  1  0.68892211  0.33027971  0.11299305  1
  Si  Si130  1  0.69341156  0.66928549  0.61637301  1
  Si  Si131  1  0.18765152  0.90679081  0.61109979  1
  Si  Si132  1  0.02096499  0.82924158  0.61646587  1
  Si  Si133  1  0.64080337  0.33601265  0.88407177  1
  Si  Si134  1  0.01787423  0.16074254  0.10861076  1
  Si  Si135  1  0.63581828  0.33687566  0.38640173  1
  Si  Si136  1  0.80938587  0.57939793  0.38668216  1
  Si  Si137  1  0.85934856  0.91938146  0.11675135  1
  Si  Si138  1  0.64191612  0.16946626  0.88432535  1
  Si  Si139  1  0.18820652  0.58236369  0.11477292  1
  Si  Si140  1  0.97575077  0.82852332  0.88780614  1
  Si  Si141  1  0.14410247  0.41946179  0.88172607  1
  Si  Si142  1  0.69278644  0.16557466  0.11374773  1
  Si  Si143  1  0.13789284  0.91521905  0.88360644  1
  Si  Si144  1  0.97746302  0.82585211  0.39002043  1
  Si  Si145  1  0.98089038  0.33487782  0.88324444  1
  Si  Si146  1  0.30562697  0.16643962  0.88183797  1
  Si  Si147  1  0.46684901  0.57740162  0.88990613  1
  Si  Si148  1  0.96708654  0.17325649  0.38610240  1
  Si  Si149  1  0.85683395  0.58506794  0.61461378  1
  Si  Si150  1  0.02027228  0.66309259  0.11448059  1
  Si  Si151  1  0.36274636  0.15994168  0.60922591  1
  Si  Si152  1  0.47331638  0.08715974  0.88224755  1
  Si  Si153  1  0.97675117  0.66259083  0.88578267  1
  Si  Si154  1  0.85945477  0.41816780  0.61423227  1
  Si  Si155  1  0.14243273  0.58414494  0.88286559  1
  Si  Si156  1  0.35684094  0.66012605  0.11521709  1
  Si  Si157  1  0.52747601  0.41797848  0.11545695  1
  Si  Si158  1  0.30493015  0.33075174  0.88199939  1
  Si  Si159  1  0.02093793  0.66535774  0.61384116  1
  Si  Si160  1  0.98118743  0.17355706  0.88300923  1
  Si  Si161  1  0.64373901  0.66332508  0.38740012  1
  Si  Si162  1  0.31648103  0.33067043  0.38811518  1
  Si  Si163  1  0.31174596  0.67116294  0.38554193  1
  Si  Si164  1  0.36064391  0.17845197  0.10940680  1
  Si  Si165  1  0.35870429  0.66502145  0.61504864  1
  Si  Si166  1  0.69297481  0.67071596  0.11804522  1
  Si  Si167  1  0.81386840  0.57846660  0.89055423  1
  Si  Si168  1  0.30234982  0.83467654  0.88284610  1
  Si  Si169  1  0.47503230  0.58556084  0.38632597  1
  Si  Si170  1  0.18741470  0.42202825  0.60987682  1
  Si  Si171  1  0.85235384  0.58467225  0.11486188  1
  Si  Si172  1  0.30575403  0.66869176  0.88443200  1
  Si  Si173  1  0.69535579  0.16676207  0.61495509  1
  Si  Si174  1  0.52648618  0.91608278  0.61671326  1
  Si  Si175  1  0.19449064  0.41988845  0.11286832  1
  Si  Si176  1  0.47119617  0.41372342  0.88448077  1
  Si  Si177  1  0.85516384  0.08179461  0.11644302  1
  Si  Si178  1  0.14265932  0.08138232  0.88191730  1
  Si  Si179  1  0.69788532  0.83526162  0.11731342  1
  Si  Si180  1  0.14920525  0.58692378  0.38794950  1
  Si  Si181  1  0.31297969  0.83482275  0.38434312  1
  Si  Si182  1  0.69573271  0.33326278  0.61393204  1
  Si  Si183  1  0.53141939  0.41969835  0.61128638  1
  Si  Si184  1  0.85808507  0.08393992  0.61577849  1
  Si  Si185  1  0.63967587  0.82830357  0.38980948  1
  Si  Si186  1  0.18888913  0.58862321  0.61263921  1
  Si  Si187  1  0.81615476  0.09511276  0.88967947  1
  Si  Si188  1  0.52812999  0.58391204  0.11605344  1
  Si  Si189  1  0.85911585  0.91787421  0.61617413  1
  Si  Si190  1  0.02264271  0.17336066  0.60923767  1
  Si  Si191  1  0.97229487  0.33830626  0.38846326  1
  O  O192  1  0.28027159  0.13283896  0.07289534  1
  O  O193  1  0.29145233  0.10155652  0.58195014  1
  O  O194  1  0.27293669  0.61152392  0.08624804  1
  O  O195  1  0.26847344  0.62492808  0.58278553  1
  O  O196  1  0.61880159  0.11457572  0.07596748  1
  O  O197  1  0.61140321  0.11880501  0.58643003  1
  O  O198  1  0.60729718  0.62218471  0.08876443  1
  O  O199  1  0.60174127  0.63065106  0.58648717  1
  O  O200  1  0.93628439  0.10495427  0.08340089  1
  O  O201  1  0.93515771  0.12480185  0.58820072  1
  O  O202  1  0.94090473  0.60722372  0.08980577  1
  O  O203  1  0.93658073  0.61734928  0.58205987  1
  O  O204  1  0.12427518  0.36490999  0.07738955  1
  O  O205  1  0.10009426  0.37649145  0.58295828  1
  O  O206  1  0.11466499  0.84892997  0.07079137  1
  O  O207  1  0.10446155  0.85441743  0.58590114  1
  O  O208  1  0.44001549  0.37630668  0.08483325  1
  O  O209  1  0.44907899  0.37796471  0.57462713  1
  O  O210  1  0.45703764  0.83270146  0.08501460  1
  O  O211  1  0.43757222  0.87341066  0.58638200  1
  O  O212  1  0.76006516  0.36166017  0.07512490  1
  O  O213  1  0.77524364  0.36936742  0.58453355  1
  O  O214  1  0.78603815  0.85788247  0.09244553  1
  O  O215  1  0.76964701  0.87544107  0.58694760  1
  O  O216  1  0.28360378  0.39953114  0.08542009  1
  O  O217  1  0.26280051  0.39183998  0.57622359  1
  O  O218  1  0.29760969  0.87777178  0.07492295  1
  O  O219  1  0.26877986  0.86724597  0.58388414  1
  O  O220  1  0.60153660  0.37785990  0.08477630  1
  O  O221  1  0.61393856  0.38283973  0.58471119  1
  O  O222  1  0.62611203  0.88805299  0.08084375  1
  O  O223  1  0.60262218  0.87397315  0.58748258  1
  O  O224  1  0.94109150  0.39099316  0.06355130  1
  O  O225  1  0.93843115  0.38742765  0.58165070  1
  O  O226  1  0.93800712  0.90053116  0.08103800  1
  O  O227  1  0.93597070  0.87718324  0.58660362  1
  O  O228  1  0.09178639  0.13154147  0.07040113  1
  O  O229  1  0.09587894  0.14128157  0.57360257  1
  O  O230  1  0.10469952  0.63057285  0.08557778  1
  O  O231  1  0.10338436  0.63552039  0.58283050  1
  O  O232  1  0.44361506  0.15919645  0.07816301  1
  O  O233  1  0.45113221  0.13039687  0.58607053  1
  O  O234  1  0.43807404  0.62420910  0.08683834  1
  O  O235  1  0.43674308  0.62320087  0.58817898  1
  O  O236  1  0.78003236  0.13954280  0.08753735  1
  O  O237  1  0.77224124  0.12984300  0.58416899  1
  O  O238  1  0.77573965  0.64429070  0.08884250  1
  O  O239  1  0.76823796  0.62801152  0.58416919  1
  O  O240  1  0.03990883  0.11867302  0.42167731  1
  O  O241  1  0.06333793  0.12136546  0.90885605  1
  O  O242  1  0.06592673  0.62245996  0.41476233  1
  O  O243  1  0.06333051  0.61548538  0.91377982  1
  O  O244  1  0.39394364  0.09458894  0.42231873  1
  O  O245  1  0.39883156  0.13164487  0.91062151  1
  O  O246  1  0.39836575  0.62511595  0.41589039  1
  O  O247  1  0.38596399  0.61807850  0.91588118  1
  O  O248  1  0.71125806  0.13253623  0.42756362  1
  O  O249  1  0.73236477  0.13243100  0.91457562  1
  O  O250  1  0.73189253  0.61973236  0.41674154  1
  O  O251  1  0.74200430  0.60125523  0.93174887  1
  O  O252  1  0.23959738  0.35938169  0.42288414  1
  O  O253  1  0.23109582  0.37511929  0.91168078  1
  O  O254  1  0.23321373  0.86482884  0.41545735  1
  O  O255  1  0.22194637  0.86696313  0.91240166  1
  O  O256  1  0.56400303  0.38361819  0.41632857  1
  O  O257  1  0.56394356  0.37702238  0.91324206  1
  O  O258  1  0.55355414  0.85841979  0.41514763  1
  O  O259  1  0.54261411  0.87425553  0.92384076  1
  O  O260  1  0.88675212  0.36690856  0.41898449  1
  O  O261  1  0.89593872  0.36125606  0.91077396  1
  O  O262  1  0.91102418  0.86520023  0.42824386  1
  O  O263  1  0.90269781  0.85738745  0.92519018  1
  O  O264  1  0.04868779  0.38802382  0.42581837  1
  O  O265  1  0.06247339  0.38732790  0.91030500  1
  O  O266  1  0.07342121  0.85694398  0.41640911  1
  O  O267  1  0.06224062  0.87666133  0.91374707  1
  O  O268  1  0.39726270  0.38718652  0.41638513  1
  O  O269  1  0.39802548  0.36558519  0.91151144  1
  O  O270  1  0.39504926  0.88464386  0.41536308  1
  O  O271  1  0.37994763  0.88876297  0.91065219  1
  O  O272  1  0.72494340  0.37822325  0.41694263  1
  O  O273  1  0.72999274  0.37679033  0.91469589  1
  O  O274  1  0.72077688  0.87035498  0.42785354  1
  O  O275  1  0.72343300  0.90320394  0.93347435  1
  O  O276  1  0.22266676  0.13466397  0.43258384  1
  O  O277  1  0.23241318  0.12273035  0.91231781  1
  O  O278  1  0.23093016  0.64209308  0.41648052  1
  O  O279  1  0.22488545  0.63379005  0.91308488  1
  O  O280  1  0.54841473  0.13465933  0.41616124  1
  O  O281  1  0.56363309  0.12813725  0.91079175  1
  O  O282  1  0.56560485  0.62430312  0.41672871  1
  O  O283  1  0.55204714  0.61454685  0.92595525  1
  O  O284  1  0.88353566  0.15839788  0.41883896  1
  O  O285  1  0.89640354  0.15108401  0.91260603  1
  O  O286  1  0.90004871  0.61834319  0.41536598  1
  O  O287  1  0.90290766  0.62302181  0.91883930  1
  O  O288  1  0.17921335  -0.00333111  0.06173908  1
  O  O289  1  0.16775742  -0.01699204  0.57551751  1
  O  O290  1  0.17163543  0.50236214  0.08197877  1
  O  O291  1  0.16963425  0.50660821  0.58499559  1
  O  O292  1  0.48293054  -0.00149787  0.06966279  1
  O  O293  1  0.52101210  -0.00142226  0.58681352  1
  O  O294  1  0.51962242  0.50138308  0.08670495  1
  O  O295  1  0.52846784  0.50364777  0.58305805  1
  O  O296  1  0.82384219  0.00029500  0.09111757  1
  O  O297  1  0.84997962  0.00073139  0.58729459  1
  O  O298  1  0.81986040  0.51119490  0.07772616  1
  O  O299  1  0.84044774  0.50124528  0.58758030  1
  O  O300  1  -0.00844396  0.23947144  0.07675435  1
  O  O301  1  0.00080017  0.25697518  0.58118654  1
  O  O302  1  -0.00844983  0.73746103  0.07726747  1
  O  O303  1  0.00033380  0.74740626  0.58589029  1
  O  O304  1  0.33718315  0.26386270  0.08479447  1
  O  O305  1  0.34365763  0.23837814  0.57601823  1
  O  O306  1  0.33592434  0.73977614  0.08539958  1
  O  O307  1  0.35832378  0.74794803  0.58532801  1
  O  O308  1  0.66880039  0.24817951  0.08456885  1
  O  O309  1  0.68267647  0.25004514  0.58582288  1
  O  O310  1  0.67266128  0.75205728  0.09113863  1
  O  O311  1  0.68665969  0.75197609  0.58617189  1
  O  O312  1  0.14758704  -0.01493345  0.42418112  1
  O  O313  1  0.14995206  -0.00144792  0.91075852  1
  O  O314  1  0.16972703  0.51208215  0.42675222  1
  O  O315  1  0.16176702  0.50159758  0.91079453  1
  O  O316  1  0.50488411  -0.00538978  0.41195538  1
  O  O317  1  0.47592930  0.00566540  0.91102889  1
  O  O318  1  0.48405573  0.50413023  0.41603347  1
  O  O319  1  0.46565469  0.49282832  0.91818241  1
  O  O320  1  0.82409123  0.00562577  0.43656292  1
  O  O321  1  0.84267697  0.02039422  0.92540869  1
  O  O322  1  0.81399223  0.49715231  0.41695208  1
  O  O323  1  0.83517903  0.49186641  0.90975383  1
  O  O324  1  0.34982931  0.25375597  0.41870984  1
  O  O325  1  0.30630044  0.24890238  0.91102364  1
  O  O326  1  0.33354545  0.75280782  0.41469306  1
  O  O327  1  0.31919084  0.75173997  0.91182837  1
  O  O328  1  0.63430909  0.25734420  0.41946990  1
  O  O329  1  0.64387231  0.25291350  0.91235807  1
  O  O330  1  0.64981308  0.74385559  0.41880921  1
  O  O331  1  0.66378796  0.74878346  0.93838970  1
  O  O332  1  0.99449626  0.25588608  0.41371255  1
  O  O333  1  1.00758496  0.25473144  0.91264008  1
  O  O334  1  0.98216424  0.74158052  0.41838053  1
  O  O335  1  0.99725036  0.74432221  0.91351572  1
  O  O336  1  0.21316933  0.07948623  0.19644236  1
  O  O337  1  0.20952966  0.08175146  0.69690885  1
  O  O338  1  0.20970978  0.58427783  0.19498370  1
  O  O339  1  0.20877991  0.58662732  0.69311357  1
  O  O340  1  0.54293446  0.08406084  0.20127350  1
  O  O341  1  0.54833296  0.08282981  0.69595035  1
  O  O342  1  0.54415982  0.58330837  0.19655313  1
  O  O343  1  0.54672593  0.57864760  0.69571511  1
  O  O344  1  0.87666931  0.08294272  0.19643734  1
  O  O345  1  0.86579533  0.08316370  0.69489159  1
  O  O346  1  0.86673311  0.58332868  0.19496543  1
  O  O347  1  0.87921097  0.59073132  0.69338015  1
  O  O348  1  0.03764535  0.33532914  0.19821007  1
  O  O349  1  0.04274683  0.33697940  0.69154315  1
  O  O350  1  0.04358247  0.83078793  0.20257374  1
  O  O351  1  0.04124807  0.83102926  0.69578025  1
  O  O352  1  0.37835366  0.34095796  0.19536694  1
  O  O353  1  0.37842764  0.33396771  0.69835767  1
  O  O354  1  0.37944936  0.82710055  0.19230522  1
  O  O355  1  0.37692247  0.83295499  0.69456604  1
  O  O356  1  0.70602694  0.33386192  0.19371360  1
  O  O357  1  0.71175559  0.33323175  0.69410542  1
  O  O358  1  0.71132812  0.83176514  0.19814288  1
  O  O359  1  0.71098834  0.83419666  0.69684013  1
  O  O360  1  0.21433064  0.42537537  0.19218986  1
  O  O361  1  0.20782246  0.41912857  0.69110894  1
  O  O362  1  0.21309479  0.91360767  0.19943614  1
  O  O363  1  0.20952496  0.91082389  0.69194692  1
  O  O364  1  0.54365478  0.41877877  0.19579848  1
  O  O365  1  0.54469804  0.41703163  0.69230775  1
  O  O366  1  0.54717101  0.91520338  0.20268646  1
  O  O367  1  0.54272573  0.91885577  0.69663853  1
  O  O368  1  0.87475302  0.41741191  0.19998532  1
  O  O369  1  0.88105209  0.41143159  0.69327358  1
  O  O370  1  0.87925611  0.91648695  0.19755744  1
  O  O371  1  0.87675693  0.91651918  0.69582830  1
  O  O372  1  0.04188220  0.15992052  0.18856711  1
  O  O373  1  0.04722913  0.17687291  0.68905119  1
  O  O374  1  0.04406957  0.66772364  0.19446061  1
  O  O375  1  0.04402663  0.66156357  0.69305250  1
  O  O376  1  0.37770634  0.17207965  0.19042997  1
  O  O377  1  0.37951236  0.16497621  0.69135565  1
  O  O378  1  0.37764241  0.66187035  0.19569904  1
  O  O379  1  0.36777151  0.66662016  0.69412540  1
  O  O380  1  0.70857054  0.16949557  0.19348458  1
  O  O381  1  0.71126809  0.16838563  0.69533408  1
  O  O382  1  0.70887063  0.66611433  0.19855038  1
  O  O383  1  0.71215607  0.66732426  0.69585086  1
  O  O384  1  0.12081914  0.08051386  0.29857676  1
  O  O385  1  0.13161562  0.08272906  0.80289911  1
  O  O386  1  0.13468129  0.58434779  0.30844150  1
  O  O387  1  0.12584225  0.58386430  0.80261804  1
  O  O388  1  0.45487718  0.08127655  0.30598956  1
  O  O389  1  0.45624516  0.08625331  0.80162260  1
  O  O390  1  0.45796067  0.58505264  0.30618368  1
  O  O391  1  0.44909429  0.57444446  0.80982584  1
  O  O392  1  0.78692776  0.08444861  0.29956411  1
  O  O393  1  0.79272553  0.08939042  0.80843742  1
  O  O394  1  0.78875809  0.58172121  0.30687695  1
  O  O395  1  0.78974713  0.58943857  0.81122913  1
  O  O396  1  0.29962377  0.33405672  0.30791638  1
  O  O397  1  0.28772164  0.33380764  0.80180825  1
  O  O398  1  0.29480440  0.83125935  0.30456678  1
  O  O399  1  0.28535161  0.83305782  0.80232133  1
  O  O400  1  0.62008826  0.33719859  0.30631409  1
  O  O401  1  0.62221705  0.33468324  0.80350071  1
  O  O402  1  0.62437025  0.82721643  0.30954484  1
  O  O403  1  0.62200604  0.83581574  0.80377452  1
  O  O404  1  0.95020740  0.34244677  0.30944764  1
  O  O405  1  0.96112204  0.33522479  0.80263518  1
  O  O406  1  0.95607123  0.82937822  0.30971769  1
  O  O407  1  0.95541574  0.83281417  0.80770254  1
  O  O408  1  0.12122642  0.41936640  0.30141764  1
  O  O409  1  0.12684308  0.41734030  0.80129329  1
  O  O410  1  0.12510273  0.91237336  0.30798795  1
  O  O411  1  0.12311615  0.91494998  0.80330864  1
  O  O412  1  0.45811066  0.42040461  0.30552151  1
  O  O413  1  0.45652309  0.41593065  0.80425045  1
  O  O414  1  0.45521075  0.91168679  0.30436590  1
  O  O415  1  0.45322985  0.91938386  0.80523475  1
  O  O416  1  0.78521828  0.41698637  0.30687886  1
  O  O417  1  0.78609778  0.40606014  0.80482019  1
  O  O418  1  0.78976938  0.91531297  0.30287211  1
  O  O419  1  0.79004557  0.91881217  0.80271264  1
  O  O420  1  0.29012116  0.16530536  0.29779459  1
  O  O421  1  0.29081100  0.16799804  0.80147287  1
  O  O422  1  0.29451775  0.66735400  0.30552200  1
  O  O423  1  0.28844395  0.66645920  0.80406453  1
  O  O424  1  0.61567708  0.17709530  0.30983940  1
  O  O425  1  0.62451079  0.16908033  0.80362540  1
  O  O426  1  0.62452017  0.66304549  0.30732952  1
  O  O427  1  0.63340880  0.66667905  0.80647260  1
  O  O428  1  0.95171521  0.16616498  0.30608105  1
  O  O429  1  0.95741638  0.17603369  0.80354091  1
  O  O430  1  0.95524025  0.66589666  0.30554303  1
  O  O431  1  0.95588998  0.66122870  0.80613945  1
  F  F432  1  0.04448910  -0.00477358  0.20247375  1
  F  F433  1  0.04762623  -0.01368414  0.69661617  1
  F  F434  1  0.04356906  0.50193029  0.20083247  1
  F  F435  1  0.04563484  0.50113898  0.69797640  1
  F  F436  1  0.38155786  -0.00123846  0.20279173  1
  F  F437  1  0.38065734  -0.00160655  0.70089682  1
  F  F438  1  0.38077683  0.50266305  0.20340241  1
  F  F439  1  0.37870281  0.50120863  0.70072415  1
  F  F440  1  0.71210182  -0.00463675  0.20017052  1
  F  F441  1  0.71078313  0.00239739  0.70466162  1
  F  F442  1  0.70877612  0.49980900  0.20384790  1
  F  F443  1  0.70311753  0.50162045  0.70128134  1
  F  F444  1  0.21182991  0.24946831  0.19752849  1
  F  F445  1  0.21332371  0.25144760  0.69847775  1
  F  F446  1  0.21328664  0.74642153  0.20353421  1
  F  F447  1  0.21110921  0.74929031  0.69962589  1
  F  F448  1  0.54507760  0.25477938  0.20208848  1
  F  F449  1  0.54806584  0.25068598  0.70030660  1
  F  F450  1  0.54848676  0.74555240  0.20526264  1
  F  F451  1  0.54728561  0.75976874  0.69826824  1
  F  F452  1  0.86990501  0.24911120  0.20066147  1
  F  F453  1  0.87774405  0.25118399  0.69982808  1
  F  F454  1  0.87735545  0.74958442  0.20570813  1
  F  F455  1  0.87252013  0.75109085  0.70322532  1
  F  F456  1  0.29203151  -0.00334686  0.29904660  1
  F  F457  1  0.28833088  -0.00227068  0.79455836  1
  F  F458  1  0.29091179  0.50193566  0.29951162  1
  F  F459  1  0.28569364  0.49886690  0.79435942  1
  F  F460  1  0.62084021  -0.00761339  0.30772584  1
  F  F461  1  0.62060337  0.00392642  0.80019174  1
  F  F462  1  0.62046471  0.50066987  0.29966410  1
  F  F463  1  0.62029556  0.49648674  0.80072886  1
  F  F464  1  0.95534614  -0.00133218  0.29891096  1
  F  F465  1  0.95372035  -0.00789786  0.80115491  1
  F  F466  1  0.95194652  0.50201510  0.30237218  1
  F  F467  1  0.97197700  0.49955117  0.80044332  1
  F  F468  1  0.12251901  0.24202521  0.29885088  1
  F  F469  1  0.12394922  0.25250298  0.79401522  1
  F  F470  1  0.12490099  0.74680048  0.30059663  1
  F  F471  1  0.12705964  0.74822075  0.79899752  1
  F  F472  1  0.45303808  0.25202015  0.29521915  1
  F  F473  1  0.45711677  0.24871205  0.79604743  1
  F  F474  1  0.45541553  0.74710636  0.29791651  1
  F  F475  1  0.44521030  0.76084170  0.80305776  1
  F  F476  1  0.78355226  0.25417917  0.29824240  1
  F  F477  1  0.78867567  0.25067197  0.79654606  1
  F  F478  1  0.78868911  0.74634000  0.30159372  1
  F  F479  1  0.78854722  0.75121939  0.80070392  1
