# generated using pymatgen
data_K24Na3Li5Mg64Fe17Si79(O5F)48
_symmetry_space_group_name_H-M   'P 1'
_cell_length_a   16.09572413
_cell_length_b   18.59841290
_cell_length_c   20.55317782
_cell_angle_alpha   89.98589706
_cell_angle_beta   100.02119459
_cell_angle_gamma   90.01188064
_symmetry_Int_Tables_number   1
_chemical_formula_structural   K24Na3Li5Mg64Fe17Si79(O5F)48
_chemical_formula_sum   'K24 Na3 Li5 Mg64 Fe17 Si79 O240 F48'
_cell_volume   6058.82580830
_cell_formula_units_Z   1
loop_
 _symmetry_equiv_pos_site_id
 _symmetry_equiv_pos_as_xyz
  1  'x, y, z'
loop_
 _atom_site_type_symbol
 _atom_site_label
 _atom_site_symmetry_multiplicity
 _atom_site_fract_x
 _atom_site_fract_y
 _atom_site_fract_z
 _atom_site_occupancy
  K  K0  1  -0.00649076  0.00487483  -0.01339662  1
  K  K1  1  -0.00095825  -0.00052100  0.50993772  1
  K  K2  1  0.00994390  0.50175034  -0.01090450  1
  K  K3  1  0.00324273  0.50051650  0.50739540  1
  K  K4  1  0.33062296  0.00357861  -0.01185085  1
  K  K5  1  0.33008961  -0.00170049  0.51281389  1
  K  K6  1  0.33210499  0.49605170  -0.01303853  1
  K  K7  1  0.33637792  0.49886066  0.50587357  1
  K  K8  1  0.66946435  0.00081056  -0.00145313  1
  K  K9  1  0.67128195  0.01085359  0.50675335  1
  K  K10  1  0.65042764  0.49833478  -0.00047188  1
  K  K11  1  0.66420396  0.49638351  0.49683949  1
  K  K12  1  0.17454178  0.23855285  -0.01095810  1
  K  K13  1  0.17919907  0.25248954  0.51077869  1
  K  K14  1  0.16900769  0.74530626  -0.01269948  1
  K  K15  1  0.15978078  0.75883156  0.50526152  1
  K  K16  1  0.48921448  0.25023482  -0.00773024  1
  K  K17  1  0.50330558  0.24601317  0.50198436  1
  K  K18  1  0.50886041  0.74794085  0.00585362  1
  K  K19  1  0.50201956  0.75265245  0.49987697  1
  K  K20  1  0.82724704  0.24255950  -0.00944208  1
  K  K21  1  0.83362573  0.24558105  0.50402240  1
  K  K22  1  0.82819447  0.75518642  0.00205264  1
  K  K23  1  0.83490699  0.74654358  0.49628456  1
  Na  Na24  1  0.66700861  0.75048493  0.24326717  1
  Na  Na25  1  0.33304932  0.07880847  0.74592332  1
  Na  Na26  1  0.32857471  0.92470019  0.74993176  1
  Li  Li27  1  0.16513340  0.49845418  0.75305286  1
  Li  Li28  1  0.66238807  0.25090605  0.25226389  1
  Li  Li29  1  0.16949452  0.83797523  0.75042397  1
  Li  Li30  1  0.49341038  0.16733774  0.74933806  1
  Li  Li31  1  0.00253986  0.08515646  0.74150006  1
  Mg  Mg32  1  0.50128752  0.00195019  0.74934581  1
  Mg  Mg33  1  0.50222964  0.50068851  0.24843022  1
  Mg  Mg34  1  0.83718025  0.00237889  0.75394832  1
  Mg  Mg35  1  0.83413254  0.49795449  0.74962276  1
  Mg  Mg36  1  0.66541049  0.75006521  0.75066450  1
  Mg  Mg37  1  0.16705158  0.49952708  0.25019377  1
  Mg  Mg38  1  0.83407693  -0.00033052  0.24901156  1
  Mg  Mg39  1  0.32805026  0.75427121  0.75061024  1
  Mg  Mg40  1  0.16628612  -0.00057403  0.25379006  1
  Mg  Mg41  1  0.33346061  0.74996574  0.24940197  1
  Mg  Mg42  1  0.66501668  0.24844624  0.75172842  1
  Mg  Mg43  1  0.49706191  0.49762508  0.74813534  1
  Mg  Mg44  1  0.16156704  -0.00171861  0.75098902  1
  Mg  Mg45  1  0.33478962  0.25092004  0.24875399  1
  Mg  Mg46  1  0.00262705  0.74924678  0.75371747  1
  Mg  Mg47  1  0.00092712  0.25059346  0.24966222  1
  Mg  Mg48  1  -0.00179501  0.75131893  0.25388264  1
  Mg  Mg49  1  0.00073554  0.24677998  0.74826850  1
  Mg  Mg50  1  0.49985345  0.00033770  0.24655364  1
  Mg  Mg51  1  0.83176132  0.49840396  0.25010232  1
  Mg  Mg52  1  0.33468609  0.24844628  0.74894979  1
  Mg  Mg53  1  0.66514525  0.58441193  0.24641517  1
  Mg  Mg54  1  0.33623102  0.41592056  0.25137248  1
  Mg  Mg55  1  0.83235440  0.16759722  0.25053291  1
  Mg  Mg56  1  0.00248054  0.41558256  0.75078236  1
  Mg  Mg57  1  0.00289173  0.08523175  0.25234544  1
  Mg  Mg58  1  -0.00006370  0.58332435  0.25040011  1
  Mg  Mg59  1  0.66804790  0.91692648  0.75286822  1
  Mg  Mg60  1  0.16582499  0.66720800  0.75143015  1
  Mg  Mg61  1  0.33239419  0.91536306  0.25197024  1
  Mg  Mg62  1  0.50338186  0.66634369  0.24640469  1
  Mg  Mg63  1  0.83681958  0.16328762  0.75373669  1
  Mg  Mg64  1  0.32714466  0.58395007  0.75006449  1
  Mg  Mg65  1  0.66796601  0.91645205  0.24823776  1
  Mg  Mg66  1  0.49677324  0.83560328  0.75064472  1
  Mg  Mg67  1  0.66362257  0.41422618  0.74796079  1
  Mg  Mg68  1  0.66630580  0.08707086  0.24914144  1
  Mg  Mg69  1  0.49637208  0.33196999  0.74939149  1
  Mg  Mg70  1  0.50048394  0.16789363  0.24849776  1
  Mg  Mg71  1  0.66551343  0.41171344  0.24830588  1
  Mg  Mg72  1  0.83454715  0.83425887  0.25068867  1
  Mg  Mg73  1  0.50279703  0.33307849  0.24840147  1
  Mg  Mg74  1  0.83014164  0.33143662  0.25091838  1
  Mg  Mg75  1  0.33531230  0.58498705  0.24789020  1
  Mg  Mg76  1  0.00295846  0.58151871  0.75112513  1
  Mg  Mg77  1  0.16578367  0.83463283  0.25522465  1
  Mg  Mg78  1  0.17039113  0.16639621  0.25086360  1
  Mg  Mg79  1  0.66745605  0.08615626  0.75386269  1
  Mg  Mg80  1  0.32938218  0.41592862  0.75166315  1
  Mg  Mg81  1  0.16624879  0.66610610  0.25058026  1
  Mg  Mg82  1  0.83375289  0.66467446  0.75161240  1
  Mg  Mg83  1  0.16788597  0.33550591  0.75012944  1
  Mg  Mg84  1  0.49571117  0.66667238  0.74758842  1
  Mg  Mg85  1  0.16992583  0.33453722  0.25030425  1
  Mg  Mg86  1  -0.00059139  0.91613215  0.75138627  1
  Mg  Mg87  1  0.83214256  0.66530329  0.24858510  1
  Mg  Mg88  1  0.83383948  0.33279914  0.74941689  1
  Mg  Mg89  1  0.33425886  0.08485676  0.24890439  1
  Mg  Mg90  1  -0.00015401  0.41499986  0.24951196  1
  Mg  Mg91  1  0.83384283  0.83414109  0.75221712  1
  Mg  Mg92  1  0.16512337  0.16399291  0.74891929  1
  Mg  Mg93  1  0.50155634  0.83374947  0.24789868  1
  Mg  Mg94  1  0.00192798  0.91602133  0.25319626  1
  Mg  Mg95  1  0.66357844  0.58266779  0.74807870  1
  Fe  Fe96  1  0.85889497  0.08479439  0.61285455  1
  Fe  Fe97  1  0.36403680  0.32933124  0.60711480  1
  Fe  Fe98  1  0.14407994  0.92072932  0.39519319  1
  Fe  Fe99  1  0.52284833  0.58114059  0.10485157  1
  Fe  Fe100  1  0.69717458  0.83709212  0.10675163  1
  Fe  Fe101  1  0.64492179  0.67079687  0.38892339  1
  Fe  Fe102  1  0.19569995  0.42170901  0.61175108  1
  Fe  Fe103  1  0.96909708  0.83440489  0.39257867  1
  Fe  Fe104  1  0.14512106  0.58262957  0.88950621  1
  Fe  Fe105  1  0.35391253  0.16579798  0.10842052  1
  Fe  Fe106  1  0.30992364  0.33684959  0.38886718  1
  Fe  Fe107  1  0.30841438  0.32532774  0.89185582  1
  Fe  Fe108  1  0.80674182  0.08516772  0.89471653  1
  Fe  Fe109  1  0.86106065  0.41569280  0.61191112  1
  Fe  Fe110  1  0.63786053  0.33143614  0.38920029  1
  Fe  Fe111  1  0.53221094  0.41780423  0.60879750  1
  Fe  Fe112  1  0.18735701  0.08099446  0.60851052  1
  Si  Si113  1  0.80295692  0.92134110  0.38710151  1
  Si  Si114  1  0.01935361  0.83088279  0.61735236  1
  Si  Si115  1  0.47286941  0.42449372  0.38540466  1
  Si  Si116  1  0.69656376  0.16374439  0.11527804  1
  Si  Si117  1  0.68879011  0.16919585  0.61526201  1
  Si  Si118  1  0.35376594  0.33594885  0.11229709  1
  Si  Si119  1  0.35678679  0.83554092  0.61596363  1
  Si  Si120  1  0.86532011  0.08781366  0.11557408  1
  Si  Si121  1  0.19236999  0.42334991  0.11372635  1
  Si  Si122  1  0.81246323  0.57959479  0.38560439  1
  Si  Si123  1  0.31005732  0.83740158  0.88604802  1
  Si  Si124  1  0.53013594  0.08167578  0.61720148  1
  Si  Si125  1  0.35442030  0.83783081  0.11455759  1
  Si  Si126  1  0.69422638  0.32953220  0.11336333  1
  Si  Si127  1  0.63885644  0.33683328  0.88722204  1
  Si  Si128  1  0.52152980  0.91848881  0.11025936  1
  Si  Si129  1  0.47372964  0.42038478  0.88781850  1
  Si  Si130  1  0.69067560  0.66908194  0.61607148  1
  Si  Si131  1  0.52184325  0.58779788  0.61165245  1
  Si  Si132  1  0.14185331  0.57969862  0.38440557  1
  Si  Si133  1  0.64049490  0.15998793  0.38694068  1
  Si  Si134  1  0.18638255  0.07656363  0.11333123  1
  Si  Si135  1  0.64091622  0.82933080  0.88657154  1
  Si  Si136  1  0.64123708  0.84264381  0.38553541  1
  Si  Si137  1  0.52374528  0.40975358  0.10899369  1
  Si  Si138  1  0.47358057  0.58618500  0.88341637  1
  Si  Si139  1  0.13984041  0.08026186  0.88445492  1
  Si  Si140  1  0.31277605  0.67353237  0.88916488  1
  Si  Si141  1  0.19094666  0.58802734  0.11416394  1
  Si  Si142  1  0.85472379  0.58587782  0.61394218  1
  Si  Si143  1  0.14774178  0.09147885  0.38777715  1
  Si  Si144  1  0.14002025  0.91516430  0.88589642  1
  Si  Si145  1  0.18265585  0.91314181  0.61360391  1
  Si  Si146  1  0.85993803  0.41183655  0.11325389  1
  Si  Si147  1  0.86845950  0.92274376  0.11128023  1
  Si  Si148  1  0.47468793  0.58800103  0.38457494  1
  Si  Si149  1  0.30949826  0.82657803  0.38836931  1
  Si  Si150  1  0.02545650  0.17174984  0.60972681  1
  Si  Si151  1  0.13823508  0.41129330  0.89172986  1
  Si  Si152  1  0.70041016  0.66014110  0.10607104  1
  Si  Si153  1  0.80564329  0.58112885  0.88552112  1
  Si  Si154  1  0.30732858  0.66146124  0.38392919  1
  Si  Si155  1  0.97678107  0.16883150  0.38496657  1
  Si  Si156  1  0.35490189  0.67208645  0.11101898  1
  Si  Si157  1  0.02097638  0.66860496  0.61571367  1
  Si  Si158  1  0.97828011  0.66266642  0.38675678  1
  Si  Si159  1  0.68881751  0.83314144  0.61648509  1
  Si  Si160  1  0.97971251  0.16915171  0.89011516  1
  Si  Si161  1  0.02753061  0.83015875  0.11582374  1
  Si  Si162  1  0.30902665  0.15832713  0.88669908  1
  Si  Si163  1  0.18837125  0.91350179  0.11640332  1
  Si  Si164  1  0.64048123  0.66397899  0.88404573  1
  Si  Si165  1  0.52428220  0.91739488  0.61628905  1
  Si  Si166  1  0.47997579  0.91699349  0.88703744  1
  Si  Si167  1  0.97238173  0.33311468  0.88741579  1
  Si  Si168  1  0.13630139  0.41442860  0.38540078  1
  Si  Si169  1  0.80794887  0.91256475  0.88988706  1
  Si  Si170  1  0.02872292  0.33416996  0.61267914  1
  Si  Si171  1  0.03029474  0.33509128  0.11370134  1
  Si  Si172  1  0.02940637  0.17019646  0.11532553  1
  Si  Si173  1  0.80552672  0.41506784  0.88654549  1
  Si  Si174  1  0.97161914  0.33380695  0.38366588  1
  Si  Si175  1  0.35677142  0.67270455  0.61371486  1
  Si  Si176  1  0.97495768  0.83145094  0.88769293  1
  Si  Si177  1  0.86440226  0.57737422  0.11293394  1
  Si  Si178  1  0.47317875  0.07731121  0.38474323  1
  Si  Si179  1  0.31428673  0.16857571  0.38572703  1
  Si  Si180  1  0.69781812  0.33056369  0.61504947  1
  Si  Si181  1  0.81125520  0.08411238  0.38450405  1
  Si  Si182  1  0.80873544  0.41599855  0.38554043  1
  Si  Si183  1  0.47259147  0.91289411  0.38497023  1
  Si  Si184  1  0.47795044  0.07994572  0.88476423  1
  Si  Si185  1  0.63724040  0.17075620  0.89119181  1
  Si  Si186  1  0.02470162  0.66658712  0.11552501  1
  Si  Si187  1  0.52717648  0.08552852  0.11092129  1
  Si  Si188  1  0.36223005  0.16246994  0.61152240  1
  Si  Si189  1  0.97108833  0.66563553  0.88933416  1
  Si  Si190  1  0.18964451  0.59211195  0.61218652  1
  Si  Si191  1  0.85419220  0.91397192  0.61428969  1
  O  O192  1  0.26269054  0.10186477  0.07750343  1
  O  O193  1  0.28966039  0.10413993  0.58201282  1
  O  O194  1  0.26702962  0.62612383  0.08403087  1
  O  O195  1  0.26983506  0.63012058  0.58170932  1
  O  O196  1  0.61352537  0.11529866  0.08526273  1
  O  O197  1  0.60950000  0.11464357  0.58559194  1
  O  O198  1  0.61690118  0.61618287  0.07129040  1
  O  O199  1  0.60570771  0.62343314  0.58618069  1
  O  O200  1  0.93642421  0.13612911  0.08665455  1
  O  O201  1  0.94927406  0.11838451  0.57537702  1
  O  O202  1  0.94552985  0.61387284  0.08558058  1
  O  O203  1  0.93802566  0.61863552  0.58596255  1
  O  O204  1  0.10503912  0.37819637  0.08434468  1
  O  O205  1  0.11347543  0.35132944  0.58257103  1
  O  O206  1  0.11202516  0.85690144  0.08743819  1
  O  O207  1  0.10178258  0.85745891  0.58677767  1
  O  O208  1  0.43864420  0.36063408  0.08312877  1
  O  O209  1  0.45609528  0.35239032  0.56844294  1
  O  O210  1  0.43172795  0.87444481  0.08424981  1
  O  O211  1  0.43569082  0.87469293  0.58607154  1
  O  O212  1  0.77189536  0.36959816  0.08224158  1
  O  O213  1  0.78560680  0.33949791  0.58669014  1
  O  O214  1  0.78416702  0.88582227  0.07165921  1
  O  O215  1  0.77060536  0.86163506  0.58695860  1
  O  O216  1  0.27576786  0.39449333  0.08650539  1
  O  O217  1  0.28284397  0.39481361  0.56993440  1
  O  O218  1  0.27084931  0.88710080  0.08574760  1
  O  O219  1  0.26785467  0.87666965  0.58812193  1
  O  O220  1  0.60443664  0.36862351  0.08258513  1
  O  O221  1  0.63567569  0.39477173  0.58336749  1
  O  O222  1  0.59186509  0.88199353  0.07390547  1
  O  O223  1  0.60275286  0.87850925  0.58614387  1
  O  O224  1  0.93828917  0.37216093  0.08458094  1
  O  O225  1  0.95874527  0.39323517  0.57932093  1
  O  O226  1  0.95010942  0.88374678  0.08533841  1
  O  O227  1  0.93517697  0.87842519  0.58593280  1
  O  O228  1  0.10097614  0.12506024  0.08532782  1
  O  O229  1  0.10670221  0.15161499  0.57562314  1
  O  O230  1  0.10612709  0.63566971  0.08605593  1
  O  O231  1  0.10441858  0.64310009  0.58581691  1
  O  O232  1  0.45063934  0.13561241  0.07555333  1
  O  O233  1  0.44858963  0.12953654  0.58577287  1
  O  O234  1  0.42837375  0.64174332  0.07472569  1
  O  O235  1  0.43974150  0.64093238  0.58576017  1
  O  O236  1  0.77483974  0.12554831  0.08547280  1
  O  O237  1  0.76544754  0.14446132  0.57891080  1
  O  O238  1  0.78174866  0.62134334  0.07766032  1
  O  O239  1  0.77476815  0.64235887  0.58822655  1
  O  O240  1  0.06170424  0.12236430  0.41313502  1
  O  O241  1  0.07023855  0.12688851  0.91835825  1
  O  O242  1  0.05928067  0.60803716  0.41285586  1
  O  O243  1  0.05345867  0.62367725  0.92591739  1
  O  O244  1  0.38993879  0.10886695  0.41156443  1
  O  O245  1  0.39288627  0.10645848  0.91200493  1
  O  O246  1  0.38444079  0.60648646  0.41134934  1
  O  O247  1  0.40326058  0.63094139  0.91536901  1
  O  O248  1  0.72743766  0.11124864  0.41278790  1
  O  O249  1  0.72186511  0.13274131  0.93197020  1
  O  O250  1  0.73633681  0.60731369  0.42099137  1
  O  O251  1  0.72583809  0.61787548  0.91390393  1
  O  O252  1  0.20692151  0.35820292  0.41711968  1
  O  O253  1  0.21319701  0.35752661  0.92553822  1
  O  O254  1  0.23427684  0.85415558  0.42381795  1
  O  O255  1  0.23136821  0.87572663  0.91710495  1
  O  O256  1  0.54353972  0.36851619  0.42048272  1
  O  O257  1  0.56773693  0.38421169  0.91661588  1
  O  O258  1  0.55645060  0.86703580  0.41661733  1
  O  O259  1  0.56427817  0.86714323  0.91790875  1
  O  O260  1  0.88837686  0.36056721  0.41171921  1
  O  O261  1  0.89030308  0.36830567  0.91613815  1
  O  O262  1  0.86841144  0.86206579  0.42252278  1
  O  O263  1  0.89798855  0.87014304  0.91812136  1
  O  O264  1  0.04728710  0.39125192  0.41016983  1
  O  O265  1  0.05096881  0.38432657  0.91987761  1
  O  O266  1  0.05171857  0.89682962  0.43212180  1
  O  O267  1  0.06563364  0.87070392  0.91808893  1
  O  O268  1  0.38380436  0.41377133  0.41136342  1
  O  O269  1  0.40550392  0.38246399  0.92531463  1
  O  O270  1  0.39555303  0.87417378  0.41476977  1
  O  O271  1  0.39751850  0.88383196  0.91528162  1
  O  O272  1  0.73111223  0.39281176  0.42037916  1
  O  O273  1  0.72921472  0.37744762  0.91854269  1
  O  O274  1  0.71072219  0.90739749  0.41013637  1
  O  O275  1  0.73187331  0.86618133  0.91675192  1
  O  O276  1  0.22560410  0.14856824  0.41197555  1
  O  O277  1  0.23209674  0.11522410  0.91605991  1
  O  O278  1  0.22350154  0.63150187  0.41187144  1
  O  O279  1  0.24208180  0.63726839  0.92561846  1
  O  O280  1  0.56130818  0.11904105  0.41562985  1
  O  O281  1  0.55623233  0.13310943  0.91868235  1
  O  O282  1  0.54343139  0.64545127  0.41993400  1
  O  O283  1  0.56375573  0.62612432  0.91358529  1
  O  O284  1  0.89409870  0.13549498  0.41202187  1
  O  O285  1  0.91038958  0.13118213  0.92816898  1
  O  O286  1  0.89713162  0.62807695  0.41405402  1
  O  O287  1  0.88843697  0.62914677  0.91647184  1
  O  O288  1  0.15889419  -0.00646564  0.08833951  1
  O  O289  1  0.16244162  -0.01304582  0.57243921  1
  O  O290  1  0.17421907  0.50592840  0.08528919  1
  O  O291  1  0.16851507  0.51598130  0.57577792  1
  O  O292  1  0.50819376  0.00233926  0.08375701  1
  O  O293  1  0.51661694  -0.00128148  0.58549024  1
  O  O294  1  0.50959528  0.48607286  0.07094509  1
  O  O295  1  0.50231273  0.51222182  0.57545022  1
  O  O296  1  0.87071078  0.00722484  0.08518290  1
  O  O297  1  0.83249830  -0.00964227  0.57873544  1
  O  O298  1  0.85571789  0.49432593  0.08407743  1
  O  O299  1  0.82816691  0.50977219  0.57949541  1
  O  O300  1  0.02856210  0.25246163  0.08582588  1
  O  O301  1  -0.00642229  0.25421400  0.58515565  1
  O  O302  1  0.00486287  0.74834151  0.08615221  1
  O  O303  1  -0.00230348  0.74948096  0.58613842  1
  O  O304  1  0.32086772  0.25964021  0.08055328  1
  O  O305  1  0.33824341  0.23730960  0.57110436  1
  O  O306  1  0.33401945  0.75626349  0.08560548  1
  O  O307  1  0.34679775  0.75448184  0.58226623  1
  O  O308  1  0.68896164  0.24623434  0.08483286  1
  O  O309  1  0.65733673  0.25077860  0.59074036  1
  O  O310  1  0.69536731  0.74132116  0.07584527  1
  O  O311  1  0.66991803  0.75105926  0.58823379  1
  O  O312  1  0.17759724  0.01557184  0.42068126  1
  O  O313  1  0.14110280  -0.00250479  0.91694076  1
  O  O314  1  0.16055175  0.49751657  0.41152037  1
  O  O315  1  0.15814456  0.49009235  0.92631040  1
  O  O316  1  0.48452549  -0.00507712  0.41434833  1
  O  O317  1  0.49799637  -0.00187164  0.91882325  1
  O  O318  1  0.50541937  0.50700990  0.40922281  1
  O  O319  1  0.48291186  0.50519320  0.91462569  1
  O  O320  1  0.83342954  0.00323595  0.41395521  1
  O  O321  1  0.81351330  -0.01093972  0.92699799  1
  O  O322  1  0.84154489  0.49717030  0.40990232  1
  O  O323  1  0.81829354  0.49865564  0.91559390  1
  O  O324  1  0.34923346  0.24452819  0.41607518  1
  O  O325  1  0.32744392  0.23218003  0.92920217  1
  O  O326  1  0.33204123  0.74233991  0.41293705  1
  O  O327  1  0.32676672  0.75644177  0.92008468  1
  O  O328  1  0.65652675  0.23660235  0.42310379  1
  O  O329  1  0.64003947  0.25583964  0.91908201  1
  O  O330  1  0.67359239  0.76659836  0.41879087  1
  O  O331  1  0.65030509  0.74582243  0.91433541  1
  O  O332  1  0.99294590  0.25187418  0.41202613  1
  O  O333  1  0.99025403  0.25288839  0.92070183  1
  O  O334  1  1.00101268  0.73918952  0.42146278  1
  O  O335  1  0.97819275  0.74929164  0.91801273  1
  O  O336  1  0.20734632  0.08096301  0.19442123  1
  O  O337  1  0.19675787  0.08002824  0.69789785  1
  O  O338  1  0.20865837  0.58563587  0.19461030  1
  O  O339  1  0.21239956  0.59261953  0.69195648  1
  O  O340  1  0.54301023  0.08440867  0.19205227  1
  O  O341  1  0.55227607  0.07853060  0.69639737  1
  O  O342  1  0.54206893  0.58142454  0.19615577  1
  O  O343  1  0.54132345  0.58614100  0.69300861  1
  O  O344  1  0.88077049  0.08651198  0.19594830  1
  O  O345  1  0.87850594  0.08221901  0.70326015  1
  O  O346  1  0.88025724  0.57892302  0.19344296  1
  O  O347  1  0.87374015  0.58507823  0.69518552  1
  O  O348  1  0.04538089  0.33490836  0.19419693  1
  O  O349  1  0.04232659  0.33417368  0.69442046  1
  O  O350  1  0.04557974  0.83006274  0.19583261  1
  O  O351  1  0.03292894  0.83061136  0.69678117  1
  O  O352  1  0.37610365  0.33595699  0.19307573  1
  O  O353  1  0.37786410  0.33655329  0.69896130  1
  O  O354  1  0.37268081  0.83596418  0.19512875  1
  O  O355  1  0.38074729  0.82789332  0.69476775  1
  O  O356  1  0.71526428  0.33433011  0.19257494  1
  O  O357  1  0.71169279  0.33256041  0.69694345  1
  O  O358  1  0.71997424  0.84458792  0.19675056  1
  O  O359  1  0.70823789  0.83274955  0.69719437  1
  O  O360  1  0.20712197  0.42048515  0.19393488  1
  O  O361  1  0.20986283  0.42064674  0.70211969  1
  O  O362  1  0.20991041  0.91425066  0.19678888  1
  O  O363  1  0.19644992  0.91821660  0.69225426  1
  O  O364  1  0.54226965  0.41555726  0.18958747  1
  O  O365  1  0.54448476  0.41792055  0.70145502  1
  O  O366  1  0.54073784  0.91761422  0.19143723  1
  O  O367  1  0.54747485  0.91318522  0.69621572  1
  O  O368  1  0.87768455  0.41333781  0.19368174  1
  O  O369  1  0.87841920  0.41693768  0.70395717  1
  O  O370  1  0.88144510  0.92129200  0.19203779  1
  O  O371  1  0.87192572  0.91362239  0.69536041  1
  O  O372  1  0.04588207  0.16862919  0.19578305  1
  O  O373  1  0.04276181  0.17044375  0.69059138  1
  O  O374  1  0.04346994  0.66597787  0.19594833  1
  O  O375  1  0.03796441  0.66752267  0.69580146  1
  O  O376  1  0.37720427  0.16553108  0.20021533  1
  O  O377  1  0.37896382  0.17393349  0.69044294  1
  O  O378  1  0.37248143  0.66864834  0.19204364  1
  O  O379  1  0.37455609  0.66955359  0.69420075  1
  O  O380  1  0.71434572  0.16408092  0.19495552  1
  O  O381  1  0.70939145  0.16678644  0.69617246  1
  O  O382  1  0.71899477  0.65505107  0.18643152  1
  O  O383  1  0.70863791  0.66703196  0.69686617  1
  O  O384  1  0.12548055  0.08735880  0.30601933  1
  O  O385  1  0.11810076  0.08263290  0.80567957  1
  O  O386  1  0.12369079  0.58198007  0.30338767  1
  O  O387  1  0.12135179  0.58546138  0.79945975  1
  O  O388  1  0.45755466  0.07909249  0.30416619  1
  O  O389  1  0.46775986  0.07813264  0.80671460  1
  O  O390  1  0.45376883  0.58780022  0.30335760  1
  O  O391  1  0.45657664  0.58622593  0.80321318  1
  O  O392  1  0.79276476  0.08436230  0.30388732  1
  O  O393  1  0.78731654  0.08283005  0.80398563  1
  O  O394  1  0.79281854  0.58177549  0.30407915  1
  O  O395  1  0.78790772  0.58251726  0.80519299  1
  O  O396  1  0.28813879  0.33390255  0.29629214  1
  O  O397  1  0.28853846  0.33224920  0.80176543  1
  O  O398  1  0.29037574  0.83076158  0.30700346  1
  O  O399  1  0.29052522  0.82954280  0.80808278  1
  O  O400  1  0.62078863  0.33400550  0.29823350  1
  O  O401  1  0.62545822  0.33507148  0.80761257  1
  O  O402  1  0.61708777  0.84338538  0.30541458  1
  O  O403  1  0.62329390  0.83090197  0.80625475  1
  O  O404  1  0.95642507  0.33273983  0.30261442  1
  O  O405  1  0.95539881  0.33215678  0.80750965  1
  O  O406  1  0.95536066  0.83477903  0.29944531  1
  O  O407  1  0.95478699  0.83010569  0.80764659  1
  O  O408  1  0.12082540  0.41669189  0.30377591  1
  O  O409  1  0.11810694  0.41122762  0.81140043  1
  O  O410  1  0.12281001  0.91739428  0.30157563  1
  O  O411  1  0.11738925  0.91424792  0.80714679  1
  O  O412  1  0.45819805  0.41987002  0.30327223  1
  O  O413  1  0.45644910  0.41968759  0.80774809  1
  O  O414  1  0.45465363  0.91539275  0.30422673  1
  O  O415  1  0.46884212  0.91639549  0.80804140  1
  O  O416  1  0.79137721  0.41484074  0.30404981  1
  O  O417  1  0.78623681  0.41701271  0.80673861  1
  O  O418  1  0.79195148  0.92108138  0.30608282  1
  O  O419  1  0.78867229  0.91224710  0.80914213  1
  O  O420  1  0.29132014  0.16597933  0.30438965  1
  O  O421  1  0.28602183  0.17116493  0.80839960  1
  O  O422  1  0.28834177  0.66525690  0.30312896  1
  O  O423  1  0.29288357  0.66968507  0.80851504  1
  O  O424  1  0.62007398  0.16053988  0.30653123  1
  O  O425  1  0.63116225  0.16836145  0.81202790  1
  O  O426  1  0.62028412  0.66154469  0.29922117  1
  O  O427  1  0.62271174  0.66581077  0.80372388  1
  O  O428  1  0.95849019  0.16822177  0.30404226  1
  O  O429  1  0.95635227  0.17220906  0.81081655  1
  O  O430  1  0.95979352  0.66348279  0.30522611  1
  O  O431  1  0.95345282  0.66533477  0.80852649  1
  F  F432  1  0.04554471  0.00315989  0.20272708  1
  F  F433  1  0.03854393  -0.00508631  0.70286701  1
  F  F434  1  0.04507138  0.49970500  0.20049717  1
  F  F435  1  0.03527149  0.49921736  0.70137539  1
  F  F436  1  0.37680248  -0.00196209  0.20153133  1
  F  F437  1  0.39607203  -0.00624086  0.68853992  1
  F  F438  1  0.37709774  0.50113825  0.20091397  1
  F  F439  1  0.37772653  0.50417080  0.70222729  1
  F  F440  1  0.71357997  0.00388471  0.20106031  1
  F  F441  1  0.71339965  -0.00392951  0.70442686  1
  F  F442  1  0.71439973  0.49609570  0.20010459  1
  F  F443  1  0.71133495  0.50143727  0.70339456  1
  F  F444  1  0.20852053  0.24847433  0.19927444  1
  F  F445  1  0.21056137  0.24892435  0.70269469  1
  F  F446  1  0.21029380  0.75067859  0.20333534  1
  F  F447  1  0.21081144  0.74773650  0.70266300  1
  F  F448  1  0.54009265  0.24806946  0.19836313  1
  F  F449  1  0.54886161  0.25263991  0.70550700  1
  F  F450  1  0.52879380  0.75276326  0.19353510  1
  F  F451  1  0.54565773  0.75020662  0.70230155  1
  F  F452  1  0.88081757  0.24993245  0.19976106  1
  F  F453  1  0.87818236  0.24822828  0.70533889  1
  F  F454  1  0.88221194  0.74564731  0.19849687  1
  F  F455  1  0.87620795  0.74870504  0.70575665  1
  F  F456  1  0.28916469  0.00000496  0.29746818  1
  F  F457  1  0.27134286  -0.00204278  0.81316895  1
  F  F458  1  0.28656068  0.50291172  0.29521562  1
  F  F459  1  0.29747609  0.50409225  0.80364202  1
  F  F460  1  0.62011521  0.00157654  0.29339234  1
  F  F461  1  0.62512379  -0.00264991  0.80094605  1
  F  F462  1  0.62401469  0.49718869  0.29418094  1
  F  F463  1  0.62125185  0.50392015  0.79956769  1
  F  F464  1  0.95528946  0.00294699  0.29771504  1
  F  F465  1  0.94853112  -0.01579388  0.80877982  1
  F  F466  1  0.95519114  0.49814810  0.29573985  1
  F  F467  1  0.95204333  0.50389456  0.80309760  1
  F  F468  1  0.12098022  0.25112248  0.29627969  1
  F  F469  1  0.11917437  0.24928244  0.79732558  1
  F  F470  1  0.12199953  0.74730741  0.29955730  1
  F  F471  1  0.11719731  0.74327771  0.80436883  1
  F  F472  1  0.45573731  0.25131641  0.29730648  1
  F  F473  1  0.45409286  0.25425410  0.80321320  1
  F  F474  1  0.45243941  0.75152972  0.29580718  1
  F  F475  1  0.45638310  0.74937175  0.79869783  1
  F  F476  1  0.79638123  0.24867921  0.29993108  1
  F  F477  1  0.78813281  0.25085532  0.80042512  1
  F  F478  1  0.80216781  0.74765778  0.29878338  1
  F  F479  1  0.78583265  0.74858480  0.80008287  1
