# generated using pymatgen
data_K24Na3Li5Mg64Fe17Si79(O5F)48
_symmetry_space_group_name_H-M   'P 1'
_cell_length_a   16.09028011
_cell_length_b   18.57879135
_cell_length_c   20.55743275
_cell_angle_alpha   90.01369055
_cell_angle_beta   100.00701014
_cell_angle_gamma   89.98413457
_symmetry_Int_Tables_number   1
_chemical_formula_structural   K24Na3Li5Mg64Fe17Si79(O5F)48
_chemical_formula_sum   'K24 Na3 Li5 Mg64 Fe17 Si79 O240 F48'
_cell_volume   6051.90360264
_cell_formula_units_Z   1
loop_
 _symmetry_equiv_pos_site_id
 _symmetry_equiv_pos_as_xyz
  1  'x, y, z'
loop_
 _atom_site_type_symbol
 _atom_site_label
 _atom_site_symmetry_multiplicity
 _atom_site_fract_x
 _atom_site_fract_y
 _atom_site_fract_z
 _atom_site_occupancy
  K  K0  1  0.00203974  0.00213285  -0.00396150  1
  K  K1  1  -0.00134133  -0.00063788  0.50118206  1
  K  K2  1  -0.00498496  0.48720757  0.00191057  1
  K  K3  1  0.00351582  0.50210422  0.49457340  1
  K  K4  1  0.33736757  0.00676329  -0.00624698  1
  K  K5  1  0.34858064  -0.00100489  0.50728363  1
  K  K6  1  0.34169898  0.48713067  0.00139944  1
  K  K7  1  0.34569810  0.50356290  0.50246156  1
  K  K8  1  0.66206822  0.00378344  -0.00115872  1
  K  K9  1  0.65676618  0.00201804  0.49718995  1
  K  K10  1  0.66465118  0.49851045  -0.00168286  1
  K  K11  1  0.64800755  0.49429300  0.49667375  1
  K  K12  1  0.17520890  0.26909797  0.00072904  1
  K  K13  1  0.16895767  0.25067410  0.50333188  1
  K  K14  1  0.17010309  0.74514246  -0.00385678  1
  K  K15  1  0.16386655  0.74369110  0.49905150  1
  K  K16  1  0.48605072  0.25610980  0.00002578  1
  K  K17  1  0.49295801  0.24786167  0.49896269  1
  K  K18  1  0.49776466  0.73248152  -0.00194875  1
  K  K19  1  0.50522580  0.74249626  0.50109954  1
  K  K20  1  0.83050028  0.26360679  -0.00427611  1
  K  K21  1  0.82959243  0.25309391  0.50080450  1
  K  K22  1  0.83095273  0.74141588  0.00493461  1
  K  K23  1  0.83836961  0.75211808  0.49678059  1
  Na  Na24  1  0.66228892  0.25076248  0.25668473  1
  Na  Na25  1  0.83803512  0.17063229  0.75712969  1
  Na  Na26  1  0.83615527  0.66772772  0.25432994  1
  Li  Li27  1  0.33437707  0.24567766  0.74182414  1
  Li  Li28  1  0.00327192  0.75042743  0.74564464  1
  Li  Li29  1  -0.00375156  0.58271417  0.25362107  1
  Li  Li30  1  0.50258543  0.66622019  0.25247796  1
  Li  Li31  1  0.33166244  0.08931429  0.74406622  1
  Mg  Mg32  1  0.49768123  -0.00094978  0.25251105  1
  Mg  Mg33  1  0.66991049  0.74967620  0.75003626  1
  Mg  Mg34  1  0.83497831  0.50277432  0.25366281  1
  Mg  Mg35  1  0.16826512  0.49969248  0.75076183  1
  Mg  Mg36  1  0.33550731  0.75069207  0.74737576  1
  Mg  Mg37  1  0.83515025  0.49987220  0.75632176  1
  Mg  Mg38  1  0.00161811  0.25144888  0.75525177  1
  Mg  Mg39  1  -0.00386078  0.25129062  0.24616579  1
  Mg  Mg40  1  0.67033591  0.24974863  0.75550632  1
  Mg  Mg41  1  0.17127596  0.00002343  0.74800525  1
  Mg  Mg42  1  0.66403712  0.74820005  0.25167506  1
  Mg  Mg43  1  0.33186734  0.74903483  0.24858163  1
  Mg  Mg44  1  0.16350089  0.50109938  0.24604118  1
  Mg  Mg45  1  0.50168236  0.49944046  0.74939802  1
  Mg  Mg46  1  0.83778802  0.00133620  0.75088246  1
  Mg  Mg47  1  0.16347866  0.00192777  0.24823374  1
  Mg  Mg48  1  0.49869116  0.00202381  0.74574345  1
  Mg  Mg49  1  0.49716582  0.50221843  0.24948451  1
  Mg  Mg50  1  0.33014863  0.25069024  0.24844640  1
  Mg  Mg51  1  -0.00271520  0.74856792  0.24974698  1
  Mg  Mg52  1  0.82931578  0.00131220  0.25042422  1
  Mg  Mg53  1  0.49612392  0.16612039  0.74826276  1
  Mg  Mg54  1  0.82776067  0.16804165  0.24943082  1
  Mg  Mg55  1  0.49734695  0.16554279  0.25092922  1
  Mg  Mg56  1  0.66888421  0.08381490  0.75007041  1
  Mg  Mg57  1  0.33367281  0.58647294  0.24732651  1
  Mg  Mg58  1  0.33601323  0.58328399  0.74912933  1
  Mg  Mg59  1  0.49595241  0.33508246  0.24983198  1
  Mg  Mg60  1  0.84006997  0.83359716  0.74891922  1
  Mg  Mg61  1  0.16605679  0.66839042  0.75039514  1
  Mg  Mg62  1  0.66786964  0.58460630  0.75312494  1
  Mg  Mg63  1  0.33515517  0.41194553  0.74898066  1
  Mg  Mg64  1  0.16993101  0.33260996  0.74885045  1
  Mg  Mg65  1  0.66684446  0.58490006  0.25196008  1
  Mg  Mg66  1  0.16506394  0.83238807  0.74757755  1
  Mg  Mg67  1  0.33357786  0.91524095  0.25101145  1
  Mg  Mg68  1  0.33281103  0.91807856  0.74478183  1
  Mg  Mg69  1  -0.00362367  0.08513502  0.24773892  1
  Mg  Mg70  1  0.83252985  0.83377349  0.25139517  1
  Mg  Mg71  1  0.66378547  0.41656877  0.25224564  1
  Mg  Mg72  1  0.00331445  0.91399882  0.74905526  1
  Mg  Mg73  1  0.66920827  0.41519834  0.75391499  1
  Mg  Mg74  1  0.00194618  0.58603992  0.75165428  1
  Mg  Mg75  1  0.17258481  0.16667485  0.74753160  1
  Mg  Mg76  1  0.00193931  0.41543136  0.75662835  1
  Mg  Mg77  1  -0.00290669  0.91656103  0.24884705  1
  Mg  Mg78  1  0.33116651  0.41656447  0.24780544  1
  Mg  Mg79  1  0.49925347  0.83432100  0.74742984  1
  Mg  Mg80  1  0.16557419  0.16714903  0.24752593  1
  Mg  Mg81  1  0.66275512  0.08411792  0.25151938  1
  Mg  Mg82  1  0.50006923  0.66389045  0.74919386  1
  Mg  Mg83  1  0.66910023  0.91619938  0.74892877  1
  Mg  Mg84  1  0.16615678  0.33590544  0.24593256  1
  Mg  Mg85  1  0.16019753  0.66470415  0.24958506  1
  Mg  Mg86  1  0.00388720  0.08480430  0.75344311  1
  Mg  Mg87  1  0.49743146  0.32981028  0.75023983  1
  Mg  Mg88  1  0.66573080  0.91356644  0.25137214  1
  Mg  Mg89  1  0.16387357  0.83452165  0.24782945  1
  Mg  Mg90  1  0.83761322  0.33482469  0.75818199  1
  Mg  Mg91  1  -0.00141861  0.41930338  0.24679065  1
  Mg  Mg92  1  0.83826215  0.66766160  0.75105394  1
  Mg  Mg93  1  0.83011390  0.33549530  0.25116581  1
  Mg  Mg94  1  0.50135692  0.82970654  0.25233661  1
  Mg  Mg95  1  0.33300407  0.08480029  0.24978850  1
  Fe  Fe96  1  0.98101171  0.66598626  0.39174719  1
  Fe  Fe97  1  0.64077211  0.33664563  0.39482230  1
  Fe  Fe98  1  0.18777046  0.42169403  0.10575047  1
  Fe  Fe99  1  0.30141552  0.16823469  0.38722628  1
  Fe  Fe100  1  0.46724610  0.42219338  0.38970105  1
  Fe  Fe101  1  0.35622541  0.33126514  0.60928061  1
  Fe  Fe102  1  0.64753179  0.82949286  0.39090039  1
  Fe  Fe103  1  0.35593966  0.83647255  0.60821744  1
  Fe  Fe104  1  0.46940888  0.07693158  0.39133855  1
  Fe  Fe105  1  0.80319879  0.42066424  0.89596588  1
  Fe  Fe106  1  0.64104117  0.16187164  0.39443580  1
  Fe  Fe107  1  0.52765794  0.58438092  0.61056589  1
  Fe  Fe108  1  0.98051043  0.33140689  0.89815359  1
  Fe  Fe109  1  0.35267063  0.15820639  0.60783351  1
  Fe  Fe110  1  0.02377616  0.82970338  0.61005165  1
  Fe  Fe111  1  0.47879062  0.57829084  0.89114710  1
  Fe  Fe112  1  0.36069386  0.33010215  0.10656748  1
  Si  Si113  1  0.30481460  0.33154309  0.88297319  1
  Si  Si114  1  0.63683062  0.32686534  0.88925908  1
  Si  Si115  1  0.98478721  0.16037002  0.89251157  1
  Si  Si116  1  0.13753011  0.92392586  0.38228434  1
  Si  Si117  1  0.31067059  0.83440404  0.88391755  1
  Si  Si118  1  0.47238313  0.90550244  0.38798893  1
  Si  Si119  1  0.18847525  0.91733290  0.61059492  1
  Si  Si120  1  0.18161624  0.07824993  0.61193668  1
  Si  Si121  1  0.35122030  0.66620679  0.61010341  1
  Si  Si122  1  0.52600757  0.07924177  0.11183530  1
  Si  Si123  1  0.35690945  0.66916285  0.11300962  1
  Si  Si124  1  0.96745743  0.16760683  0.38130142  1
  Si  Si125  1  0.18701676  0.07995160  0.11063634  1
  Si  Si126  1  0.47542206  0.59270999  0.38446742  1
  Si  Si127  1  0.14719405  0.42234233  0.88829826  1
  Si  Si128  1  0.85277478  0.08369594  0.11200448  1
  Si  Si129  1  0.02369292  0.66165717  0.61495943  1
  Si  Si130  1  0.81246549  0.91475763  0.88731854  1
  Si  Si131  1  0.70173281  0.83375029  0.61630933  1
  Si  Si132  1  0.97773339  0.83701513  0.38594626  1
  Si  Si133  1  0.86346229  0.57818493  0.61822218  1
  Si  Si134  1  0.14615351  0.91555625  0.88586644  1
  Si  Si135  1  0.69058617  0.66590239  0.11443502  1
  Si  Si136  1  0.81298947  0.92015691  0.38579547  1
  Si  Si137  1  0.47691495  0.08495773  0.88445205  1
  Si  Si138  1  0.81133275  0.41876231  0.38899996  1
  Si  Si139  1  0.18559191  0.59307465  0.10838714  1
  Si  Si140  1  0.86047607  0.08654489  0.61830210  1
  Si  Si141  1  0.52547616  0.91477601  0.11308050  1
  Si  Si142  1  0.30944171  0.66913435  0.88673912  1
  Si  Si143  1  0.69430525  0.33578817  0.11528474  1
  Si  Si144  1  0.52523819  0.58576461  0.11495712  1
  Si  Si145  1  0.86119542  0.92349063  0.61305128  1
  Si  Si146  1  0.18771374  0.91418083  0.11162298  1
  Si  Si147  1  0.18887919  0.58286893  0.61646747  1
  Si  Si148  1  0.53006615  0.42041167  0.11018043  1
  Si  Si149  1  0.85357089  0.91841467  0.11315473  1
  Si  Si150  1  0.85796162  0.58107795  0.11541728  1
  Si  Si151  1  0.81197851  0.59353507  0.89061981  1
  Si  Si152  1  0.14475825  0.58748929  0.88551550  1
  Si  Si153  1  0.30516968  0.66848189  0.38298990  1
  Si  Si154  1  0.85749085  0.41694402  0.11427081  1
  Si  Si155  1  0.02038268  0.32962970  0.11102728  1
  Si  Si156  1  0.01973305  0.67159419  0.11272181  1
  Si  Si157  1  0.30859646  0.16635201  0.88226373  1
  Si  Si158  1  0.02455313  0.16874831  0.61661555  1
  Si  Si159  1  0.97933460  0.66935253  0.88547332  1
  Si  Si160  1  0.81180400  0.07851121  0.88810630  1
  Si  Si161  1  0.01928813  0.83551487  0.11234733  1
  Si  Si162  1  0.13136003  0.08819377  0.38328721  1
  Si  Si163  1  0.29803433  0.83427405  0.38298182  1
  Si  Si164  1  0.13729392  0.41160392  0.38243967  1
  Si  Si165  1  0.53290529  0.08168274  0.61274573  1
  Si  Si166  1  0.18877153  0.41971402  0.61308708  1
  Si  Si167  1  0.64499543  0.67414698  0.88898789  1
  Si  Si168  1  0.47488869  0.92062027  0.88451367  1
  Si  Si169  1  0.02654972  0.33456837  0.61753733  1
  Si  Si170  1  0.80810360  0.57980280  0.38908625  1
  Si  Si171  1  0.30193309  0.33616182  0.38579327  1
  Si  Si172  1  0.64929548  0.66220151  0.38788184  1
  Si  Si173  1  0.97229920  0.33263226  0.38248563  1
  Si  Si174  1  0.47435921  0.40827836  0.88751686  1
  Si  Si175  1  0.35623533  0.15829386  0.10817587  1
  Si  Si176  1  0.53141540  0.41119641  0.61512906  1
  Si  Si177  1  0.14770064  0.57629609  0.38646839  1
  Si  Si178  1  0.64559891  0.16124210  0.88780245  1
  Si  Si179  1  0.53366210  0.91373957  0.61238732  1
  Si  Si180  1  0.64146355  0.83902014  0.88550737  1
  Si  Si181  1  0.80934386  0.08110726  0.38584372  1
  Si  Si182  1  0.86135823  0.41519430  0.61930205  1
  Si  Si183  1  0.70255969  0.66713045  0.61453418  1
  Si  Si184  1  0.68939248  0.16748801  0.11356663  1
  Si  Si185  1  0.35760619  0.83511548  0.11267442  1
  Si  Si186  1  0.69459457  0.16855514  0.61926300  1
  Si  Si187  1  0.69838095  0.33217736  0.61992405  1
  Si  Si188  1  0.02042459  0.16329867  0.11148118  1
  Si  Si189  1  0.97870568  0.83511710  0.88624242  1
  Si  Si190  1  0.69124926  0.83119896  0.11285464  1
  Si  Si191  1  0.14842999  0.07973854  0.88707277  1
  O  O192  1  0.26721237  0.11166179  0.08053261  1
  O  O193  1  0.25961044  0.09625755  0.57565416  1
  O  O194  1  0.26509401  0.63397794  0.07998419  1
  O  O195  1  0.27214899  0.60781718  0.58678404  1
  O  O196  1  0.60067541  0.12442065  0.08214518  1
  O  O197  1  0.61737193  0.11533970  0.58743281  1
  O  O198  1  0.59900272  0.62910857  0.08221190  1
  O  O199  1  0.62151496  0.62345409  0.57788443  1
  O  O200  1  0.93444748  0.11586079  0.08261053  1
  O  O201  1  0.93889063  0.12214126  0.58675909  1
  O  O202  1  0.93322076  0.62474671  0.08433747  1
  O  O203  1  0.94989988  0.59964926  0.59065976  1
  O  O204  1  0.09242929  0.36189383  0.07493577  1
  O  O205  1  0.10439229  0.36874551  0.58558764  1
  O  O206  1  0.09964462  0.87008641  0.08170708  1
  O  O207  1  0.12175306  0.85623952  0.57778614  1
  O  O208  1  0.45043469  0.37533978  0.07272119  1
  O  O209  1  0.46045635  0.35389651  0.58372080  1
  O  O210  1  0.43236658  0.87876039  0.08261476  1
  O  O211  1  0.45460062  0.86650061  0.57711237  1
  O  O212  1  0.77270200  0.37043672  0.08326448  1
  O  O213  1  0.78192160  0.36198401  0.59145988  1
  O  O214  1  0.76678479  0.87389830  0.08186723  1
  O  O215  1  0.77848142  0.87219910  0.58687315  1
  O  O216  1  0.26925066  0.38221286  0.06366794  1
  O  O217  1  0.26616021  0.39803855  0.57759954  1
  O  O218  1  0.26622824  0.87527180  0.08235288  1
  O  O219  1  0.27488938  0.90786346  0.58058331  1
  O  O220  1  0.61286627  0.38475694  0.08305780  1
  O  O221  1  0.62166986  0.38648263  0.59173616  1
  O  O222  1  0.59959097  0.86981161  0.08294823  1
  O  O223  1  0.61735729  0.87963105  0.58679060  1
  O  O224  1  0.93299452  0.37547009  0.08520671  1
  O  O225  1  0.94211472  0.38302806  0.58856410  1
  O  O226  1  0.93434529  0.88422417  0.08335911  1
  O  O227  1  0.93755082  0.89731372  0.57771086  1
  O  O228  1  0.09851418  0.12416727  0.08153715  1
  O  O229  1  0.10094237  0.13386573  0.58389975  1
  O  O230  1  0.10112818  0.64440336  0.08061754  1
  O  O231  1  0.10961869  0.63581747  0.58681165  1
  O  O232  1  0.43228388  0.11111632  0.08043364  1
  O  O233  1  0.45087165  0.12359657  0.57691492  1
  O  O234  1  0.43484731  0.62782455  0.08527710  1
  O  O235  1  0.43044800  0.63890970  0.57733928  1
  O  O236  1  0.76662437  0.12879143  0.08061786  1
  O  O237  1  0.77974674  0.13937408  0.59295579  1
  O  O238  1  0.76788504  0.62423562  0.08540272  1
  O  O239  1  0.78759245  0.63441985  0.58928291  1
  O  O240  1  0.04107705  0.10839178  0.40823238  1
  O  O241  1  0.06836582  0.10830075  0.92018376  1
  O  O242  1  0.07594370  0.60708389  0.42545743  1
  O  O243  1  0.06453381  0.62224524  0.91536859  1
  O  O244  1  0.36861062  0.09293343  0.42034744  1
  O  O245  1  0.40087709  0.12771797  0.91329489  1
  O  O246  1  0.39896261  0.63791981  0.41209914  1
  O  O247  1  0.38902208  0.62392463  0.92464516  1
  O  O248  1  0.73148919  0.09429223  0.42298283  1
  O  O249  1  0.73398735  0.11707319  0.91880301  1
  O  O250  1  0.71901434  0.59844375  0.41649497  1
  O  O251  1  0.74150690  0.64588288  0.91713713  1
  O  O252  1  0.20908936  0.35203355  0.40986202  1
  O  O253  1  0.23158341  0.37324559  0.91523100  1
  O  O254  1  0.21831137  0.87229726  0.41054854  1
  O  O255  1  0.23267975  0.87029365  0.91625071  1
  O  O256  1  0.55050956  0.36303241  0.43489448  1
  O  O257  1  0.54878615  0.34916648  0.91465406  1
  O  O258  1  0.54262931  0.84547477  0.41706829  1
  O  O259  1  0.56718295  0.88343467  0.91524541  1
  O  O260  1  0.89263500  0.36295127  0.41410051  1
  O  O261  1  0.89609225  0.37003232  0.93773268  1
  O  O262  1  0.89316712  0.86633153  0.41272434  1
  O  O263  1  0.90009720  0.87093706  0.91896505  1
  O  O264  1  0.05326057  0.38395094  0.41229142  1
  O  O265  1  0.07350400  0.39382039  0.92511073  1
  O  O266  1  0.05336072  0.89737633  0.40995972  1
  O  O267  1  0.06626002  0.88020564  0.91663813  1
  O  O268  1  0.36210282  0.40242010  0.41477030  1
  O  O269  1  0.39221090  0.37320769  0.91439182  1
  O  O270  1  0.38276605  0.87922981  0.41230965  1
  O  O271  1  0.39853243  0.87886906  0.91399269  1
  O  O272  1  0.73540743  0.39808977  0.42665432  1
  O  O273  1  0.71064570  0.37764775  0.92769777  1
  O  O274  1  0.73383861  0.89895869  0.42057381  1
  O  O275  1  0.73239538  0.87812173  0.91589341  1
  O  O276  1  0.19673733  0.14831486  0.41500455  1
  O  O277  1  0.23655235  0.12267998  0.91706590  1
  O  O278  1  0.23685390  0.62060565  0.41495750  1
  O  O279  1  0.22372581  0.64120804  0.91377520  1
  O  O280  1  0.55131486  0.13781463  0.43530252  1
  O  O281  1  0.56915892  0.12058665  0.91865264  1
  O  O282  1  0.55973212  0.64195666  0.41206155  1
  O  O283  1  0.57842402  0.63121386  0.92468648  1
  O  O284  1  0.88444214  0.14162813  0.41092454  1
  O  O285  1  0.90213171  0.11847586  0.91603041  1
  O  O286  1  0.88020933  0.63683835  0.42108314  1
  O  O287  1  0.90155429  0.63700718  0.91838435  1
  O  O288  1  0.17317380  -0.00360416  0.08116564  1
  O  O289  1  0.14510146  -0.00292784  0.58878805  1
  O  O290  1  0.16649580  0.51680928  0.07216039  1
  O  O291  1  0.15846358  0.50247437  0.58906219  1
  O  O292  1  0.52716793  -0.00368527  0.08078935  1
  O  O293  1  0.52792183  -0.00269846  0.58604607  1
  O  O294  1  0.52107045  0.50490172  0.08176229  1
  O  O295  1  0.50926348  0.48973229  0.58159763  1
  O  O296  1  0.83887406  0.00069551  0.08271583  1
  O  O297  1  0.83673196  0.00645392  0.58621984  1
  O  O298  1  0.84890108  0.49899738  0.08248629  1
  O  O299  1  0.83929021  0.49662944  0.58941339  1
  O  O300  1  0.00201992  0.24509138  0.08426047  1
  O  O301  1  0.00941337  0.25200143  0.58826110  1
  O  O302  1  0.00001784  0.75456011  0.08150992  1
  O  O303  1  -0.00945202  0.73601704  0.57946855  1
  O  O304  1  0.34883657  0.23419073  0.07031518  1
  O  O305  1  0.31960827  0.24561230  0.56939320  1
  O  O306  1  0.35412372  0.75289819  0.08226549  1
  O  O307  1  0.31822931  0.74381245  0.57930711  1
  O  O308  1  0.68074595  0.25141840  0.08720961  1
  O  O309  1  0.67900787  0.25073592  0.58968117  1
  O  O310  1  0.68850499  0.74896626  0.08263358  1
  O  O311  1  0.69407565  0.75145997  0.58803378  1
  O  O312  1  0.15697331  0.00576254  0.41023377  1
  O  O313  1  0.16267316  -0.00324906  0.91722450  1
  O  O314  1  0.16450138  0.49162632  0.41243931  1
  O  O315  1  0.16903315  0.50655922  0.91372236  1
  O  O316  1  0.50014283  -0.01797213  0.42158215  1
  O  O317  1  0.47864605  0.00223614  0.91654764  1
  O  O318  1  0.48863968  0.51718113  0.42328684  1
  O  O319  1  0.49606325  0.48426387  0.92551237  1
  O  O320  1  0.85059950  0.00128335  0.40804687  1
  O  O321  1  0.82264496  -0.00397668  0.92025909  1
  O  O322  1  0.84422812  0.49942105  0.41640859  1
  O  O323  1  0.81408876  0.51753579  0.92784744  1
  O  O324  1  0.33765487  0.26016669  0.41760000  1
  O  O325  1  0.31277323  0.24867138  0.91313104  1
  O  O326  1  0.30161750  0.75157499  0.41116772  1
  O  O327  1  0.32292961  0.75320467  0.91509469  1
  O  O328  1  0.68658374  0.24881543  0.42561837  1
  O  O329  1  0.65640510  0.24298051  0.91742007  1
  O  O330  1  0.68344447  0.73755975  0.42313833  1
  O  O331  1  0.64540473  0.75839887  0.91706520  1
  O  O332  1  0.99263631  0.24921111  0.40998822  1
  O  O333  1  1.00003954  0.23554313  0.93135675  1
  O  O334  1  1.00704366  0.76236718  0.42185278  1
  O  O335  1  0.99492045  0.75254681  0.91504394  1
  O  O336  1  0.20293014  0.08024785  0.19053690  1
  O  O337  1  0.20145677  0.08250612  0.69225134  1
  O  O338  1  0.20517106  0.58959441  0.18915904  1
  O  O339  1  0.20962546  0.58403468  0.69728545  1
  O  O340  1  0.54288790  0.07800913  0.19118353  1
  O  O341  1  0.54798555  0.08187247  0.69405897  1
  O  O342  1  0.54450833  0.58358974  0.19412629  1
  O  O343  1  0.54986252  0.58470117  0.70236642  1
  O  O344  1  0.87244254  0.08361780  0.19218798  1
  O  O345  1  0.88490130  0.07916803  0.69750100  1
  O  O346  1  0.87656150  0.57624715  0.19355523  1
  O  O347  1  0.87889211  0.58133273  0.69892408  1
  O  O348  1  0.03936150  0.33150088  0.19176645  1
  O  O349  1  0.04600467  0.33537891  0.69763992  1
  O  O350  1  0.04096943  0.83751734  0.19229054  1
  O  O351  1  0.04615054  0.83423201  0.70093442  1
  O  O352  1  0.37254866  0.33205925  0.19789528  1
  O  O353  1  0.37946166  0.33357408  0.70058316  1
  O  O354  1  0.37319386  0.83495854  0.19253706  1
  O  O355  1  0.37998727  0.83354251  0.70052105  1
  O  O356  1  0.71395186  0.33947311  0.19442168  1
  O  O357  1  0.71492525  0.33141593  0.70024053  1
  O  O358  1  0.71083737  0.83514628  0.19224226  1
  O  O359  1  0.71587855  0.83404358  0.69728246  1
  O  O360  1  0.20860757  0.41876228  0.19782489  1
  O  O361  1  0.20779946  0.41762591  0.69416500  1
  O  O362  1  0.20574929  0.91578537  0.19159733  1
  O  O363  1  0.20857830  0.91493676  0.69267127  1
  O  O364  1  0.54359082  0.42031881  0.19020414  1
  O  O365  1  0.54783075  0.41458969  0.69716923  1
  O  O366  1  0.54070814  0.91586944  0.19273873  1
  O  O367  1  0.54782860  0.91427881  0.69381967  1
  O  O368  1  0.87476365  0.41657129  0.19443306  1
  O  O369  1  0.88105917  0.41912494  0.69925298  1
  O  O370  1  0.87316562  0.91942051  0.19312386  1
  O  O371  1  0.87887876  0.91934554  0.69445635  1
  O  O372  1  0.03933599  0.16355950  0.19177314  1
  O  O373  1  0.04308020  0.16746850  0.69699725  1
  O  O374  1  0.04347314  0.67443764  0.19159470  1
  O  O375  1  0.04563599  0.66281640  0.69530853  1
  O  O376  1  0.37261479  0.16149968  0.18815991  1
  O  O377  1  0.38090668  0.16385961  0.69720409  1
  O  O378  1  0.36893270  0.66985418  0.19208108  1
  O  O379  1  0.37418286  0.66696554  0.69200877  1
  O  O380  1  0.71144508  0.15909571  0.19224777  1
  O  O381  1  0.70568956  0.16771297  0.69871347  1
  O  O382  1  0.70202294  0.66798946  0.19320212  1
  O  O383  1  0.71502442  0.66713007  0.69595270  1
  O  O384  1  0.11680536  0.08429963  0.30169316  1
  O  O385  1  0.12806658  0.08145788  0.80713121  1
  O  O386  1  0.12933252  0.58119282  0.30612763  1
  O  O387  1  0.12504015  0.58551806  0.80527382  1
  O  O388  1  0.45131102  0.08000725  0.29756181  1
  O  O389  1  0.46668479  0.08137178  0.80588914  1
  O  O390  1  0.45322544  0.58586614  0.30434751  1
  O  O391  1  0.45525731  0.58318751  0.80010279  1
  O  O392  1  0.78922068  0.08368290  0.30426440  1
  O  O393  1  0.78860558  0.07393196  0.80912367  1
  O  O394  1  0.78627408  0.57653074  0.30916104  1
  O  O395  1  0.79361534  0.58869253  0.80957820  1
  O  O396  1  0.28378477  0.33275063  0.30422716  1
  O  O397  1  0.28563598  0.33559499  0.80394092  1
  O  O398  1  0.28386120  0.83443325  0.30208578  1
  O  O399  1  0.29094816  0.83448330  0.80429673  1
  O  O400  1  0.61288040  0.34413271  0.30377265  1
  O  O401  1  0.62432744  0.33131023  0.80872605  1
  O  O402  1  0.62212341  0.83326391  0.29891801  1
  O  O403  1  0.62536232  0.83647512  0.80532615  1
  O  O404  1  0.95556833  0.33294394  0.30199504  1
  O  O405  1  0.95984795  0.33366035  0.80584995  1
  O  O406  1  0.95783843  0.83642395  0.30442823  1
  O  O407  1  0.95591432  0.83922897  0.80740802  1
  O  O408  1  0.11789705  0.41455771  0.30214224  1
  O  O409  1  0.12634413  0.41912458  0.80736012  1
  O  O410  1  0.12036927  0.92000713  0.30119874  1
  O  O411  1  0.12702083  0.91654183  0.80635628  1
  O  O412  1  0.45101406  0.42096778  0.29719197  1
  O  O413  1  0.45865976  0.41585032  0.80722306  1
  O  O414  1  0.45384400  0.91164745  0.30573450  1
  O  O415  1  0.46020392  0.91837415  0.80495282  1
  O  O416  1  0.79094492  0.41626913  0.30789856  1
  O  O417  1  0.79017652  0.41921084  0.80391570  1
  O  O418  1  0.79103979  0.91838021  0.30423501  1
  O  O419  1  0.79430739  0.91524900  0.80717252  1
  O  O420  1  0.28339796  0.16595026  0.29404354  1
  O  O421  1  0.28700849  0.16406740  0.80392387  1
  O  O422  1  0.28517900  0.66856810  0.30235591  1
  O  O423  1  0.29329010  0.66746875  0.80604634  1
  O  O424  1  0.61397027  0.15548738  0.30296397  1
  O  O425  1  0.62806549  0.16162509  0.80802980  1
  O  O426  1  0.63195459  0.66622650  0.30753954  1
  O  O427  1  0.62731813  0.67156663  0.80830393  1
  O  O428  1  0.95256909  0.16725569  0.30048554  1
  O  O429  1  0.97255216  0.16501025  0.81282960  1
  O  O430  1  0.96947031  0.66895544  0.30361857  1
  O  O431  1  0.95837047  0.66647563  0.80605139  1
  F  F432  1  0.04091200  0.00039283  0.19762130  1
  F  F433  1  0.04684076  0.00069930  0.70618221  1
  F  F434  1  0.04495081  0.49722435  0.19784649  1
  F  F435  1  0.04554964  0.49946602  0.70613864  1
  F  F436  1  0.37476431  -0.00524068  0.19861398  1
  F  F437  1  0.38290529  -0.00392258  0.69922843  1
  F  F438  1  0.37584857  0.50613178  0.19639759  1
  F  F439  1  0.37853035  0.49796798  0.70176824  1
  F  F440  1  0.71004837  -0.00162343  0.20059383  1
  F  F441  1  0.71610215  -0.00131896  0.70303218  1
  F  F442  1  0.71246581  0.50043055  0.20369309  1
  F  F443  1  0.71473130  0.50304758  0.70573969  1
  F  F444  1  0.20500135  0.25030223  0.19570696  1
  F  F445  1  0.20227468  0.25058383  0.69692319  1
  F  F446  1  0.20906415  0.75272585  0.19915979  1
  F  F447  1  0.21385465  0.74866224  0.70263467  1
  F  F448  1  0.52862981  0.24864300  0.19659461  1
  F  F449  1  0.55120537  0.24809316  0.70558710  1
  F  F450  1  0.54426296  0.75266739  0.19812227  1
  F  F451  1  0.54956661  0.75046166  0.70366603  1
  F  F452  1  0.87541308  0.24945684  0.19744304  1
  F  F453  1  0.88500455  0.25912641  0.70250243  1
  F  F454  1  0.88165024  0.76391822  0.19531202  1
  F  F455  1  0.87606476  0.75018543  0.70207120  1
  F  F456  1  0.28254957  -0.00218180  0.29327878  1
  F  F457  1  0.28770860  -0.00666103  0.79907340  1
  F  F458  1  0.28557394  0.50571899  0.29290675  1
  F  F459  1  0.28926462  0.49979791  0.79720785  1
  F  F460  1  0.61997076  -0.00365732  0.29548519  1
  F  F461  1  0.62287193  -0.00244829  0.79735130  1
  F  F462  1  0.61818890  0.50227580  0.29655282  1
  F  F463  1  0.62441369  0.49948457  0.80197982  1
  F  F464  1  0.95249729  0.00137814  0.29360835  1
  F  F465  1  0.95821047  -0.00141509  0.80192131  1
  F  F466  1  0.95390433  0.49375333  0.30016263  1
  F  F467  1  0.95829424  0.50292703  0.80284350  1
  F  F468  1  0.11568518  0.24943317  0.29206330  1
  F  F469  1  0.12486957  0.24986828  0.79889502  1
  F  F470  1  0.12122916  0.75391701  0.29556124  1
  F  F471  1  0.13173345  0.74981836  0.80282895  1
  F  F472  1  0.44949033  0.24691158  0.29725736  1
  F  F473  1  0.46800729  0.24655450  0.80456514  1
  F  F474  1  0.44750676  0.75296283  0.29671817  1
  F  F475  1  0.45820246  0.74924834  0.79902676  1
  F  F476  1  0.80118823  0.25047351  0.30029542  1
  F  F477  1  0.78631181  0.25835334  0.80954913  1
  F  F478  1  0.78295453  0.76127358  0.29988031  1
  F  F479  1  0.79084742  0.75218699  0.80011339  1
