# generated using pymatgen
data_K24Na3Li5Mg64Fe17Si79(O5F)48
_symmetry_space_group_name_H-M   'P 1'
_cell_length_a   16.08686302
_cell_length_b   18.57698325
_cell_length_c   20.55570603
_cell_angle_alpha   89.99956429
_cell_angle_beta   100.01283984
_cell_angle_gamma   90.00419095
_symmetry_Int_Tables_number   1
_chemical_formula_structural   K24Na3Li5Mg64Fe17Si79(O5F)48
_chemical_formula_sum   'K24 Na3 Li5 Mg64 Fe17 Si79 O240 F48'
_cell_volume   6049.41302732
_cell_formula_units_Z   1
loop_
 _symmetry_equiv_pos_site_id
 _symmetry_equiv_pos_as_xyz
  1  'x, y, z'
loop_
 _atom_site_type_symbol
 _atom_site_label
 _atom_site_symmetry_multiplicity
 _atom_site_fract_x
 _atom_site_fract_y
 _atom_site_fract_z
 _atom_site_occupancy
  K  K0  1  0.00152020  -0.00715504  0.00351394  1
  K  K1  1  -0.00639306  -0.00738263  0.49924641  1
  K  K2  1  0.00419881  0.50515768  0.00400212  1
  K  K3  1  0.00162769  0.50501923  0.49681019  1
  K  K4  1  0.32624339  -0.00339802  0.00157412  1
  K  K5  1  0.33780143  -0.01129581  0.50201862  1
  K  K6  1  0.33146461  0.50355590  0.00126313  1
  K  K7  1  0.32685989  0.50535965  0.50168793  1
  K  K8  1  0.67666198  -0.00163839  0.00095917  1
  K  K9  1  0.66906585  -0.01143736  0.50277851  1
  K  K10  1  0.67083620  0.51146935  0.00572733  1
  K  K11  1  0.66677083  0.50417486  0.49973731  1
  K  K12  1  0.16546150  0.24943575  0.00041271  1
  K  K13  1  0.16265202  0.26069985  0.49697742  1
  K  K14  1  0.16628139  0.75102132  0.00057560  1
  K  K15  1  0.16415826  0.74961134  0.50755640  1
  K  K16  1  0.49846469  0.25430632  -0.00058264  1
  K  K17  1  0.50593077  0.25470964  0.49903497  1
  K  K18  1  0.50481598  0.74326776  -0.00388248  1
  K  K19  1  0.50295149  0.75116771  0.50284479  1
  K  K20  1  0.82664284  0.24509817  0.00250316  1
  K  K21  1  0.83742455  0.25001231  0.49853627  1
  K  K22  1  0.83486145  0.73725182  -0.00003666  1
  K  K23  1  0.84881727  0.74736912  0.50194185  1
  Na  Na24  1  0.32482128  0.75032948  0.74318485  1
  Na  Na25  1  0.16825473  0.82450734  0.75021675  1
  Na  Na26  1  0.16447653  0.16888780  0.75066251  1
  Li  Li27  1  0.50011615  0.50228037  0.24882350  1
  Li  Li28  1  -0.00275285  0.25064965  0.25013586  1
  Li  Li29  1  0.66902947  0.91547135  0.25134644  1
  Li  Li30  1  0.16751088  0.67046269  0.74682767  1
  Li  Li31  1  0.16344227  0.83310583  0.24199307  1
  Mg  Mg32  1  0.33087736  0.25083540  0.74805331  1
  Mg  Mg33  1  0.00134175  0.24963514  0.75056722  1
  Mg  Mg34  1  0.33521552  0.25182150  0.24922970  1
  Mg  Mg35  1  0.66615557  0.74848671  0.74963325  1
  Mg  Mg36  1  0.66814366  0.75159965  0.25285336  1
  Mg  Mg37  1  0.32977983  0.75105485  0.24649737  1
  Mg  Mg38  1  0.16765839  -0.00154759  0.24897882  1
  Mg  Mg39  1  0.83243831  -0.00105585  0.75240242  1
  Mg  Mg40  1  0.50278870  -0.00200286  0.24898936  1
  Mg  Mg41  1  0.83440337  0.50039992  0.25025171  1
  Mg  Mg42  1  0.00336834  0.75188520  0.24982814  1
  Mg  Mg43  1  0.16539571  0.50070423  0.24920428  1
  Mg  Mg44  1  0.66832781  0.25035594  0.24699302  1
  Mg  Mg45  1  0.83547521  0.50043725  0.74906386  1
  Mg  Mg46  1  0.66603536  0.25085397  0.75149028  1
  Mg  Mg47  1  0.50081735  -0.00071099  0.75191043  1
  Mg  Mg48  1  0.83179407  -0.00112873  0.25107658  1
  Mg  Mg49  1  0.16946683  0.50315347  0.74726606  1
  Mg  Mg50  1  0.00485006  0.74768755  0.74945886  1
  Mg  Mg51  1  0.16572914  -0.00207020  0.75154983  1
  Mg  Mg52  1  0.50110921  0.50145641  0.74998914  1
  Mg  Mg53  1  0.32956548  0.08418734  0.75104439  1
  Mg  Mg54  1  0.49931935  0.83392669  0.75227771  1
  Mg  Mg55  1  0.66640952  0.91464978  0.75275127  1
  Mg  Mg56  1  0.50186903  0.16594502  0.24689535  1
  Mg  Mg57  1  0.33170530  0.58723194  0.74872832  1
  Mg  Mg58  1  0.00055290  0.58542941  0.25134555  1
  Mg  Mg59  1  0.16634961  0.33522648  0.74750101  1
  Mg  Mg60  1  0.33004990  0.91496242  0.24707212  1
  Mg  Mg61  1  0.00344012  0.91483034  0.24969512  1
  Mg  Mg62  1  0.00238352  0.58472544  0.74793304  1
  Mg  Mg63  1  0.66700074  0.08198737  0.24827562  1
  Mg  Mg64  1  0.83411752  0.83326007  0.75015245  1
  Mg  Mg65  1  0.83391713  0.66389812  0.74849369  1
  Mg  Mg66  1  0.50111386  0.83344402  0.24976506  1
  Mg  Mg67  1  0.16508057  0.33339883  0.25074819  1
  Mg  Mg68  1  0.83494850  0.83480962  0.25406719  1
  Mg  Mg69  1  0.66578646  0.41749349  0.24858296  1
  Mg  Mg70  1  0.66707530  0.58329381  0.25263239  1
  Mg  Mg71  1  0.33435940  0.41831210  0.24781949  1
  Mg  Mg72  1  0.50121913  0.33816467  0.24688876  1
  Mg  Mg73  1  0.66496270  0.58482004  0.74917065  1
  Mg  Mg74  1  -0.00075381  0.91414482  0.75086781  1
  Mg  Mg75  1  0.49796824  0.16603255  0.75121281  1
  Mg  Mg76  1  0.49956033  0.66526974  0.25129169  1
  Mg  Mg77  1  0.83227124  0.16688763  0.24821378  1
  Mg  Mg78  1  0.00041055  0.41292359  0.24987253  1
  Mg  Mg79  1  0.49832283  0.33579365  0.74683696  1
  Mg  Mg80  1  0.16544748  0.16843953  0.24889698  1
  Mg  Mg81  1  0.50051251  0.66624020  0.75044066  1
  Mg  Mg82  1  0.66753039  0.08419066  0.75294782  1
  Mg  Mg83  1  0.33134875  0.41683738  0.74738295  1
  Mg  Mg84  1  -0.00077997  0.08279382  0.75118416  1
  Mg  Mg85  1  0.33178190  0.58333769  0.24712782  1
  Mg  Mg86  1  0.83621193  0.66452024  0.25333040  1
  Mg  Mg87  1  0.00151546  0.41616282  0.74684747  1
  Mg  Mg88  1  0.33322205  0.08401773  0.24669441  1
  Mg  Mg89  1  0.83324930  0.33398422  0.74854246  1
  Mg  Mg90  1  0.66434460  0.41724398  0.74841053  1
  Mg  Mg91  1  0.83307704  0.33237949  0.24827070  1
  Mg  Mg92  1  -0.00019311  0.08534898  0.24937623  1
  Mg  Mg93  1  0.16467562  0.66840160  0.24686086  1
  Mg  Mg94  1  0.33308822  0.91639526  0.75097185  1
  Mg  Mg95  1  0.83347878  0.16436289  0.75222873  1
  Fe  Fe96  1  0.68500092  0.16207906  0.10788941  1
  Fe  Fe97  1  0.86189685  0.58352896  0.60909417  1
  Fe  Fe98  1  0.85703073  0.57973104  0.11028600  1
  Fe  Fe99  1  0.02559948  0.66836967  0.10706719  1
  Fe  Fe100  1  0.14182859  0.41486494  0.38961571  1
  Fe  Fe101  1  0.19616152  0.57940665  0.10762000  1
  Fe  Fe102  1  0.85987070  0.91391140  0.61183710  1
  Fe  Fe103  1  0.51993793  0.58514412  0.60764575  1
  Fe  Fe104  1  0.52384155  0.41426549  0.60792130  1
  Fe  Fe105  1  0.80740252  0.58132159  0.39245734  1
  Fe  Fe106  1  0.52414036  0.91680402  0.61258232  1
  Fe  Fe107  1  0.68546124  0.33439406  0.10795230  1
  Fe  Fe108  1  0.64057559  0.66421399  0.89172347  1
  Fe  Fe109  1  0.98096294  0.83876675  0.39199321  1
  Fe  Fe110  1  0.19189167  0.91923232  0.10810335  1
  Fe  Fe111  1  0.19362615  0.41925033  0.60887959  1
  Fe  Fe112  1  0.81136595  0.08402502  0.89300106  1
  Si  Si113  1  0.35682857  0.83649836  0.61330218  1
  Si  Si114  1  0.01688965  0.83692686  0.10879532  1
  Si  Si115  1  0.69231502  0.82968452  0.61416359  1
  Si  Si116  1  0.68864615  0.16899253  0.61612873  1
  Si  Si117  1  0.52294473  0.42623088  0.11162130  1
  Si  Si118  1  0.36050621  0.32780742  0.61154494  1
  Si  Si119  1  0.02467929  0.16650655  0.11619546  1
  Si  Si120  1  0.52032070  0.08811130  0.61416179  1
  Si  Si121  1  0.31387310  0.33136838  0.38572903  1
  Si  Si122  1  0.63649414  0.33371698  0.38422000  1
  Si  Si123  1  0.80622780  0.08444748  0.38643678  1
  Si  Si124  1  0.63489075  0.66757914  0.38939252  1
  Si  Si125  1  0.46728524  0.58588199  0.38344874  1
  Si  Si126  1  0.14477972  0.58521041  0.38717210  1
  Si  Si127  1  0.80408840  0.91850599  0.38878088  1
  Si  Si128  1  0.63854731  0.83292910  0.38587331  1
  Si  Si129  1  0.69170564  0.67227551  0.11573437  1
  Si  Si130  1  0.80717651  0.40990537  0.38725385  1
  Si  Si131  1  0.14274765  0.41933291  0.88445713  1
  Si  Si132  1  0.81212379  0.91236549  0.89046753  1
  Si  Si133  1  0.81045099  0.41323663  0.88462586  1
  Si  Si134  1  0.36298684  0.33437949  0.11265766  1
  Si  Si135  1  0.52473491  0.91164319  0.11679624  1
  Si  Si136  1  0.03161798  0.66845730  0.61367277  1
  Si  Si137  1  0.19067724  0.40695553  0.11064835  1
  Si  Si138  1  0.36292233  0.16875451  0.11290544  1
  Si  Si139  1  0.36231529  0.83104074  0.11149408  1
  Si  Si140  1  0.63994640  0.33642850  0.88549752  1
  Si  Si141  1  0.81254499  0.57928131  0.88751025  1
  Si  Si142  1  0.47350954  0.91933116  0.88972480  1
  Si  Si143  1  0.14048386  0.07919019  0.88696135  1
  Si  Si144  1  0.69191665  0.83620271  0.11859871  1
  Si  Si145  1  0.02489425  0.32957637  0.11564457  1
  Si  Si146  1  0.02554578  0.32907811  0.61168283  1
  Si  Si147  1  0.97495640  0.16146082  0.38495380  1
  Si  Si148  1  0.30637521  0.16547771  0.88643831  1
  Si  Si149  1  0.18840161  0.07992016  0.61505789  1
  Si  Si150  1  0.14285943  0.58336242  0.88327727  1
  Si  Si151  1  0.98064401  0.66813723  0.39131007  1
  Si  Si152  1  0.19401142  0.91864388  0.61590322  1
  Si  Si153  1  0.86074264  0.08393210  0.11371456  1
  Si  Si154  1  0.69610431  0.33284346  0.61350281  1
  Si  Si155  1  0.47082442  0.08545607  0.88776079  1
  Si  Si156  1  0.85978900  0.41134280  0.61261615  1
  Si  Si157  1  0.14819196  0.92434356  0.38774922  1
  Si  Si158  1  0.31053825  0.83513412  0.38337468  1
  Si  Si159  1  0.98106137  0.17011385  0.88925418  1
  Si  Si160  1  0.46985735  0.41468939  0.88564276  1
  Si  Si161  1  0.30988243  0.83529792  0.88773067  1
  Si  Si162  1  0.47454832  0.91676160  0.38421417  1
  Si  Si163  1  0.97769509  0.66338166  0.88456832  1
  Si  Si164  1  0.63922471  0.16796485  0.38438077  1
  Si  Si165  1  0.96994494  0.32782308  0.38606051  1
  Si  Si166  1  0.02889795  0.83393661  0.61440442  1
  Si  Si167  1  0.47356558  0.41955253  0.38279004  1
  Si  Si168  1  0.69341685  0.66704143  0.61254671  1
  Si  Si169  1  0.85298308  0.08456871  0.61288140  1
  Si  Si170  1  0.19201246  0.09199619  0.11101106  1
  Si  Si171  1  0.30452864  0.66748324  0.88487583  1
  Si  Si172  1  0.52880011  0.59033492  0.11801575  1
  Si  Si173  1  0.64154921  0.83604430  0.89096828  1
  Si  Si174  1  0.31307528  0.16736390  0.38321836  1
  Si  Si175  1  0.35844392  0.67099159  0.61298455  1
  Si  Si176  1  0.01974390  0.16376086  0.61496042  1
  Si  Si177  1  0.51969872  0.07365516  0.11083554  1
  Si  Si178  1  0.97690170  0.82813501  0.88658050  1
  Si  Si179  1  0.14713141  0.08760353  0.38479958  1
  Si  Si180  1  0.97872670  0.33520269  0.88429185  1
  Si  Si181  1  0.30576289  0.33036063  0.88610528  1
  Si  Si182  1  0.36401084  0.66693492  0.11296171  1
  Si  Si183  1  0.46694333  0.58053806  0.88969554  1
  Si  Si184  1  0.85502297  0.91921084  0.11560536  1
  Si  Si185  1  0.85943132  0.40942917  0.11138691  1
  Si  Si186  1  0.47572328  0.08189866  0.38347632  1
  Si  Si187  1  0.19486240  0.58750600  0.61239075  1
  Si  Si188  1  0.14044393  0.91558365  0.88717035  1
  Si  Si189  1  0.30555893  0.67091393  0.38411946  1
  Si  Si190  1  0.63635243  0.16944505  0.88878412  1
  Si  Si191  1  0.35152875  0.16549254  0.61529960  1
  O  O192  1  0.26983530  0.13543119  0.08318659  1
  O  O193  1  0.27043080  0.11313016  0.58563044  1
  O  O194  1  0.29639142  0.60916781  0.07791922  1
  O  O195  1  0.27710722  0.61924965  0.58292075  1
  O  O196  1  0.59758806  0.09433983  0.07522054  1
  O  O197  1  0.60257940  0.12359178  0.58657706  1
  O  O198  1  0.61008637  0.61952715  0.08700416  1
  O  O199  1  0.62197661  0.60993603  0.57966000  1
  O  O200  1  0.94916552  0.10896890  0.08783037  1
  O  O201  1  0.93466063  0.11791430  0.58265899  1
  O  O202  1  0.94252918  0.60629293  0.06679254  1
  O  O203  1  0.95730923  0.61567015  0.57634472  1
  O  O204  1  0.10967544  0.35222633  0.08472321  1
  O  O205  1  0.10347843  0.35535735  0.57847716  1
  O  O206  1  0.09337595  0.86834451  0.07374884  1
  O  O207  1  0.11624228  0.86354647  0.59027017  1
  O  O208  1  0.43430444  0.38014236  0.08232845  1
  O  O209  1  0.44835198  0.33627237  0.58390284  1
  O  O210  1  0.45220987  0.85252055  0.08647191  1
  O  O211  1  0.43130222  0.85992994  0.57318557  1
  O  O212  1  0.79040743  0.34891790  0.08102405  1
  O  O213  1  0.78670068  0.34919505  0.58939796  1
  O  O214  1  0.77126803  0.86960342  0.08671412  1
  O  O215  1  0.77669092  0.84493713  0.58269120  1
  O  O216  1  0.26983285  0.36652267  0.08166449  1
  O  O217  1  0.28984588  0.38474895  0.57809147  1
  O  O218  1  0.28866640  0.88398332  0.07582179  1
  O  O219  1  0.27497324  0.88958206  0.58431816  1
  O  O220  1  0.59771593  0.40120509  0.07345805  1
  O  O221  1  0.62568543  0.38754256  0.57759114  1
  O  O222  1  0.61121851  0.88924686  0.08912470  1
  O  O223  1  0.62037244  0.88683172  0.58052465  1
  O  O224  1  0.94904278  0.38511548  0.08533378  1
  O  O225  1  0.94196759  0.37863952  0.58409111  1
  O  O226  1  0.93500970  0.89223449  0.08339891  1
  O  O227  1  0.95511213  0.88632839  0.57663718  1
  O  O228  1  0.10877919  0.14354714  0.08492170  1
  O  O229  1  0.10298038  0.12910854  0.58846951  1
  O  O230  1  0.11747081  0.64421503  0.06756988  1
  O  O231  1  0.11788865  0.64431021  0.58666122  1
  O  O232  1  0.43447238  0.12310591  0.08268980  1
  O  O233  1  0.43706196  0.14033026  0.58733407  1
  O  O234  1  0.45430267  0.64794520  0.08858760  1
  O  O235  1  0.43567113  0.65401693  0.57406917  1
  O  O236  1  0.78651446  0.13595315  0.07840059  1
  O  O237  1  0.77100849  0.13875005  0.58713131  1
  O  O238  1  0.76760556  0.64539855  0.08042835  1
  O  O239  1  0.77885992  0.65327500  0.58205055  1
  O  O240  1  0.06462174  0.11858736  0.41432686  1
  O  O241  1  0.06842420  0.12442460  0.91789587  1
  O  O242  1  0.06246613  0.61415417  0.41656744  1
  O  O243  1  0.06306790  0.61716869  0.91358179  1
  O  O244  1  0.39499644  0.11586622  0.41285920  1
  O  O245  1  0.39385396  0.12351337  0.91921087  1
  O  O246  1  0.38679851  0.61908147  0.41400290  1
  O  O247  1  0.38988760  0.62194905  0.91914545  1
  O  O248  1  0.73104275  0.13076334  0.41443563  1
  O  O249  1  0.71825353  0.12584270  0.92401632  1
  O  O250  1  0.71283943  0.61936541  0.42474647  1
  O  O251  1  0.74100634  0.61290624  0.92446841  1
  O  O252  1  0.23594371  0.35447394  0.42035324  1
  O  O253  1  0.22893414  0.37228958  0.91469592  1
  O  O254  1  0.23493560  0.87598091  0.41324270  1
  O  O255  1  0.23006609  0.87386421  0.91709838  1
  O  O256  1  0.56069619  0.37492182  0.41395070  1
  O  O257  1  0.56309103  0.37835022  0.91379869  1
  O  O258  1  0.56031040  0.87258840  0.41521299  1
  O  O259  1  0.56542370  0.88261604  0.91830756  1
  O  O260  1  0.88383129  0.35236576  0.41428637  1
  O  O261  1  0.89582168  0.36525509  0.91323662  1
  O  O262  1  0.88821689  0.87890155  0.42596568  1
  O  O263  1  0.89593978  0.86084223  0.91623839  1
  O  O264  1  0.04905547  0.37502379  0.42274159  1
  O  O265  1  0.06210025  0.38461446  0.91410262  1
  O  O266  1  0.07508792  0.89765023  0.42678536  1
  O  O267  1  0.06318938  0.87461713  0.91665364  1
  O  O268  1  0.39795826  0.38054580  0.41466521  1
  O  O269  1  0.39785159  0.36710965  0.91633495  1
  O  O270  1  0.39687621  0.88116726  0.41513465  1
  O  O271  1  0.39881366  0.87826819  0.92219644  1
  O  O272  1  0.72499228  0.37321020  0.41483249  1
  O  O273  1  0.73042568  0.37698330  0.91383752  1
  O  O274  1  0.72211523  0.88102383  0.41513947  1
  O  O275  1  0.73064891  0.87903467  0.91946263  1
  O  O276  1  0.22945329  0.14000227  0.41260671  1
  O  O277  1  0.23004595  0.12259227  0.91411185  1
  O  O278  1  0.22363909  0.64196399  0.41365531  1
  O  O279  1  0.22602292  0.63074917  0.91610257  1
  O  O280  1  0.56272206  0.12635785  0.41426132  1
  O  O281  1  0.55385821  0.13449757  0.91585277  1
  O  O282  1  0.54858886  0.63639288  0.41411356  1
  O  O283  1  0.55430498  0.61586832  0.92673229  1
  O  O284  1  0.89805419  0.12226240  0.41728584  1
  O  O285  1  0.90647711  0.14185641  0.92566592  1
  O  O286  1  0.90233786  0.63738578  0.42371752  1
  O  O287  1  0.90120179  0.62348971  0.91417422  1
  O  O288  1  0.17907849  0.01561306  0.07404039  1
  O  O289  1  0.16976429  -0.00062111  0.58196147  1
  O  O290  1  0.17301439  0.48331728  0.07397335  1
  O  O291  1  0.16815589  0.51149942  0.57456299  1
  O  O292  1  0.49081586  -0.00928100  0.08683642  1
  O  O293  1  0.49968965  0.01146830  0.57862090  1
  O  O294  1  0.49942484  0.51042171  0.08789380  1
  O  O295  1  0.48223807  0.49809439  0.56795984  1
  O  O296  1  0.83648589  0.00139215  0.08643064  1
  O  O297  1  0.82866844  0.00786282  0.57837463  1
  O  O298  1  0.82848976  0.48602736  0.07792048  1
  O  O299  1  0.83167253  0.48786350  0.57943848  1
  O  O300  1  -0.00140750  0.24759404  0.08660539  1
  O  O301  1  0.00345277  0.24545015  0.58463481  1
  O  O302  1  -0.01380321  0.75998757  0.07624182  1
  O  O303  1  0.01314176  0.75158441  0.58504392  1
  O  O304  1  0.36559658  0.25122598  0.08401902  1
  O  O305  1  0.32395187  0.24560226  0.58748623  1
  O  O306  1  0.33980872  0.74872557  0.08420298  1
  O  O307  1  0.32566236  0.75414831  0.59252233  1
  O  O308  1  0.64392116  0.24781261  0.07071919  1
  O  O309  1  0.67053999  0.25025979  0.58621153  1
  O  O310  1  0.66654735  0.75547179  0.08849090  1
  O  O311  1  0.65661292  0.74869850  0.59090069  1
  O  O312  1  0.17384519  0.00802529  0.41564958  1
  O  O313  1  0.14982069  -0.00206220  0.92021488  1
  O  O314  1  0.17144347  0.50796670  0.42090848  1
  O  O315  1  0.15868192  0.50060360  0.91499559  1
  O  O316  1  0.48787167  -0.00020253  0.41294035  1
  O  O317  1  0.47959145  0.00330489  0.91821075  1
  O  O318  1  0.48435423  0.50259459  0.41082159  1
  O  O319  1  0.46533493  0.49539209  0.91632768  1
  O  O320  1  0.80482371  0.00331946  0.41714516  1
  O  O321  1  0.83296928  -0.01006513  0.92574730  1
  O  O322  1  0.82758126  0.48589396  0.42425525  1
  O  O323  1  0.82901303  0.49453739  0.91362164  1
  O  O324  1  0.34058867  0.24773018  0.41130558  1
  O  O325  1  0.30876142  0.24805458  0.91750435  1
  O  O326  1  0.32427754  0.75313228  0.41433209  1
  O  O327  1  0.31669917  0.75116135  0.91487681  1
  O  O328  1  0.64107562  0.25038246  0.41422288  1
  O  O329  1  0.64344488  0.25415765  0.91490758  1
  O  O330  1  0.64617227  0.75166158  0.41776759  1
  O  O331  1  0.64645601  0.75865481  0.92716433  1
  O  O332  1  0.98534386  0.24336436  0.41468880  1
  O  O333  1  1.00247643  0.25439657  0.91395402  1
  O  O334  1  1.00740707  0.74619499  0.42474750  1
  O  O335  1  0.99035196  0.74547562  0.91543397  1
  O  O336  1  0.21176809  0.08785351  0.19202745  1
  O  O337  1  0.21104967  0.07756221  0.69437300  1
  O  O338  1  0.21093546  0.58207057  0.19981549  1
  O  O339  1  0.21488308  0.57797096  0.69195276  1
  O  O340  1  0.53983339  0.08133793  0.19178782  1
  O  O341  1  0.54100837  0.08613964  0.69550309  1
  O  O342  1  0.54746640  0.58872132  0.19766587  1
  O  O343  1  0.54431160  0.58163927  0.70040966  1
  O  O344  1  0.87671738  0.08341714  0.19457118  1
  O  O345  1  0.87464773  0.08442985  0.69383617  1
  O  O346  1  0.88003589  0.58324456  0.20222353  1
  O  O347  1  0.87950798  0.58081773  0.70106175  1
  O  O348  1  0.04523563  0.33128535  0.19512513  1
  O  O349  1  0.04213088  0.33105364  0.69292151  1
  O  O350  1  0.03788400  0.83692677  0.18941200  1
  O  O351  1  0.03315783  0.83453298  0.69361845  1
  O  O352  1  0.37856648  0.33327101  0.19301790  1
  O  O353  1  0.37615991  0.33141618  0.69357660  1
  O  O354  1  0.37796192  0.83387622  0.19251600  1
  O  O355  1  0.38277896  0.84569169  0.69262276  1
  O  O356  1  0.70934293  0.33396654  0.20056388  1
  O  O357  1  0.70997740  0.33244616  0.69491253  1
  O  O358  1  0.71262986  0.83321769  0.19816908  1
  O  O359  1  0.70988130  0.83366439  0.69622837  1
  O  O360  1  0.21230493  0.41120344  0.19124995  1
  O  O361  1  0.21135279  0.41668490  0.70077688  1
  O  O362  1  0.21307377  0.92135638  0.19866418  1
  O  O363  1  0.21529274  0.92512237  0.69503289  1
  O  O364  1  0.54370609  0.41595420  0.19124567  1
  O  O365  1  0.54460606  0.41679181  0.70100569  1
  O  O366  1  0.54016566  0.91510712  0.19648170  1
  O  O367  1  0.54601428  0.91849830  0.70450272  1
  O  O368  1  0.87754552  0.41340936  0.19311510  1
  O  O369  1  0.87833222  0.41375605  0.69411075  1
  O  O370  1  0.87393325  0.91866407  0.19576378  1
  O  O371  1  0.87689234  0.91802939  0.70374057  1
  O  O372  1  0.04591219  0.16445407  0.19584763  1
  O  O373  1  0.03142378  0.16529816  0.69445532  1
  O  O374  1  0.04340339  0.66679181  0.19989976  1
  O  O375  1  0.03750326  0.66542629  0.69310954  1
  O  O376  1  0.37899929  0.16754627  0.19344517  1
  O  O377  1  0.37322531  0.16487205  0.69602995  1
  O  O378  1  0.37754341  0.66756516  0.19379830  1
  O  O379  1  0.38389022  0.65958675  0.69219466  1
  O  O380  1  0.70878249  0.16482352  0.20041981  1
  O  O381  1  0.70722113  0.16815496  0.69668632  1
  O  O382  1  0.70868686  0.67021176  0.19646212  1
  O  O383  1  0.71232716  0.66490973  0.69440786  1
  O  O384  1  0.12713322  0.08614529  0.30450882  1
  O  O385  1  0.11889648  0.07661156  0.80783256  1
  O  O386  1  0.12516017  0.58329797  0.30661199  1
  O  O387  1  0.12205416  0.57778365  0.80412030  1
  O  O388  1  0.45750283  0.08439553  0.30321191  1
  O  O389  1  0.45475439  0.08474786  0.80729194  1
  O  O390  1  0.45051855  0.58761037  0.30386843  1
  O  O391  1  0.45451249  0.58154895  0.80929972  1
  O  O392  1  0.79021955  0.08360275  0.30657157  1
  O  O393  1  0.78899307  0.08419463  0.80102773  1
  O  O394  1  0.78679450  0.58262860  0.30115412  1
  O  O395  1  0.79064946  0.58072868  0.80687599  1
  O  O396  1  0.29449811  0.33278653  0.30464071  1
  O  O397  1  0.29033290  0.33095803  0.80635882  1
  O  O398  1  0.29829856  0.83414451  0.30421582  1
  O  O399  1  0.29795109  0.84267923  0.80997138  1
  O  O400  1  0.61931807  0.33229160  0.30424244  1
  O  O401  1  0.62357797  0.33363181  0.80527008  1
  O  O402  1  0.61986227  0.83096281  0.30635875  1
  O  O403  1  0.62542035  0.83411811  0.81023492  1
  O  O404  1  0.95404439  0.33259190  0.30617339  1
  O  O405  1  0.95760912  0.33455290  0.80390085  1
  O  O406  1  0.95774462  0.83629119  0.30041516  1
  O  O407  1  0.95798973  0.83118453  0.80673248  1
  O  O408  1  0.12316272  0.41568784  0.29819323  1
  O  O409  1  0.12321147  0.41691713  0.80460242  1
  O  O410  1  0.12261543  0.92536074  0.30817320  1
  O  O411  1  0.11904933  0.92135937  0.80814425  1
  O  O412  1  0.45488111  0.41418706  0.30325378  1
  O  O413  1  0.45260789  0.41357595  0.80563930  1
  O  O414  1  0.45636158  0.91731381  0.30407262  1
  O  O415  1  0.45577090  0.91991413  0.80966389  1
  O  O416  1  0.78982219  0.41498081  0.30659562  1
  O  O417  1  0.79103010  0.41353753  0.80411605  1
  O  O418  1  0.79345407  0.91858018  0.30894417  1
  O  O419  1  0.78995973  0.91523477  0.80961950  1
  O  O420  1  0.29405874  0.16605968  0.30276896  1
  O  O421  1  0.29818009  0.16810256  0.80756098  1
  O  O422  1  0.29063750  0.66976646  0.30403168  1
  O  O423  1  0.28915249  0.66078454  0.80678132  1
  O  O424  1  0.62034156  0.16656985  0.30443316  1
  O  O425  1  0.62100172  0.16788807  0.80759233  1
  O  O426  1  0.62180826  0.66809772  0.30855009  1
  O  O427  1  0.62421127  0.66705637  0.80074495  1
  O  O428  1  0.95392087  0.15995170  0.30570614  1
  O  O429  1  0.95907332  0.16716450  0.80828332  1
  O  O430  1  0.95949821  0.66889752  0.31017511  1
  O  O431  1  0.95667997  0.66471690  0.80477566  1
  F  F432  1  0.04610824  0.00256722  0.20221998  1
  F  F433  1  0.04382143  0.00047808  0.70227267  1
  F  F434  1  0.04393532  0.50009360  0.20168079  1
  F  F435  1  0.04565583  0.49807838  0.70048561  1
  F  F436  1  0.38014298  0.00121169  0.20161396  1
  F  F437  1  0.38004090  0.00367281  0.70551001  1
  F  F438  1  0.37407624  0.49955066  0.19939658  1
  F  F439  1  0.37970516  0.49901581  0.70446320  1
  F  F440  1  0.71335916  0.00177364  0.20274238  1
  F  F441  1  0.70917768  -0.00041363  0.70464786  1
  F  F442  1  0.71141833  0.49938595  0.20095386  1
  F  F443  1  0.71373896  0.49856510  0.70429228  1
  F  F444  1  0.21562701  0.24975771  0.20114205  1
  F  F445  1  0.21463703  0.25730252  0.69887469  1
  F  F446  1  0.21437240  0.74783003  0.19743431  1
  F  F447  1  0.19672909  0.73881527  0.68815305  1
  F  F448  1  0.54337073  0.24994060  0.20047699  1
  F  F449  1  0.54549131  0.24827556  0.70422778  1
  F  F450  1  0.54631503  0.74977801  0.20378550  1
  F  F451  1  0.54582978  0.75399188  0.70200202  1
  F  F452  1  0.87550376  0.24811967  0.20292891  1
  F  F453  1  0.87816093  0.24843337  0.70492879  1
  F  F454  1  0.87649307  0.74983321  0.20534502  1
  F  F455  1  0.87946700  0.74938804  0.70482047  1
  F  F456  1  0.29193336  0.00446653  0.29847407  1
  F  F457  1  0.28807381  0.00336667  0.80214899  1
  F  F458  1  0.28919730  0.49731945  0.29811773  1
  F  F459  1  0.29000774  0.49896691  0.80023413  1
  F  F460  1  0.61764657  0.00696851  0.30085210  1
  F  F461  1  0.62151585  0.00427244  0.80262890  1
  F  F462  1  0.62404098  0.49840458  0.29879262  1
  F  F463  1  0.62466634  0.49835620  0.80235616  1
  F  F464  1  0.95490958  0.00148976  0.29705692  1
  F  F465  1  0.95441142  0.00263057  0.80094708  1
  F  F466  1  0.95646155  0.49611347  0.29898886  1
  F  F467  1  0.95715944  0.49510622  0.79885508  1
  F  F468  1  0.13148535  0.24861659  0.30087766  1
  F  F469  1  0.11722569  0.26076991  0.80211930  1
  F  F470  1  0.12429072  0.75221426  0.29623423  1
  F  F471  1  0.11291444  0.74228286  0.80815910  1
  F  F472  1  0.45631018  0.24955537  0.29598016  1
  F  F473  1  0.45385058  0.25084946  0.79742111  1
  F  F474  1  0.45314076  0.75122939  0.29660968  1
  F  F475  1  0.46536157  0.75053565  0.80124448  1
  F  F476  1  0.78775332  0.24795134  0.30145969  1
  F  F477  1  0.78795807  0.25079696  0.79906122  1
  F  F478  1  0.78800845  0.75077890  0.30161959  1
  F  F479  1  0.78855041  0.74891958  0.79802866  1
