# generated using pymatgen
data_K24Na3Li5Mg64Fe17Si79(O5F)48
_symmetry_space_group_name_H-M   'P 1'
_cell_length_a   16.10542762
_cell_length_b   18.60466071
_cell_length_c   20.55886984
_cell_angle_alpha   89.98941795
_cell_angle_beta   100.01929000
_cell_angle_gamma   90.01303924
_symmetry_Int_Tables_number   1
_chemical_formula_structural   K24Na3Li5Mg64Fe17Si79(O5F)48
_chemical_formula_sum   'K24 Na3 Li5 Mg64 Fe17 Si79 O240 F48'
_cell_volume   6066.23021046
_cell_formula_units_Z   1
loop_
 _symmetry_equiv_pos_site_id
 _symmetry_equiv_pos_as_xyz
  1  'x, y, z'
loop_
 _atom_site_type_symbol
 _atom_site_label
 _atom_site_symmetry_multiplicity
 _atom_site_fract_x
 _atom_site_fract_y
 _atom_site_fract_z
 _atom_site_occupancy
  K  K0  1  -0.00872754  -0.00166954  -0.01505897  1
  K  K1  1  0.00207450  -0.00303053  0.50531790  1
  K  K2  1  -0.00204937  0.49933380  -0.02147329  1
  K  K3  1  -0.01096623  0.49772764  0.51050630  1
  K  K4  1  0.33621966  -0.00144929  -0.01343582  1
  K  K5  1  0.33958134  -0.00463989  0.51211332  1
  K  K6  1  0.33263219  0.49248809  -0.02057079  1
  K  K7  1  0.34416175  0.49783031  0.51354654  1
  K  K8  1  0.66841919  -0.00094246  -0.00362573  1
  K  K9  1  0.66378778  0.00104207  0.50650723  1
  K  K10  1  0.66139297  0.50678213  -0.00937474  1
  K  K11  1  0.68549324  0.49267211  0.51225900  1
  K  K12  1  0.16504878  0.25434463  -0.02003029  1
  K  K13  1  0.16940586  0.24763208  0.51291040  1
  K  K14  1  0.15544663  0.75433120  -0.01155120  1
  K  K15  1  0.16516588  0.75901223  0.51024830  1
  K  K16  1  0.49559395  0.24256195  -0.00913487  1
  K  K17  1  0.49775154  0.25100011  0.51109566  1
  K  K18  1  0.49641256  0.74791441  -0.00655004  1
  K  K19  1  0.49736441  0.75022258  0.51198639  1
  K  K20  1  0.83021977  0.24671573  -0.01046134  1
  K  K21  1  0.83409035  0.26054373  0.50784641  1
  K  K22  1  0.82022778  0.75746838  -0.00366598  1
  K  K23  1  0.83180284  0.75072400  0.50010343  1
  Na  Na24  1  0.83629063  0.49816348  0.74687956  1
  Na  Na25  1  0.83227844  0.66951720  0.24758444  1
  Na  Na26  1  0.16690213  0.16887478  0.75579150  1
  Li  Li27  1  0.16553452  0.49831484  0.74933683  1
  Li  Li28  1  0.83214743  -0.00075361  0.75324202  1
  Li  Li29  1  0.33648858  0.91442935  0.74876415  1
  Li  Li30  1  0.67144975  0.41640005  0.25428665  1
  Li  Li31  1  0.83561583  0.33371825  0.74965603  1
  Mg  Mg32  1  0.33424137  0.25031246  0.75085885  1
  Mg  Mg33  1  0.16620984  0.50084196  0.25123762  1
  Mg  Mg34  1  0.49586455  -0.00205225  0.74702179  1
  Mg  Mg35  1  0.33481396  0.75061510  0.75135550  1
  Mg  Mg36  1  0.50349129  0.49784394  0.24816384  1
  Mg  Mg37  1  0.50016022  0.00032422  0.24611471  1
  Mg  Mg38  1  0.33264102  0.24958211  0.25174918  1
  Mg  Mg39  1  0.16892357  -0.00028260  0.75412575  1
  Mg  Mg40  1  0.66558636  0.75153986  0.74892383  1
  Mg  Mg41  1  0.66596764  0.25304010  0.25044543  1
  Mg  Mg42  1  0.00064033  0.25090606  0.25192864  1
  Mg  Mg43  1  0.83006090  0.49991724  0.25090971  1
  Mg  Mg44  1  0.33325989  0.74882043  0.24984803  1
  Mg  Mg45  1  0.00125677  0.75210788  0.75287116  1
  Mg  Mg46  1  0.16688285  -0.00020703  0.25516064  1
  Mg  Mg47  1  0.49957535  0.49937875  0.74646217  1
  Mg  Mg48  1  -0.00279888  0.25363783  0.75080885  1
  Mg  Mg49  1  0.67097670  0.25070044  0.74959596  1
  Mg  Mg50  1  0.66840191  0.75070321  0.24683696  1
  Mg  Mg51  1  0.83285181  0.00060494  0.25071088  1
  Mg  Mg52  1  -0.00123625  0.75234111  0.25270458  1
  Mg  Mg53  1  0.83279813  0.16743284  0.25014123  1
  Mg  Mg54  1  -0.00150743  0.41648878  0.25164197  1
  Mg  Mg55  1  0.49649541  0.66464053  0.74632356  1
  Mg  Mg56  1  0.50027348  0.33369745  0.74838086  1
  Mg  Mg57  1  0.66707588  0.58281828  0.74654213  1
  Mg  Mg58  1  0.16745459  0.33503770  0.25232475  1
  Mg  Mg59  1  0.17136873  0.83681906  0.75340964  1
  Mg  Mg60  1  0.33403831  0.41641411  0.25051066  1
  Mg  Mg61  1  0.16705266  0.83537455  0.25351050  1
  Mg  Mg62  1  0.33470061  0.58343277  0.24895137  1
  Mg  Mg63  1  0.33408347  0.08524429  0.25265122  1
  Mg  Mg64  1  0.17028737  0.16608384  0.25518337  1
  Mg  Mg65  1  -0.00190248  0.58430389  0.25040808  1
  Mg  Mg66  1  0.83416265  0.66727784  0.74860256  1
  Mg  Mg67  1  0.50180724  0.33425993  0.25040600  1
  Mg  Mg68  1  0.49663522  0.83559898  0.74859937  1
  Mg  Mg69  1  0.00244549  0.08459787  0.25375111  1
  Mg  Mg70  1  0.16846555  0.66481135  0.75089826  1
  Mg  Mg71  1  0.16655352  0.33553917  0.74985872  1
  Mg  Mg72  1  0.83069705  0.33634203  0.25115349  1
  Mg  Mg73  1  0.66977116  0.58123774  0.24877925  1
  Mg  Mg74  1  -0.00179856  0.08247919  0.75373452  1
  Mg  Mg75  1  0.49932623  0.16504623  0.24935103  1
  Mg  Mg76  1  0.66545899  0.91834182  0.74730218  1
  Mg  Mg77  1  0.00263179  0.41792139  0.75216040  1
  Mg  Mg78  1  0.00001382  0.91860281  0.75537349  1
  Mg  Mg79  1  0.33476577  0.08086872  0.75191675  1
  Mg  Mg80  1  0.50260961  0.66468014  0.24730077  1
  Mg  Mg81  1  0.83072595  0.83577396  0.25050071  1
  Mg  Mg82  1  0.00112787  0.91636765  0.25406891  1
  Mg  Mg83  1  0.83264037  0.83798501  0.75114206  1
  Mg  Mg84  1  0.67064198  0.41562337  0.74414270  1
  Mg  Mg85  1  0.66467705  0.08507622  0.24815243  1
  Mg  Mg86  1  0.66758856  0.91530069  0.24596309  1
  Mg  Mg87  1  0.33136486  0.41619041  0.75099206  1
  Mg  Mg88  1  0.83409496  0.16596610  0.75149569  1
  Mg  Mg89  1  0.33331916  0.91511306  0.25074554  1
  Mg  Mg90  1  0.49999732  0.16447644  0.74949351  1
  Mg  Mg91  1  0.50058015  0.83364306  0.24693628  1
  Mg  Mg92  1  0.33186807  0.58238125  0.74885305  1
  Mg  Mg93  1  0.00241726  0.58188305  0.75052514  1
  Mg  Mg94  1  0.66851606  0.08190881  0.74992581  1
  Mg  Mg95  1  0.16554401  0.66629431  0.25048652  1
  Fe  Fe96  1  0.47489277  0.58172905  0.88809547  1
  Fe  Fe97  1  0.13871147  0.91841237  0.89330722  1
  Fe  Fe98  1  0.80590804  0.41568787  0.39035829  1
  Fe  Fe99  1  0.35363006  0.82890941  0.60659812  1
  Fe  Fe100  1  0.35215750  0.65618268  0.60590377  1
  Fe  Fe101  1  0.69139212  0.83207063  0.10510183  1
  Fe  Fe102  1  0.14295193  0.41846965  0.88896449  1
  Fe  Fe103  1  0.79920423  0.91784523  0.88782932  1
  Fe  Fe104  1  0.47508020  0.91152406  0.88969770  1
  Fe  Fe105  1  0.80396776  0.91915491  0.39012044  1
  Fe  Fe106  1  0.14242189  0.91698541  0.39352224  1
  Fe  Fe107  1  0.52719657  0.91720777  0.60617444  1
  Fe  Fe108  1  0.48038834  0.08294493  0.89068978  1
  Fe  Fe109  1  0.31202053  0.16997599  0.39359408  1
  Fe  Fe110  1  0.35280193  0.33797020  0.61078808  1
  Fe  Fe111  1  0.86397478  0.41679957  0.61235622  1
  Fe  Fe112  1  0.52065805  0.08583649  0.10800944  1
  Si  Si113  1  0.97201459  0.33510479  0.88882793  1
  Si  Si114  1  0.86443554  0.91516883  0.61724093  1
  Si  Si115  1  0.69784941  0.83415866  0.61064998  1
  Si  Si116  1  0.86441177  0.08661639  0.11639544  1
  Si  Si117  1  0.14436287  0.58401889  0.38632031  1
  Si  Si118  1  0.51781667  0.91571805  0.10969280  1
  Si  Si119  1  0.97276876  0.66563530  0.88542139  1
  Si  Si120  1  0.97117555  0.83123702  0.39062531  1
  Si  Si121  1  0.31287968  0.33106695  0.88924122  1
  Si  Si122  1  0.81060521  0.58512718  0.38741962  1
  Si  Si123  1  0.19343544  0.08099697  0.11684280  1
  Si  Si124  1  0.69370233  0.32955161  0.61193578  1
  Si  Si125  1  0.81025387  0.09082882  0.38717815  1
  Si  Si126  1  0.30506679  0.82957173  0.89072789  1
  Si  Si127  1  0.80516209  0.41703000  0.88260161  1
  Si  Si128  1  0.47296124  0.42014518  0.38383861  1
  Si  Si129  1  0.35306108  0.17199207  0.11316899  1
  Si  Si130  1  0.53355728  0.58069681  0.60911949  1
  Si  Si131  1  0.18946771  0.41957847  0.11564013  1
  Si  Si132  1  0.48101068  0.41171446  0.88721367  1
  Si  Si133  1  0.86012509  0.41503478  0.11328011  1
  Si  Si134  1  0.02761168  0.83582656  0.61714291  1
  Si  Si135  1  0.02732349  0.67129659  0.61539667  1
  Si  Si136  1  0.52990766  0.41450119  0.61036195  1
  Si  Si137  1  0.64600066  0.66545283  0.88409817  1
  Si  Si138  1  0.19580067  0.91522170  0.11613155  1
  Si  Si139  1  0.63391285  0.83288981  0.38463662  1
  Si  Si140  1  0.63196746  0.33035301  0.38767353  1
  Si  Si141  1  0.30869110  0.82792693  0.38592201  1
  Si  Si142  1  0.52173120  0.57826591  0.11188049  1
  Si  Si143  1  0.47974239  0.58299763  0.38292502  1
  Si  Si144  1  0.18990680  0.08171733  0.61834717  1
  Si  Si145  1  0.86330644  0.59110207  0.61291810  1
  Si  Si146  1  0.31079671  0.34050086  0.38704008  1
  Si  Si147  1  0.63933221  0.16586303  0.38570188  1
  Si  Si148  1  0.31305823  0.66339213  0.38402880  1
  Si  Si149  1  0.18763059  0.58445105  0.11424516  1
  Si  Si150  1  0.47718286  0.07656798  0.38728204  1
  Si  Si151  1  0.30999559  0.16572794  0.88776710  1
  Si  Si152  1  0.35597761  0.66291093  0.11303689  1
  Si  Si153  1  0.14018061  0.58880172  0.88706836  1
  Si  Si154  1  0.02724418  0.32795348  0.61212355  1
  Si  Si155  1  0.14211388  0.41828913  0.38622368  1
  Si  Si156  1  0.96787981  0.83052818  0.89134244  1
  Si  Si157  1  0.03107419  0.16670572  0.11733745  1
  Si  Si158  1  0.68720187  0.65914898  0.10981257  1
  Si  Si159  1  0.86636201  0.92016158  0.11378327  1
  Si  Si160  1  0.35341241  0.33564220  0.11516680  1
  Si  Si161  1  0.69196159  0.33410972  0.11460950  1
  Si  Si162  1  0.47085157  0.91194733  0.38211980  1
  Si  Si163  1  0.97583150  0.16860093  0.38525772  1
  Si  Si164  1  0.35760924  0.82842983  0.11428194  1
  Si  Si165  1  0.18340347  0.57752145  0.61429572  1
  Si  Si166  1  0.64618590  0.33549214  0.88274017  1
  Si  Si167  1  0.35347810  0.16645987  0.61330697  1
  Si  Si168  1  0.85998364  0.57856354  0.11392302  1
  Si  Si169  1  0.52201428  0.41235250  0.11417724  1
  Si  Si170  1  0.30543492  0.66644800  0.88806433  1
  Si  Si171  1  0.64656745  0.17217918  0.88530970  1
  Si  Si172  1  0.18979673  0.92030511  0.61495525  1
  Si  Si173  1  0.80744753  0.58290932  0.88260453  1
  Si  Si174  1  0.02947468  0.83442017  0.11641710  1
  Si  Si175  1  0.02168299  0.16372598  0.61748367  1
  Si  Si176  1  0.85891895  0.08051661  0.61726264  1
  Si  Si177  1  0.02641888  0.33242627  0.11550257  1
  Si  Si178  1  0.52381156  0.08798317  0.61143566  1
  Si  Si179  1  0.18637277  0.41663349  0.61420009  1
  Si  Si180  1  0.64356495  0.66812328  0.38310687  1
  Si  Si181  1  0.80900561  0.08635646  0.88762064  1
  Si  Si182  1  0.63744580  0.82728336  0.88466005  1
  Si  Si183  1  0.69394733  0.16476401  0.61456712  1
  Si  Si184  1  0.13919730  0.08642513  0.89030997  1
  Si  Si185  1  0.69580742  0.66944953  0.61292669  1
  Si  Si186  1  0.02213127  0.66852488  0.11442392  1
  Si  Si187  1  0.14086632  0.08817931  0.39126623  1
  Si  Si188  1  0.97328108  0.17024206  0.88768351  1
  Si  Si189  1  0.97919706  0.33183932  0.38746524  1
  Si  Si190  1  0.98037151  0.66673427  0.38547620  1
  Si  Si191  1  0.69676119  0.16867415  0.11212099  1
  O  O192  1  0.26953978  0.12066598  0.08724695  1
  O  O193  1  0.26937596  0.11515593  0.58651311  1
  O  O194  1  0.26829584  0.61826367  0.08551016  1
  O  O195  1  0.25982627  0.59375177  0.57466841  1
  O  O196  1  0.61760015  0.12148843  0.07789296  1
  O  O197  1  0.60255665  0.12914228  0.58294374  1
  O  O198  1  0.60078395  0.61048824  0.08074096  1
  O  O199  1  0.61282283  0.62175215  0.58179504  1
  O  O200  1  0.94307775  0.12515566  0.08784276  1
  O  O201  1  0.93617714  0.11716449  0.58426122  1
  O  O202  1  0.93468622  0.62476201  0.08504260  1
  O  O203  1  0.93930164  0.63156464  0.58139116  1
  O  O204  1  0.10393931  0.37314731  0.08737104  1
  O  O205  1  0.11240550  0.35693423  0.58571230  1
  O  O206  1  0.11190199  0.86647448  0.08819091  1
  O  O207  1  0.10361774  0.87256156  0.58589055  1
  O  O208  1  0.43508763  0.36604812  0.08475864  1
  O  O209  1  0.44119142  0.38078938  0.57420656  1
  O  O210  1  0.43962392  0.85666182  0.08632782  1
  O  O211  1  0.43810355  0.86359345  0.56355483  1
  O  O212  1  0.76853829  0.37682561  0.08535757  1
  O  O213  1  0.76268820  0.36933048  0.57640353  1
  O  O214  1  0.78639455  0.87520397  0.07768022  1
  O  O215  1  0.78471730  0.86345858  0.58592424  1
  O  O216  1  0.27161601  0.38800992  0.08772865  1
  O  O217  1  0.26284244  0.39884957  0.57439840  1
  O  O218  1  0.27400972  0.87776933  0.08661636  1
  O  O219  1  0.26190314  0.89163144  0.57640090  1
  O  O220  1  0.60201440  0.37590236  0.08557515  1
  O  O221  1  0.60198146  0.36697788  0.58148295  1
  O  O222  1  0.59646497  0.88990105  0.07621946  1
  O  O223  1  0.62253807  0.88270860  0.57233835  1
  O  O224  1  0.93574314  0.37049014  0.08478187  1
  O  O225  1  0.94922441  0.37402787  0.57289613  1
  O  O226  1  0.95074464  0.88707237  0.08726797  1
  O  O227  1  0.94336318  0.88224914  0.58500409  1
  O  O228  1  0.10620657  0.12543790  0.08781917  1
  O  O229  1  0.10400062  0.12949961  0.59024861  1
  O  O230  1  0.10182106  0.63066088  0.08565162  1
  O  O231  1  0.10404062  0.63333805  0.58517488  1
  O  O232  1  0.43121697  0.15058177  0.07848774  1
  O  O233  1  0.43660534  0.13453691  0.58511239  1
  O  O234  1  0.43445362  0.62475190  0.08430568  1
  O  O235  1  0.44720211  0.61681688  0.57200327  1
  O  O236  1  0.78202783  0.13570203  0.08710977  1
  O  O237  1  0.76953987  0.12160558  0.58530803  1
  O  O238  1  0.76754234  0.61442724  0.08636453  1
  O  O239  1  0.77667312  0.63755992  0.58351801  1
  O  O240  1  0.04875464  0.11005546  0.41355562  1
  O  O241  1  0.06053962  0.12779974  0.91957579  1
  O  O242  1  0.06482245  0.61776167  0.41611373  1
  O  O243  1  0.05698064  0.61982689  0.91724167  1
  O  O244  1  0.40268167  0.10643087  0.42328792  1
  O  O245  1  0.38504828  0.11599397  0.92616522  1
  O  O246  1  0.39590007  0.61273074  0.41057127  1
  O  O247  1  0.37917528  0.61205237  0.92263155  1
  O  O248  1  0.72932316  0.12682481  0.41499102  1
  O  O249  1  0.73134142  0.12581414  0.91738316  1
  O  O250  1  0.73098317  0.62652337  0.41435022  1
  O  O251  1  0.72873743  0.61405595  0.91527422  1
  O  O252  1  0.22627019  0.37084545  0.41364596  1
  O  O253  1  0.24294205  0.36788868  0.92664791  1
  O  O254  1  0.22892432  0.84852505  0.41893338  1
  O  O255  1  0.22333585  0.85161130  0.92406376  1
  O  O256  1  0.54605151  0.36249517  0.41321126  1
  O  O257  1  0.56388268  0.35992628  0.91431299  1
  O  O258  1  0.54456432  0.85388919  0.40961721  1
  O  O259  1  0.55068810  0.83448399  0.91343387  1
  O  O260  1  0.90109999  0.35595611  0.42107125  1
  O  O261  1  0.88801984  0.36920718  0.91610510  1
  O  O262  1  0.88618497  0.84907422  0.41998189  1
  O  O263  1  0.88537457  0.85254284  0.92196743  1
  O  O264  1  0.06223840  0.38366885  0.41439392  1
  O  O265  1  0.05329289  0.37850881  0.92782324  1
  O  O266  1  0.04588264  0.88501436  0.42441116  1
  O  O267  1  0.04642489  0.87927380  0.92716003  1
  O  O268  1  0.38470094  0.40187674  0.40974539  1
  O  O269  1  0.40358179  0.37225038  0.91665198  1
  O  O270  1  0.38687268  0.88433148  0.40984259  1
  O  O271  1  0.38062104  0.88193760  0.92513893  1
  O  O272  1  0.71166182  0.37696325  0.42240106  1
  O  O273  1  0.72445933  0.38861813  0.91651668  1
  O  O274  1  0.70539206  0.88747444  0.42011457  1
  O  O275  1  0.70462284  0.88573002  0.92139861  1
  O  O276  1  0.20789710  0.15063405  0.41970205  1
  O  O277  1  0.22006672  0.14171436  0.91124610  1
  O  O278  1  0.23135400  0.63025467  0.41238218  1
  O  O279  1  0.21730529  0.64546919  0.91551936  1
  O  O280  1  0.56612190  0.12020284  0.41397103  1
  O  O281  1  0.56869553  0.14996634  0.92043891  1
  O  O282  1  0.56256311  0.63203353  0.41136746  1
  O  O283  1  0.57034634  0.63906607  0.92107172  1
  O  O284  1  0.88893553  0.14797030  0.41210775  1
  O  O285  1  0.89459303  0.13463477  0.91765293  1
  O  O286  1  0.89655037  0.63536669  0.41148775  1
  O  O287  1  0.89363154  0.62794649  0.91447167  1
  O  O288  1  0.18256204  -0.00192840  0.08846644  1
  O  O289  1  0.16630108  0.00240193  0.58546879  1
  O  O290  1  0.17224717  0.50171243  0.08701271  1
  O  O291  1  0.14604245  0.49663070  0.59100052  1
  O  O292  1  0.48139365  -0.00657821  0.08295830  1
  O  O293  1  0.51196648  0.01240072  0.57292887  1
  O  O294  1  0.50646286  0.49496486  0.08462907  1
  O  O295  1  0.53813019  0.49714102  0.58227930  1
  O  O296  1  0.85716569  0.00486457  0.08708738  1
  O  O297  1  0.84800255  -0.00240999  0.58776232  1
  O  O298  1  0.85876337  0.49658508  0.08176356  1
  O  O299  1  0.85064676  0.51252623  0.58014949  1
  O  O300  1  0.02341952  0.24942807  0.08798745  1
  O  O301  1  0.01142419  0.24417457  0.58381704  1
  O  O302  1  0.01364546  0.75170158  0.08657430  1
  O  O303  1  0.01697011  0.75396801  0.58595796  1
  O  O304  1  0.32499146  0.25521422  0.08801358  1
  O  O305  1  0.33303810  0.24369906  0.57722971  1
  O  O306  1  0.33994933  0.74552458  0.08591634  1
  O  O307  1  0.32472411  0.74197483  0.56293072  1
  O  O308  1  0.68785121  0.25252661  0.08305359  1
  O  O309  1  0.68946052  0.24585803  0.58319584  1
  O  O310  1  0.67911821  0.73572784  0.07238474  1
  O  O311  1  0.68267895  0.75068934  0.58189946  1
  O  O312  1  0.17049277  0.01097445  0.42342956  1
  O  O313  1  0.15807456  0.01193973  0.93147383  1
  O  O314  1  0.15866858  0.50109657  0.41367351  1
  O  O315  1  0.16189297  0.51262723  0.92436477  1
  O  O316  1  0.49762864  -0.00780851  0.41081175  1
  O  O317  1  0.51390391  -0.00317239  0.93108485  1
  O  O318  1  0.49995788  0.50133989  0.41139512  1
  O  O319  1  0.49917045  0.48830760  0.92453984  1
  O  O320  1  0.83359715  0.01401110  0.42194403  1
  O  O321  1  0.82621593  0.00984413  0.92468893  1
  O  O322  1  0.82678901  0.50944366  0.42605741  1
  O  O323  1  0.82440999  0.50016927  0.91113806  1
  O  O324  1  0.34263280  0.26541350  0.42067373  1
  O  O325  1  0.32633088  0.24848017  0.91835542  1
  O  O326  1  0.33834474  0.74484489  0.40948893  1
  O  O327  1  0.33150256  0.74655739  0.91821157  1
  O  O328  1  0.64031134  0.24695116  0.41689140  1
  O  O329  1  0.67428941  0.25526076  0.91069463  1
  O  O330  1  0.65426090  0.74994009  0.41223789  1
  O  O331  1  0.67779636  0.74656467  0.90777665  1
  O  O332  1  1.00775701  0.24893777  0.41183834  1
  O  O333  1  0.98083302  0.25176093  0.91932705  1
  O  O334  1  1.00002404  0.74762270  0.41515004  1
  O  O335  1  0.98844254  0.74584400  0.91715845  1
  O  O336  1  0.20913325  0.08184578  0.19737035  1
  O  O337  1  0.21239467  0.07810464  0.69723582  1
  O  O338  1  0.20798467  0.58417534  0.19491981  1
  O  O339  1  0.20857388  0.58563087  0.69399495  1
  O  O340  1  0.54357552  0.08526745  0.20046642  1
  O  O341  1  0.54520768  0.08619635  0.69182311  1
  O  O342  1  0.53968647  0.58107607  0.19226801  1
  O  O343  1  0.54593799  0.58298634  0.68969793  1
  O  O344  1  0.88016145  0.08641306  0.19704932  1
  O  O345  1  0.87716188  0.08448136  0.69649605  1
  O  O346  1  0.88259894  0.57470318  0.19318741  1
  O  O347  1  0.88296949  0.59456926  0.69247894  1
  O  O348  1  0.04392427  0.33459431  0.19604973  1
  O  O349  1  0.04256600  0.33017530  0.69229082  1
  O  O350  1  0.04627261  0.83243246  0.19673524  1
  O  O351  1  0.04246538  0.83355746  0.69703296  1
  O  O352  1  0.37412803  0.33553579  0.19582047  1
  O  O353  1  0.37975831  0.33482274  0.70201357  1
  O  O354  1  0.37425816  0.82980355  0.19504402  1
  O  O355  1  0.37728174  0.82782813  0.69729735  1
  O  O356  1  0.71066726  0.33084032  0.19414798  1
  O  O357  1  0.70645681  0.33078479  0.69159441  1
  O  O358  1  0.70962416  0.83239660  0.19686859  1
  O  O359  1  0.71017228  0.83210127  0.69099580  1
  O  O360  1  0.20855578  0.41856263  0.19628808  1
  O  O361  1  0.21333780  0.41327376  0.69367615  1
  O  O362  1  0.21300168  0.91545373  0.19651884  1
  O  O363  1  0.20629136  0.91741875  0.69467550  1
  O  O364  1  0.53696338  0.41439068  0.19372513  1
  O  O365  1  0.54391485  0.41496582  0.69127015  1
  O  O366  1  0.54007340  0.91501080  0.19189905  1
  O  O367  1  0.54555220  0.91575090  0.69767892  1
  O  O368  1  0.88013502  0.41492117  0.19346333  1
  O  O369  1  0.88703861  0.40756307  0.69907102  1
  O  O370  1  0.88206779  0.92018998  0.19467643  1
  O  O371  1  0.88312350  0.91310005  0.69644773  1
  O  O372  1  0.04704070  0.16796315  0.19785318  1
  O  O373  1  0.03223663  0.16573610  0.69642782  1
  O  O374  1  0.04307508  0.66638110  0.19478289  1
  O  O375  1  0.04372828  0.66956219  0.69555102  1
  O  O376  1  0.37456292  0.16875606  0.19424255  1
  O  O377  1  0.37465123  0.16868878  0.69359767  1
  O  O378  1  0.37539303  0.66359842  0.19371513  1
  O  O379  1  0.37456435  0.66484685  0.69761400  1
  O  O380  1  0.71160992  0.16921687  0.19346932  1
  O  O381  1  0.71099415  0.16533996  0.69454527  1
  O  O382  1  0.69725128  0.66412474  0.18950593  1
  O  O383  1  0.71107948  0.66816907  0.69316598  1
  O  O384  1  0.12387755  0.08567738  0.30883472  1
  O  O385  1  0.11600398  0.07621595  0.81141646  1
  O  O386  1  0.12545590  0.58349425  0.30525032  1
  O  O387  1  0.12107810  0.58954612  0.80725048  1
  O  O388  1  0.45599324  0.08197752  0.30617411  1
  O  O389  1  0.45845035  0.08327171  0.79876364  1
  O  O390  1  0.45817446  0.58299483  0.30218195  1
  O  O391  1  0.45769989  0.58037312  0.79715530  1
  O  O392  1  0.79041618  0.08755086  0.30571815  1
  O  O393  1  0.78916955  0.08690573  0.80770689  1
  O  O394  1  0.78776590  0.57824708  0.30768868  1
  O  O395  1  0.78686592  0.58992961  0.80362038  1
  O  O396  1  0.28980839  0.33704999  0.30543397  1
  O  O397  1  0.29173898  0.33354436  0.80906800  1
  O  O398  1  0.29039982  0.82984955  0.30433055  1
  O  O399  1  0.28739680  0.82773146  0.81031663  1
  O  O400  1  0.61825150  0.32934605  0.30722352  1
  O  O401  1  0.62502035  0.33566408  0.80262598  1
  O  O402  1  0.61898258  0.83287395  0.30357407  1
  O  O403  1  0.62410443  0.83111915  0.80348732  1
  O  O404  1  0.96002329  0.33375807  0.30594641  1
  O  O405  1  0.96096060  0.33437365  0.80970457  1
  O  O406  1  0.95736485  0.83402811  0.30868220  1
  O  O407  1  0.95586731  0.83236451  0.81004526  1
  O  O408  1  0.12362983  0.41823849  0.30505206  1
  O  O409  1  0.12289570  0.41663008  0.79924585  1
  O  O410  1  0.12243709  0.91693798  0.30077471  1
  O  O411  1  0.12141999  0.91650343  0.80203518  1
  O  O412  1  0.45588384  0.41853440  0.30305496  1
  O  O413  1  0.46232355  0.41623265  0.80680436  1
  O  O414  1  0.45451349  0.91426342  0.30116765  1
  O  O415  1  0.45658403  0.91729747  0.79991292  1
  O  O416  1  0.79249219  0.41683271  0.29965471  1
  O  O417  1  0.78233337  0.41223539  0.80475135  1
  O  O418  1  0.78788360  0.92054653  0.29831155  1
  O  O419  1  0.78402849  0.91604694  0.79767219  1
  O  O420  1  0.29024511  0.16803854  0.30074362  1
  O  O421  1  0.30333177  0.16750287  0.80858534  1
  O  O422  1  0.29098009  0.66338686  0.30302883  1
  O  O423  1  0.28926956  0.66483258  0.80733798  1
  O  O424  1  0.62370097  0.16810972  0.30504073  1
  O  O425  1  0.62658317  0.16787449  0.80463669  1
  O  O426  1  0.62348998  0.66569321  0.30248679  1
  O  O427  1  0.62457665  0.66311256  0.80317888  1
  O  O428  1  0.95747024  0.16837959  0.30415613  1
  O  O429  1  0.95653832  0.16808181  0.80791661  1
  O  O430  1  0.96882996  0.66635788  0.30580600  1
  O  O431  1  0.95602741  0.66715152  0.80535575  1
  F  F432  1  0.04609582  0.00363260  0.20329798  1
  F  F433  1  0.04268008  0.00157494  0.70284615  1
  F  F434  1  0.04694030  0.49990305  0.20225046  1
  F  F435  1  0.03637380  0.50227962  0.69872033  1
  F  F436  1  0.37532694  0.00020801  0.20290664  1
  F  F437  1  0.37821714  0.00564099  0.69585306  1
  F  F438  1  0.37689835  0.50004420  0.20069435  1
  F  F439  1  0.37873008  0.49622794  0.69907340  1
  F  F440  1  0.71290023  0.00544457  0.19937288  1
  F  F441  1  0.70548494  0.00274378  0.69708385  1
  F  F442  1  0.71388400  0.50488680  0.19669176  1
  F  F443  1  0.70128734  0.50112901  0.69391670  1
  F  F444  1  0.20929862  0.25328953  0.20222400  1
  F  F445  1  0.21711558  0.25798995  0.70131114  1
  F  F446  1  0.21152614  0.74820296  0.20172122  1
  F  F447  1  0.21024041  0.75037819  0.70422822  1
  F  F448  1  0.54437838  0.25072481  0.20152078  1
  F  F449  1  0.54754126  0.24949247  0.70196760  1
  F  F450  1  0.54254094  0.74830693  0.19986350  1
  F  F451  1  0.54663715  0.74725664  0.70024667  1
  F  F452  1  0.88050275  0.25191482  0.20267206  1
  F  F453  1  0.87873157  0.24510825  0.70218234  1
  F  F454  1  0.88560727  0.76115927  0.19940300  1
  F  F455  1  0.88061561  0.75284307  0.70351509  1
  F  F456  1  0.28935910  -0.00106070  0.29905371  1
  F  F457  1  0.28673430  0.00457053  0.80301240  1
  F  F458  1  0.28806391  0.50140035  0.29700501  1
  F  F459  1  0.29560858  0.49957890  0.79962342  1
  F  F460  1  0.62180867  -0.00163306  0.29525583  1
  F  F461  1  0.62154847  0.00236522  0.79702643  1
  F  F462  1  0.61857532  0.50369356  0.29690124  1
  F  F463  1  0.62176717  0.49903676  0.79426787  1
  F  F464  1  0.95496234  0.00210360  0.29879084  1
  F  F465  1  0.95651964  0.00020151  0.80292425  1
  F  F466  1  0.95744743  0.49980590  0.29865604  1
  F  F467  1  0.96822399  0.50316573  0.80675735  1
  F  F468  1  0.12173772  0.25282290  0.29853389  1
  F  F469  1  0.11536921  0.26087084  0.80301654  1
  F  F470  1  0.12334471  0.74845057  0.29789735  1
  F  F471  1  0.12059633  0.75000948  0.79887376  1
  F  F472  1  0.45421087  0.25062148  0.29638986  1
  F  F473  1  0.45979179  0.24955605  0.79827044  1
  F  F474  1  0.45442530  0.74659391  0.29510305  1
  F  F475  1  0.45775977  0.74673813  0.79766630  1
  F  F476  1  0.78815556  0.25029394  0.29746377  1
  F  F477  1  0.78668757  0.24553770  0.80004522  1
  F  F478  1  0.78300302  0.75684490  0.30097683  1
  F  F479  1  0.78790698  0.75032239  0.79527393  1
